data_mof_unit_7083.cif
_audit_creation_date              2013-03-05T16:06:27-0500
_audit_creation_method            fapswitch 2.2
_symmetry_space_group_name_H-M    P1
_symmetry_Int_Tables_number       1
_space_group_crystal_system       triclinic
_cell_length_a                    26.146746
_cell_length_b                    26.124325
_cell_length_c                    18.394134
_cell_angle_alpha                 90.104803
_cell_angle_beta                  134.527265
_cell_angle_gamma                 89.888953
_cell_volume                      8957.36001426

loop_
_atom_site_label
_atom_site_type_symbol
_atom_site_description
_atom_site_fract_x
_atom_site_fract_y
_atom_site_fract_z
_atom_type_partial_charge
Zn1   Zn    Zn3+2 0.337540 0.293760 0.587540 1.092030
Zn2   Zn    Zn3+2 0.337540 0.706240 0.587540 1.084202
Zn3   Zn    Zn3+2 0.837540 0.793760 0.587540 1.118959
Zn4   Zn    Zn3+2 0.837540 0.206240 0.587540 1.102036
Zn5   Zn    Zn3+2 0.162450 0.293770 0.412470 1.036788
Zn6   Zn    Zn3+2 0.162450 0.706230 0.412470 1.047181
Zn7   Zn    Zn3+2 0.662450 0.793770 0.412470 1.033352
Zn8   Zn    Zn3+2 0.662450 0.206230 0.412470 1.031665
Zn9   Zn    Zn3+2 0.249980 0.206220 0.412450 1.108663
Zn10  Zn    Zn3+2 0.249980 0.793780 0.412450 1.112689
Zn11  Zn    Zn3+2 0.749980 0.706220 0.412450 1.116420
Zn12  Zn    Zn3+2 0.749980 0.293780 0.412450 1.113645
Zn13  Zn    Zn3+2 0.250000 0.206220 0.587540 1.059754
Zn14  Zn    Zn3+2 0.250000 0.793780 0.587540 1.044401
Zn15  Zn    Zn3+2 0.750000 0.706220 0.587540 1.052500
Zn16  Zn    Zn3+2 0.750000 0.293780 0.587540 1.040687
O1    O     O_3   0.249990 0.249990 0.500000 -0.546374
O2    O     O_3   0.249990 0.750010 0.500000 -0.557285
O3    O     O_3   0.749990 0.749990 0.500000 -0.545493
O4    O     O_3   0.749990 0.250010 0.500000 -0.548530
O5    O     O_R   0.163790 0.219360 0.561280 -0.616720
O6    O     O_R   0.163790 0.780640 0.561280 -0.613120
O7    O     O_R   0.663790 0.719360 0.561280 -0.602525
O8    O     O_R   0.663790 0.280640 0.561280 -0.605167
O9    O     O_R   0.397470 0.280620 0.561260 -0.563057
O10   O     O_R   0.397470 0.719380 0.561260 -0.551598
O11   O     O_R   0.897470 0.780620 0.561260 -0.558351
O12   O     O_R   0.897470 0.219380 0.561260 -0.550118
O13   O     O_R   0.188730 0.366850 0.438750 -0.648438
O14   O     O_R   0.188730 0.633150 0.438750 -0.638795
O15   O     O_R   0.688730 0.866850 0.438750 -0.645929
O16   O     O_R   0.688730 0.133150 0.438750 -0.636428
O17   O     O_R   0.249980 0.133140 0.438710 -0.658656
O18   O     O_R   0.249980 0.866860 0.438710 -0.631528
O19   O     O_R   0.749980 0.633140 0.438710 -0.641182
O20   O     O_R   0.749980 0.366860 0.438710 -0.624325
O21   O     O_R   0.102500 0.280640 0.266310 -0.642402
O22   O     O_R   0.102500 0.719360 0.266310 -0.609842
O23   O     O_R   0.602500 0.780640 0.266310 -0.654643
O24   O     O_R   0.602500 0.219360 0.266310 -0.655830
O25   O     O_R   0.336220 0.219350 0.733700 -0.624615
O26   O     O_R   0.336220 0.780650 0.733700 -0.620528
O27   O     O_R   0.836220 0.719350 0.733700 -0.648126
O28   O     O_R   0.836220 0.280650 0.733700 -0.646216
O29   O     O_R   0.163750 0.219360 0.266290 -0.592272
O30   O     O_R   0.163750 0.780640 0.266290 -0.533049
O31   O     O_R   0.663750 0.719360 0.266290 -0.592820
O32   O     O_R   0.663750 0.280640 0.266290 -0.588763
O33   O     O_R   0.397490 0.280620 0.733700 -0.649941
O34   O     O_R   0.397490 0.719380 0.733700 -0.637273
O35   O     O_R   0.897490 0.780620 0.733700 -0.640428
O36   O     O_R   0.897490 0.219380 0.733700 -0.635221
O37   O     O_R   0.311270 0.366840 0.561280 -0.640377
O38   O     O_R   0.311270 0.633160 0.561280 -0.633218
O39   O     O_R   0.811270 0.866840 0.561280 -0.633424
O40   O     O_R   0.811270 0.133160 0.561280 -0.629414
O41   O     O_R   0.249990 0.133140 0.561260 -0.599866
O42   O     O_R   0.249990 0.866860 0.561260 -0.592351
O43   O     O_R   0.749990 0.633140 0.561260 -0.612685
O44   O     O_R   0.749990 0.366860 0.561260 -0.604178
O45   O     O_R   0.102520 0.280640 0.438750 -0.632806
O46   O     O_R   0.102520 0.719360 0.438750 -0.597021
O47   O     O_R   0.602520 0.780640 0.438750 -0.635637
O48   O     O_R   0.602520 0.219360 0.438750 -0.633349
O49   O     O_R   0.336190 0.219350 0.438710 -0.573094
O50   O     O_R   0.336190 0.780650 0.438710 -0.591906
O51   O     O_R   0.836190 0.719350 0.438710 -0.580832
O52   O     O_R   0.836190 0.280650 0.438710 -0.588812
C1    C     C_R   0.111067 0.251371 0.503563 0.915710
C2    C     C_R   0.109946 0.750555 0.501570 0.843375
C3    C     C_R   0.610749 0.751199 0.502914 0.904840
C4    C     C_R   0.609646 0.250871 0.500792 0.858175
C5    C     C_R   0.389686 0.250957 0.497161 1.021656
C6    C     C_R   0.392617 0.750750 0.503006 1.023370
C7    C     C_R   0.889488 0.751358 0.496944 1.026699
C8    C     C_R   0.893037 0.251225 0.503939 1.009788
C9    C     C_R   0.249196 0.390854 0.498002 1.019994
C10   C     C_R   0.249010 0.609238 0.498480 0.966686
C11   C     C_R   0.749352 0.890907 0.498240 1.016743
C12   C     C_R   0.749044 0.109289 0.498671 0.966323
C13   C     C_R   0.247168 0.109185 0.497414 0.905991
C14   C     C_R   0.250185 0.891228 0.500384 0.901336
C15   C     C_R   0.746529 0.609133 0.496589 0.894778
C16   C     C_R   0.748988 0.391125 0.499360 0.882235
C17   C     C_R   0.108732 0.250009 0.217617 0.984552
C18   C     C_R   0.109303 0.749682 0.217744 0.899113
C19   C     C_R   0.608714 0.749525 0.217743 1.019988
C20   C     C_R   0.609345 0.248983 0.217528 1.016736
C21   C     C_R   0.389877 0.249638 0.781432 0.897730
C22   C     C_R   0.390184 0.750653 0.781660 0.861563
C23   C     C_R   0.891980 0.748076 0.781496 0.905449
C24   C     C_R   0.891134 0.251661 0.781472 0.892023
C25   C     C_3   0.432798 0.198208 0.938915 0.312751
C26   C     C_3   0.438812 0.802913 0.941342 0.332905
C27   C     C_3   0.971723 0.685912 0.937992 0.363122
C28   C     C_3   0.949345 0.311594 0.936415 0.355343
C29   C     C_3   0.489280 0.203185 0.062429 0.163767
C30   C     C_3   0.492231 0.795880 0.063281 0.188410
C31   C     C_3   0.038173 0.687986 0.062144 0.104062
C32   C     C_3   0.006151 0.307153 0.060467 0.138314
C33   C     C_3   0.439258 0.302890 0.935120 0.144394
C34   C     C_3   0.439237 0.697845 0.935139 0.135950
C35   C     C_3   0.920515 0.778584 0.936605 0.124109
C36   C     C_3   0.929505 0.208116 0.936140 0.127644
C37   C     C_3   0.522189 0.246550 0.938783 -0.271470
C38   C     C_3   0.522078 0.754207 0.936055 -0.301213
C39   C     C_3   0.020169 0.773476 0.937180 -0.347582
C40   C     C_3   0.023779 0.244180 0.937600 -0.345679
C41   C     C_3   0.443896 0.248625 0.896186 -0.112424
C42   C     C_3   0.445354 0.751769 0.896976 -0.124708
C43   C     C_3   0.949890 0.745328 0.897002 -0.107905
C44   C     C_3   0.946957 0.254634 0.896662 -0.113081
H1    H     H_    0.531408 0.286287 0.934633 0.208040
H2    H     H_    0.524808 0.716390 0.914222 0.237313
H3    H     H_    0.000735 0.810899 0.898766 0.257682
H4    H     H_    0.016386 0.205821 0.908512 0.254951
C45   C     C_3   0.548779 0.248321 0.101035 -0.293193
C46   C     C_3   0.550122 0.749066 0.101672 -0.299810
C47   C     C_3   0.051977 0.748481 0.101556 -0.253927
C48   C     C_3   0.049986 0.251058 0.101122 -0.275671
C49   C     C_3   0.508800 0.305436 0.058788 0.291573
C50   C     C_3   0.506951 0.693744 0.059201 0.313042
C51   C     C_3   0.976684 0.772153 0.060073 0.300986
C52   C     C_3   0.993046 0.204310 0.060197 0.329520
C53   C     C_3   0.582787 0.234701 0.055671 0.333730
C54   C     C_3   0.586810 0.757628 0.057062 0.363727
C55   C     C_3   0.078515 0.783172 0.056952 0.408966
C56   C     C_3   0.087974 0.243455 0.058502 0.374819
C57   C     C_3   0.524075 0.265685 0.613060 0.356494
C58   C     C_3   0.534049 0.750586 0.631320 0.361446
C59   C     C_3   0.024900 0.761664 0.615662 0.344684
C60   C     C_3   0.034856 0.246414 0.632548 0.365805
C61   C     C_3   0.588908 0.264194 0.618896 0.194854
C62   C     C_3   0.592742 0.745747 0.623549 0.136306
C63   C     C_3   0.089854 0.759255 0.621558 0.204309
C64   C     C_3   0.092981 0.240914 0.623826 0.157279
C65   C     C_3   0.427018 0.296860 0.413192 0.376673
C66   C     C_3   0.446495 0.696923 0.450058 0.410584
C67   C     C_3   0.931280 0.800951 0.421854 0.385122
C68   C     C_3   0.942621 0.200174 0.442687 0.402709
C69   C     C_3   0.451213 0.196320 0.458920 0.197263
C70   C     C_3   0.447543 0.802969 0.452267 0.198678
C71   C     C_3   0.946460 0.698855 0.450519 0.182258
C72   C     C_3   0.952669 0.305931 0.462801 0.206312
C73   C     C_3   0.446912 0.252402 0.495175 -0.451061
C74   C     C_3   0.453680 0.749574 0.508819 -0.424752
C75   C     C_3   0.947093 0.753217 0.495990 -0.456741
C76   C     C_3   0.954207 0.250184 0.510000 -0.421794
C77   C     C_3   0.552824 0.254652 0.502174 -0.219662
C78   C     C_3   0.554609 0.751583 0.505961 -0.229555
C79   C     C_3   0.053309 0.754448 0.503645 -0.215693
C80   C     C_3   0.055420 0.251845 0.507675 -0.234640
C81   C     C_3   0.493813 0.298500 0.420988 0.013061
C82   C     C_3   0.497204 0.706270 0.429446 0.056217
C83   C     C_3   0.998287 0.801758 0.430219 0.016378
C84   C     C_3   0.994287 0.209965 0.423932 0.030203
C85   C     C_3   0.509972 0.201449 0.457454 0.029484
C86   C     C_3   0.511546 0.804007 0.459805 0.033579
C87   C     C_3   0.005926 0.703322 0.450253 0.029136
C88   C     C_3   0.017531 0.306374 0.471810 0.023318
H5    H     H_    0.481268 0.205534 0.378367 0.192900
H6    H     H_    0.487399 0.805312 0.381202 0.188240
H7    H     H_    0.977830 0.710302 0.371948 0.203479
H8    H     H_    0.994249 0.311482 0.394084 0.188971
C89   C     C_3   0.220031 0.031586 0.554215 0.217744
C90   C     C_3   0.212417 0.969706 0.542348 0.227132
C91   C     C_3   0.694619 0.531479 0.515708 0.231686
C92   C     C_3   0.688753 0.469268 0.504469 0.209257
C93   C     C_3   0.326934 0.032374 0.558501 0.237850
C94   C     C_3   0.329496 0.970786 0.567553 0.220875
C95   C     C_3   0.827790 0.532244 0.587192 0.238080
C96   C     C_3   0.828526 0.470493 0.595142 0.219671
C97   C     C_3   0.184503 0.031855 0.375425 0.236697
C98   C     C_3   0.194300 0.969326 0.375953 0.274025
C99   C     C_3   0.706405 0.531046 0.379795 0.242555
C100  C     C_3   0.719307 0.468980 0.387954 0.299565
C101  C     C_3   0.244821 0.051692 0.495965 -0.202486
C102  C     C_3   0.247111 0.949344 0.497535 -0.200536
C103  C     C_3   0.744131 0.551461 0.494586 -0.206661
C104  C     C_3   0.746449 0.449046 0.497571 -0.203010
C105  C     C_3   0.245396 0.448737 0.491899 -0.206297
C106  C     C_3   0.244399 0.551505 0.491187 -0.187586
C107  C     C_3   0.746148 0.948888 0.492696 -0.209581
C108  C     C_3   0.744711 0.051648 0.491706 -0.188243
C109  C     C_3   0.283743 0.469976 0.455189 0.203839
C110  C     C_3   0.269136 0.531867 0.435487 0.190169
C111  C     C_3   0.784925 0.970286 0.456702 0.200513
C112  C     C_3   0.769375 0.032044 0.435857 0.164076
H9    H     H_    0.345907 0.453221 0.654936 0.156080
H10   H     H_    0.352659 0.534512 0.632249 0.124297
H11   H     H_    0.846710 0.953584 0.655867 0.164690
H12   H     H_    0.852952 0.035090 0.632207 0.128775
C113  C     C_3   0.162102 0.469404 0.416956 0.235509
C114  C     C_3   0.163178 0.530777 0.429541 0.227429
C115  C     C_3   0.662923 0.969551 0.416945 0.219639
C116  C     C_3   0.663802 0.030621 0.430796 0.232034
C117  C     C_3   0.291003 0.469293 0.604153 -0.030119
C118  C     C_3   0.299780 0.528829 0.604607 -0.001607
C119  C     C_3   0.791761 0.969594 0.605093 -0.025607
C120  C     C_3   0.800416 0.029215 0.605292 -0.002980
C121  C     C_3   0.355164 0.189555 0.892841 -0.634355
H13   H     H_    0.328453 0.221320 0.893632 0.206937
H14   H     H_    0.318687 0.173222 0.815708 0.326412
H15   H     H_    0.355465 0.157775 0.932931 0.247918
C122  C     C_3   0.361510 0.817104 0.893787 -0.642473
H16   H     H_    0.332828 0.786296 0.893240 0.211514
H17   H     H_    0.365509 0.850028 0.935622 0.228983
H18   H     H_    0.323969 0.833206 0.816058 0.320926
C123  C     C_3   0.907772 0.652631 0.904253 -0.721518
H19   H     H_    0.890448 0.661886 0.941905 0.261002
H20   H     H_    0.860646 0.649916 0.821651 0.281431
H21   H     H_    0.923124 0.611709 0.922572 0.246555
C124  C     C_3   0.874897 0.334944 0.888011 -0.631385
H22   H     H_    0.839883 0.311108 0.886348 0.214481
H23   H     H_    0.883448 0.371167 0.926576 0.235871
H24   H     H_    0.841975 0.350038 0.809991 0.297898
N1    N     N_R   0.647947 0.265483 0.102779 0.196585
O53   O     O_R   0.708660 0.251893 0.191445 -0.204769
O54   O     O_R   0.651997 0.294036 0.048890 -0.354375
N2    N     N_R   0.641563 0.718314 0.089384 0.196304
O55   O     O_R   0.703482 0.716406 0.182838 -0.206033
O56   O     O_R   0.639645 0.696793 0.023461 -0.327316
N3    N     N_R   0.082147 0.839504 0.075231 0.183014
O57   O     O_R   0.117266 0.857097 0.165853 -0.316342
O58   O     O_R   0.077822 0.871155 0.016306 -0.331653
N4    N     N_R   0.129739 0.194476 0.090802 0.200578
O59   O     O_R   0.196584 0.192832 0.177540 -0.192195
O60   O     O_R   0.112527 0.160601 0.024517 -0.372340
C125  C     C_3   0.436402 0.350903 0.878774 -0.743525
H25   H     H_    0.437585 0.387399 0.910939 0.271268
H26   H     H_    0.478239 0.354091 0.878318 0.236528
H27   H     H_    0.384808 0.352917 0.797477 0.277167
C126  C     C_3   0.437474 0.649754 0.880496 -0.692118
H28   H     H_    0.386968 0.647759 0.798604 0.285682
H29   H     H_    0.480981 0.645798 0.883683 0.235905
H30   H     H_    0.437433 0.613835 0.912430 0.284807
C127  C     C_3   0.909744 0.836733 0.903026 -0.802257
H31   H     H_    0.881486 0.858898 0.917973 0.273888
H32   H     H_    0.957931 0.858746 0.939487 0.268459
H33   H     H_    0.876208 0.840652 0.820102 0.265622
C128  C     C_3   0.920106 0.155435 0.885455 -0.689487
H34   H     H_    0.873186 0.156132 0.801862 0.274370
H35   H     H_    0.966169 0.142185 0.898846 0.248720
H36   H     H_    0.908272 0.124052 0.912468 0.281855
C129  C     C_3   0.562212 0.348275 0.086215 -0.635132
H37   H     H_    0.538804 0.386742 0.072022 0.288715
H38   H     H_    0.612455 0.349768 0.166836 0.297010
H39   H     H_    0.576429 0.347439 0.042732 0.224828
C130  C     C_3   0.558225 0.648105 0.089751 -0.685878
H40   H     H_    0.607833 0.647640 0.171069 0.272460
H41   H     H_    0.533225 0.610699 0.077959 0.285390
H42   H     H_    0.572725 0.645372 0.046563 0.231108
C131  C     C_3   0.987789 0.824793 0.111260 -0.670702
H43   H     H_    0.938126 0.834635 0.092269 0.243640
H44   H     H_    0.031361 0.822490 0.195521 0.253372
H45   H     H_    0.998700 0.858747 0.089162 0.278261
C132  C     C_3   0.031606 0.151006 0.098780 -0.718345
H46   H     H_    0.077198 0.151460 0.182077 0.250321
H47   H     H_    0.995829 0.120623 0.084605 0.288133
H48   H     H_    0.049250 0.135987 0.064041 0.246892
N5    N     N_R   0.520076 0.317159 0.645998 0.264524
O61   O     O_R   0.525454 0.360219 0.616827 -0.337541
O62   O     O_R   0.521646 0.320296 0.718296 -0.279224
N6    N     N_R   0.552167 0.710687 0.705570 0.291706
O63   O     O_R   0.511398 0.703461 0.721121 -0.291769
O64   O     O_R   0.619862 0.704628 0.788926 -0.240741
N7    N     N_R   0.024699 0.812017 0.655561 0.269720
O65   O     O_R   0.035824 0.855788 0.635597 -0.334571
O66   O     O_R   0.022875 0.812895 0.724483 -0.300059
N8    N     N_R   0.050369 0.204357 0.701888 0.294872
O67   O     O_R   0.009398 0.196517 0.716908 -0.292999
O68   O     O_R   0.117657 0.195363 0.783833 -0.266482
N9    N     N_R   0.541002 0.229185 0.690270 0.180579
O69   O     O_R   0.601876 0.234083 0.785080 -0.334406
O70   O     O_R   0.490861 0.205265 0.675632 -0.492978
N10   N     N_R   0.540196 0.798269 0.682229 0.164934
O71   O     O_R   0.485222 0.811904 0.666447 -0.487970
O72   O     O_R   0.601524 0.810312 0.772667 -0.343699
N11   N     N_R   0.038353 0.722715 0.687316 0.180950
O73   O     O_R   0.099480 0.723858 0.782587 -0.331411
O74   O     O_R   0.986064 0.700447 0.669590 -0.432447
N12   N     N_R   0.044857 0.292471 0.689747 0.163038
O75   O     O_R   0.991130 0.306722 0.676518 -0.467267
O76   O     O_R   0.107129 0.301544 0.781216 -0.348057
C133  C     C_3   0.645707 0.220399 0.689129 -0.636937
H49   H     H_    0.688133 0.231534 0.770662 0.263993
H50   H     H_    0.624180 0.185400 0.691389 0.262838
H51   H     H_    0.676952 0.210537 0.671080 0.215256
C134  C     C_3   0.651588 0.787773 0.691658 -0.600987
H52   H     H_    0.687086 0.778762 0.773782 0.278292
H53   H     H_    0.687557 0.789542 0.680074 0.222448
H54   H     H_    0.629595 0.826498 0.678786 0.268749
C135  C     C_3   0.142226 0.712349 0.683952 -0.642158
H55   H     H_    0.186361 0.720193 0.766888 0.260433
H56   H     H_    0.117533 0.678036 0.681922 0.265700
H57   H     H_    0.171428 0.702219 0.662650 0.214554
C136  C     C_3   0.157033 0.278909 0.700078 -0.601072
H58   H     H_    0.190506 0.266410 0.780131 0.273522
H59   H     H_    0.194755 0.279772 0.691292 0.223674
H60   H     H_    0.139969 0.318596 0.694151 0.269618
N13   N     N_R   0.634334 0.311157 0.676128 0.255617
O77   O     O_R   0.655403 0.342459 0.646977 -0.298804
O78   O     O_R   0.662252 0.318667 0.768149 -0.272078
N14   N     N_R   0.632930 0.695620 0.665847 0.266610
O79   O     O_R   0.603047 0.652937 0.655697 -0.278544
O80   O     O_R   0.702543 0.694321 0.729060 -0.323790
N15   N     N_R   0.139634 0.803368 0.686930 0.254287
O81   O     O_R   0.163938 0.835652 0.663793 -0.327852
O82   O     O_R   0.167473 0.807052 0.779570 -0.284608
N16   N     N_R   0.127041 0.188551 0.656118 0.257344
O83   O     O_R   0.093241 0.147162 0.641035 -0.300628
O84   O     O_R   0.196120 0.183665 0.718668 -0.347379
N17   N     N_R   0.412691 0.348197 0.431431 0.245994
O85   O     O_R   0.374422 0.351474 0.451967 -0.338139
O86   O     O_R   0.407375 0.387790 0.383646 -0.284295
N18   N     N_R   0.467934 0.649216 0.510505 0.235316
O87   O     O_R   0.468589 0.605934 0.476038 -0.324328
O88   O     O_R   0.456585 0.644341 0.568197 -0.322334
N19   N     N_R   0.921774 0.851798 0.448053 0.247197
O89   O     O_R   0.884636 0.855010 0.470350 -0.338265
O90   O     O_R   0.918215 0.892529 0.404031 -0.292912
N20   N     N_R   0.959577 0.150196 0.494710 0.234687
O91   O     O_R   0.954117 0.108275 0.451283 -0.328259
O92   O     O_R   0.950690 0.143830 0.554984 -0.328322
C137  C     C_3   0.529865 0.352348 0.449060 -0.528132
H61   H     H_    0.540703 0.371851 0.511164 0.309480
H62   H     H_    0.579370 0.350364 0.465542 0.230057
H63   H     H_    0.496716 0.380087 0.385061 0.241418
C138  C     C_3   0.535206 0.656949 0.437225 -0.593718
H64   H     H_    0.576631 0.639966 0.512596 0.299011
H65   H     H_    0.496124 0.626500 0.383981 0.273669
H66   H     H_    0.561834 0.665395 0.411189 0.197692
C139  C     C_3   0.038782 0.854126 0.467867 -0.577482
H67   H     H_    0.051394 0.871180 0.532881 0.308199
H68   H     H_    0.087969 0.850858 0.484734 0.233127
H69   H     H_    0.008880 0.884586 0.408899 0.241540
C140  C     C_3   0.028058 0.159896 0.424200 -0.587261
H70   H     H_    0.065708 0.139435 0.496275 0.267819
H71   H     H_    0.986195 0.132182 0.365311 0.286478
H72   H     H_    0.057553 0.168012 0.402390 0.218177
N21   N     N_R   0.381256 0.179925 0.355066 0.280736
O93   O     O_R   0.366963 0.187001 0.272215 -0.322184
O94   O     O_R   0.338606 0.148469 0.346599 -0.308904
N22   N     N_R   0.380325 0.807758 0.341755 0.205962
O95   O     O_R   0.373035 0.845621 0.288944 -0.329379
O96   O     O_R   0.326317 0.777189 0.294476 -0.248708
N23   N     N_R   0.875139 0.687627 0.343871 0.276938
O97   O     O_R   0.860956 0.700398 0.262823 -0.294697
O98   O     O_R   0.830775 0.655017 0.328927 -0.312587
N24   N     N_R   0.887089 0.315380 0.353177 0.199155
O99   O     O_R   0.883708 0.355435 0.307679 -0.346853
O100  O     O_R   0.830978 0.286689 0.299626 -0.265404
N25   N     N_R   0.443146 0.149539 0.906475 0.253297
O101  O     O_R   0.434181 0.149107 0.827721 -0.396342
O102  O     O_R   0.431836 0.105351 0.926036 -0.330420
N26   N     N_R   0.456911 0.847850 0.912152 0.212103
O103  O     O_R   0.413264 0.860739 0.817001 -0.379852
O104  O     O_R   0.516514 0.873471 0.974524 -0.357754
N27   N     N_R   0.991776 0.656844 0.890710 0.195789
O105  O     O_R   0.961377 0.667329 0.798644 -0.424182
O106  O     O_R   0.015896 0.610229 0.920588 -0.391538
N28   N     N_R   0.970266 0.350737 0.901402 0.192075
O107  O     O_R   0.945782 0.346009 0.811122 -0.449815
O108  O     O_R   0.980068 0.398128 0.931055 -0.401425
C141  C     C_3   0.470858 0.150850 0.529802 -0.616459
H73   H     H_    0.465805 0.113895 0.495103 0.256458
H74   H     H_    0.525429 0.150826 0.605585 0.250121
H75   H     H_    0.432851 0.148284 0.537787 0.234557
C142  C     C_3   0.447411 0.853560 0.498164 -0.598075
H76   H     H_    0.425483 0.886609 0.445779 0.266130
H77   H     H_    0.410648 0.851363 0.507629 0.221687
H78   H     H_    0.501109 0.866324 0.569723 0.252031
C143  C     C_3   0.961267 0.650738 0.513640 -0.603182
H79   H     H_    0.954343 0.615233 0.474060 0.256430
H80   H     H_    0.015075 0.647995 0.590238 0.248885
H81   H     H_    0.922112 0.647486 0.519492 0.236660
C144  C     C_3   0.954387 0.354537 0.515202 -0.590796
H82   H     H_    0.935271 0.389504 0.468047 0.259757
H83   H     H_    0.916281 0.351991 0.522950 0.212333
H84   H     H_    0.008517 0.365128 0.588599 0.260292
N29   N     N_R   0.548240 0.153041 0.478499 0.222553
O109  O     O_R   0.521757 0.123444 0.401741 -0.391329
O110  O     O_R   0.601489 0.135541 0.569502 -0.424569
N30   N     N_R   0.552730 0.852865 0.497823 0.199312
O111  O     O_R   0.517405 0.894773 0.449009 -0.385898
O112  O     O_R   0.620618 0.853794 0.549539 -0.405165
N31   N     N_R   0.040804 0.653993 0.465195 0.224204
O113  O     O_R   0.017424 0.629382 0.384947 -0.362964
O114  O     O_R   0.087512 0.630957 0.552465 -0.434059
N32   N     N_R   0.064056 0.352685 0.520504 0.198717
O115  O     O_R   0.033483 0.397274 0.483829 -0.381597
O116  O     O_R   0.130699 0.350613 0.566294 -0.397558
N33   N     N_R   0.357914 0.285441 0.307100 0.244177
O117  O     O_R   0.306471 0.264196 0.292115 -0.229626
O118  O     O_R   0.336594 0.315287 0.233471 -0.254654
N34   N     N_R   0.371006 0.685518 0.353117 0.250489
O119  O     O_R   0.359646 0.654720 0.287319 -0.306892
O120  O     O_R   0.321308 0.684652 0.353241 -0.351921
N35   N     N_R   0.860796 0.793913 0.315139 0.248270
O121  O     O_R   0.807095 0.779489 0.301219 -0.245016
O122  O     O_R   0.843083 0.823685 0.243724 -0.255843
N36   N     N_R   0.866210 0.192894 0.344594 0.257425
O123  O     O_R   0.851783 0.166750 0.271720 -0.278274
O124  O     O_R   0.817803 0.189323 0.347028 -0.308127
C145  C     C_3   0.467209 0.290281 0.313073 -0.699860
H85   H     H_    0.512310 0.283764 0.320351 0.242059
H86   H     H_    0.428119 0.259125 0.265431 0.261051
H87   H     H_    0.440051 0.324566 0.263284 0.296099
C146  C     C_3   0.451780 0.720472 0.313683 -0.715349
H88   H     H_    0.429500 0.686846 0.262110 0.298062
H89   H     H_    0.405125 0.744952 0.277013 0.274507
H90   H     H_    0.485262 0.738896 0.304847 0.224153
C147  C     C_3   0.972401 0.798580 0.322369 -0.653458
H91   H     H_    0.018204 0.793847 0.330371 0.227557
H92   H     H_    0.932170 0.768854 0.269953 0.293973
H93   H     H_    0.947089 0.834610 0.277933 0.271434
C148  C     C_3   0.950467 0.229055 0.311303 -0.664025
H94   H     H_    0.926866 0.197669 0.254687 0.307992
H95   H     H_    0.905187 0.254225 0.278124 0.271852
H96   H     H_    0.984562 0.249175 0.305738 0.249086
N37   N     N_R   0.271265 0.049736 0.664814 0.236808
O125  O     O_R   0.259569 0.092730 0.687383 -0.276030
O126  O     O_R   0.315574 0.020098 0.743388 -0.312447
N38   N     N_R   0.239273 0.947201 0.639383 0.288874
O127  O     O_R   0.206753 0.959379 0.667453 -0.279255
O128  O     O_R   0.295035 0.918020 0.701992 -0.302894
N39   N     N_R   0.723903 0.550539 0.617579 0.232551
O129  O     O_R   0.703132 0.594525 0.623276 -0.299247
O130  O     O_R   0.753851 0.521456 0.695849 -0.331172
N40   N     N_R   0.692513 0.447365 0.583971 0.284078
O131  O     O_R   0.642921 0.460294 0.581272 -0.283155
O132  O     O_R   0.742283 0.417625 0.658777 -0.322975
C149  C     C_3   0.146709 0.055285 0.509554 -0.642853
H97   H     H_    0.095459 0.042484 0.435665 0.244070
H98   H     H_    0.140388 0.046621 0.562075 0.275667
H99   H     H_    0.145891 0.097289 0.504460 0.254832
C150  C     C_3   0.132578 0.951029 0.466301 -0.783036
H100  H     H_    0.096105 0.967548 0.390640 0.275838
H101  H     H_    0.130715 0.909197 0.459407 0.249881
H102  H     H_    0.105968 0.959372 0.492454 0.260443
C151  C     C_3   0.617005 0.555575 0.440293 -0.685061
H103  H     H_    0.575121 0.541730 0.361627 0.259773
H104  H     H_    0.592405 0.549208 0.470097 0.269698
H105  H     H_    0.620422 0.597214 0.435514 0.243160
C152  C     C_3   0.611814 0.450113 0.406811 -0.742766
H106  H     H_    0.589841 0.465886 0.335226 0.288310
H107  H     H_    0.610597 0.407723 0.403769 0.248259
H108  H     H_    0.570304 0.460241 0.406259 0.252566
C153  C     C_3   0.384988 0.060315 0.665341 -0.691849
H109  H     H_    0.383499 0.102494 0.656415 0.239366
H110  H     H_    0.383877 0.053987 0.722327 0.295770
H111  H     H_    0.440408 0.048530 0.705705 0.239590
C154  C     C_3   0.381624 0.953054 0.680877 -0.633670
H112  H     H_    0.373945 0.970820 0.725276 0.299515
H113  H     H_    0.379611 0.911044 0.684341 0.275826
H114  H     H_    0.438755 0.962151 0.726174 0.234591
C155  C     C_3   0.867904 0.559518 0.692607 -0.693193
H115  H     H_    0.870450 0.601421 0.687677 0.273205
H116  H     H_    0.848286 0.553867 0.727858 0.258186
H117  H     H_    0.924770 0.546956 0.752761 0.264351
C156  C     C_3   0.857596 0.453179 0.700051 -0.626814
H118  H     H_    0.832991 0.471559 0.721410 0.280451
H119  H     H_    0.854449 0.411395 0.703925 0.294478
H120  H     H_    0.915136 0.462564 0.765721 0.252548
C157  C     C_3   0.186608 0.058350 0.300257 -0.644923
H121  H     H_    0.238390 0.062776 0.325166 0.232203
H122  H     H_    0.149523 0.038668 0.225298 0.246442
H123  H     H_    0.164964 0.097523 0.278976 0.265537
C158  C     C_3   0.224495 0.955700 0.327188 -0.653412
H124  H     H_    0.261507 0.982294 0.339760 0.173172
H125  H     H_    0.246585 0.917292 0.340914 0.277441
H126  H     H_    0.182178 0.956572 0.242751 0.280181
C159  C     C_3   0.731622 0.556574 0.330855 -0.621826
H127  H     H_    0.788242 0.566320 0.381805 0.217103
H128  H     H_    0.715220 0.533144 0.267079 0.244368
H129  H     H_    0.703877 0.592998 0.290669 0.273085
C160  C     C_3   0.775595 0.454319 0.381620 -0.743669
H130  H     H_    0.815048 0.482944 0.406807 0.190958
H131  H     H_    0.804793 0.418141 0.416873 0.247382
H132  H     H_    0.750512 0.448643 0.302617 0.274380
N41   N     N_R   0.112231 0.050057 0.328464 0.184555
O133  O     O_R   0.103103 0.098810 0.331766 -0.450065
O134  O     O_R   0.053406 0.024114 0.262195 -0.306846
N42   N     N_R   0.123623 0.941877 0.301244 0.247328
O135  O     O_R   0.078065 0.954156 0.204834 -0.289155
O136  O     O_R   0.115623 0.896107 0.319594 -0.444291
N43   N     N_R   0.629468 0.548275 0.303486 0.182399
O137  O     O_R   0.615749 0.596854 0.298070 -0.404724
O138  O     O_R   0.576391 0.521551 0.225185 -0.299408
N44   N     N_R   0.653638 0.442680 0.293309 0.245031
O139  O     O_R   0.630706 0.454418 0.205501 -0.351761
O140  O     O_R   0.628172 0.400540 0.294989 -0.385945
C161  C     C_3   0.520618 0.147867 0.111838 -0.584726
H133  H     H_    0.559890 0.144793 0.195021 0.250827
H134  H     H_    0.477121 0.122663 0.088915 0.223626
H135  H     H_    0.543840 0.126080 0.089799 0.296323
C162  C     C_3   0.524861 0.849696 0.118381 -0.618410
H136  H     H_    0.536154 0.853980 0.188584 0.217233
H137  H     H_    0.574940 0.860567 0.141772 0.295874
H138  H     H_    0.485107 0.880809 0.070121 0.237976
C163  C     C_3   0.108553 0.664211 0.100047 -0.537890
H139  H     H_    0.107057 0.621899 0.093472 0.286004
H140  H     H_    0.122545 0.677989 0.059628 0.242516
H141  H     H_    0.153815 0.669296 0.183394 0.268580
C164  C     C_3   0.058689 0.354109 0.112080 -0.591316
H142  H     H_    0.031015 0.390286 0.099562 0.234770
H143  H     H_    0.102707 0.351327 0.195261 0.257135
H144  H     H_    0.083488 0.361243 0.083368 0.289152
C165  C     C_3   0.367360 0.458017 0.539504 -0.733657
H145  H     H_    0.379253 0.416993 0.556027 0.305103
H146  H     H_    0.393459 0.468338 0.513440 0.291778
H147  H     H_    0.399607 0.477711 0.613179 0.193590
C166  C     C_3   0.337879 0.560250 0.475485 -0.606098
H148  H     H_    0.353832 0.544597 0.437624 0.286015
H149  H     H_    0.327277 0.601271 0.454024 0.284717
H150  H     H_    0.384809 0.558888 0.558884 0.225162
C167  C     C_3   0.868789 0.959143 0.542215 -0.730986
H151  H     H_    0.881481 0.918642 0.563261 0.304216
H152  H     H_    0.894963 0.968083 0.515736 0.293750
H153  H     H_    0.900746 0.980266 0.614301 0.194507
C168  C     C_3   0.837392 0.060879 0.474572 -0.592990
H154  H     H_    0.854131 0.044637 0.438104 0.287849
H155  H     H_    0.825373 0.101574 0.450574 0.283927
H156  H     H_    0.884140 0.060762 0.558079 0.225929
C169  C     C_3   0.356289 0.050959 0.511653 -0.795619
H157  H     H_    0.414929 0.044014 0.564739 0.237665
H158  H     H_    0.337085 0.032047 0.444244 0.231009
H159  H     H_    0.350541 0.092409 0.497528 0.258576
C170  C     C_3   0.370766 0.944084 0.543504 -0.820113
H160  H     H_    0.427774 0.956541 0.597890 0.253083
H161  H     H_    0.372601 0.902210 0.553359 0.234151
H162  H     H_    0.354140 0.950312 0.471149 0.233061
C171  C     C_3   0.878254 0.552374 0.574949 -0.803071
H163  H     H_    0.935903 0.545797 0.645077 0.264624
H164  H     H_    0.874340 0.534628 0.518384 0.214889
H165  H     H_    0.872804 0.594208 0.561533 0.239821
C172  C     C_3   0.888978 0.444185 0.607255 -0.783218
H166  H     H_    0.943730 0.453329 0.682077 0.266082
H167  H     H_    0.884634 0.401820 0.604053 0.237501
H168  H     H_    0.895260 0.455634 0.556982 0.222296
N45   N     N_R   0.266876 0.449355 0.651760 0.214570
O141  O     O_R   0.265111 0.400110 0.660143 -0.412464
O142  O     O_R   0.262406 0.477782 0.705193 -0.281824
N46   N     N_R   0.309961 0.555902 0.684510 0.256199
O143  O     O_R   0.365736 0.543938 0.779157 -0.338380
O144  O     O_R   0.272544 0.595716 0.666450 -0.446220
N47   N     N_R   0.767722 0.949827 0.652879 0.213662
O145  O     O_R   0.764879 0.900559 0.659904 -0.408339
O146  O     O_R   0.767354 0.977970 0.710863 -0.283437
N48   N     N_R   0.811332 0.056699 0.685583 0.260261
O147  O     O_R   0.869082 0.046606 0.780319 -0.322562
O148  O     O_R   0.772801 0.095781 0.667079 -0.438353
N49   N     N_R   0.260136 0.442611 0.364563 0.274255
O149  O     O_R   0.224855 0.399791 0.331905 -0.389561
O150  O     O_R   0.291497 0.453164 0.334260 -0.212663
N50   N     N_R   0.213819 0.548074 0.326334 0.203261
O151  O     O_R   0.199528 0.522113 0.253597 -0.301184
O152  O     O_R   0.196424 0.596295 0.306575 -0.454887
N51   N     N_R   0.762305 0.942694 0.366833 0.272677
O153  O     O_R   0.728052 0.899458 0.334986 -0.357098
O154  O     O_R   0.794183 0.953312 0.337352 -0.205195
N52   N     N_R   0.713561 0.047530 0.326376 0.202546
O155  O     O_R   0.704270 0.023330 0.256102 -0.255154
O156  O     O_R   0.693004 0.095137 0.305577 -0.369382
C173  C     C_3   0.116694 0.453398 0.303077 -0.773378
H169  H     H_    0.134486 0.471208 0.270334 0.284189
H170  H     H_    0.115011 0.411986 0.292175 0.264615
H171  H     H_    0.058856 0.462459 0.251224 0.216284
C174  C     C_3   0.097014 0.555297 0.321540 -0.676759
H172  H     H_    0.097333 0.551264 0.262399 0.250240
H173  H     H_    0.046668 0.536539 0.289342 0.214310
H174  H     H_    0.083878 0.595432 0.321706 0.284944
C175  C     C_3   0.618917 0.954325 0.303202 -0.756291
H175  H     H_    0.636260 0.973608 0.270997 0.283726
H176  H     H_    0.620200 0.913261 0.292812 0.268392
H177  H     H_    0.560621 0.961969 0.250779 0.219980
C176  C     C_3   0.596716 0.055222 0.323582 -0.683522
H178  H     H_    0.596213 0.052229 0.263514 0.257480
H179  H     H_    0.546956 0.035542 0.291633 0.213686
H180  H     H_    0.583228 0.094978 0.325398 0.273575
C177  C     C_3   0.116665 0.444265 0.434971 -0.602711
H181  H     H_    0.099845 0.404227 0.409580 0.280376
H182  H     H_    0.140992 0.446634 0.513479 0.288026
H183  H     H_    0.063507 0.463179 0.385901 0.213328
C178  C     C_3   0.144534 0.547117 0.491068 -0.617397
H184  H     H_    0.149767 0.588764 0.504453 0.301872
H185  H     H_    0.088065 0.539157 0.450015 0.248436
H186  H     H_    0.177389 0.528260 0.564769 0.278166
C179  C     C_3   0.616473 0.943951 0.432625 -0.598492
H187  H     H_    0.597726 0.904625 0.402979 0.283890
H188  H     H_    0.641280 0.944626 0.511535 0.286747
H189  H     H_    0.563977 0.963623 0.385115 0.215950
C180  C     C_3   0.646264 0.045982 0.494009 -0.619999
H190  H     H_    0.651415 0.087596 0.507647 0.305415
H191  H     H_    0.590116 0.037789 0.454056 0.249978
H192  H     H_    0.679596 0.026649 0.567365 0.276442
C181  C     C_3   0.450983 0.215620 0.099512 -0.730157
H193  H     H_    0.416842 0.248956 0.065856 0.238802
H194  H     H_    0.416121 0.184150 0.084206 0.229891
H195  H     H_    0.487168 0.220839 0.182215 0.279430
C182  C     C_3   0.449904 0.784560 0.094582 -0.756865
H196  H     H_    0.411835 0.753788 0.055720 0.240487
H197  H     H_    0.484401 0.776601 0.176210 0.276339
H198  H     H_    0.418198 0.817991 0.082140 0.232321
C183  C     C_3   0.026194 0.648260 0.114490 -0.696909
H199  H     H_    0.981838 0.655143 0.107839 0.284739
H200  H     H_    0.016700 0.609205 0.083326 0.224538
H201  H     H_    0.074469 0.641545 0.195943 0.272313
C184  C     C_3   0.965006 0.315691 0.094442 -0.706743
H202  H     H_    0.917787 0.291540 0.054331 0.238196
H203  H     H_    0.995657 0.312124 0.175520 0.283853
H204  H     H_    0.945230 0.355451 0.080943 0.210229
C185  C     C_3   0.363990 0.310142 0.897811 -0.697618
H205  H     H_    0.358530 0.296740 0.947941 0.229850
H206  H     H_    0.348530 0.351061 0.888946 0.295389
H207  H     H_    0.320508 0.293738 0.820683 0.200492
C186  C     C_3   0.361916 0.692189 0.892814 -0.705167
H208  H     H_    0.352900 0.707365 0.937898 0.228434
H209  H     H_    0.319637 0.708235 0.814988 0.199517
H210  H     H_    0.345885 0.651495 0.884219 0.294475
C187  C     C_3   0.840465 0.766562 0.876157 -0.607675
H211  H     H_    0.826509 0.726119 0.864514 0.288474
H212  H     H_    0.824339 0.785872 0.911493 0.263425
H213  H     H_    0.803300 0.781501 0.797288 0.201922
C188  C     C_3   0.852165 0.214422 0.892811 -0.725330
H214  H     H_    0.849144 0.238376 0.938491 0.241878
H215  H     H_    0.812136 0.228485 0.813488 0.213763
H216  H     H_    0.829182 0.177351 0.888233 0.284839
N53   N     N_R   0.487102 0.324121 0.110545 0.223331
O157  O     O_R   0.447569 0.365126 0.076210 -0.328153
O158  O     O_R   0.525858 0.313519 0.205883 -0.436000
N54   N     N_R   0.482352 0.678450 0.108741 0.221261
O159  O     O_R   0.522450 0.687472 0.205178 -0.424374
O160  O     O_R   0.438251 0.640082 0.071251 -0.326551
N55   N     N_R   0.949478 0.739408 0.094478 0.215248
O161  O     O_R   0.886759 0.718041 0.033825 -0.376953
O162  O     O_R   0.982524 0.739983 0.189623 -0.381543
N56   N     N_R   0.963315 0.205180 0.106184 0.209806
O163  O     O_R   0.004700 0.217056 0.201591 -0.436680
O164  O     O_R   0.911448 0.173921 0.071190 -0.348807
C189  C     C_3   0.535767 0.226360 0.873838 -0.429322
H217  H     H_    0.594171 0.223638 0.921168 0.290745
H218  H     H_    0.513601 0.188841 0.837981 0.287179
H219  H     H_    0.514680 0.253778 0.812396 0.274899
C190  C     C_3   0.530649 0.785461 0.872862 -0.441701
H220  H     H_    0.581251 0.774335 0.895561 0.303671
H221  H     H_    0.488053 0.777009 0.790966 0.247692
H222  H     H_    0.530724 0.827297 0.878943 0.292372
C191  C     C_3   0.051227 0.753918 0.894620 -0.471120
H223  H     H_    0.084506 0.783956 0.902159 0.295441
H224  H     H_    0.084278 0.719194 0.931800 0.248375
H225  H     H_    0.009307 0.746859 0.812139 0.304988
C192  C     C_3   0.042554 0.270620 0.883411 -0.425757
H226  H     H_    0.085159 0.248620 0.897285 0.293977
H227  H     H_    0.996816 0.270902 0.800308 0.278617
H228  H     H_    0.061595 0.310459 0.909013 0.283591
N57   N     N_R   0.606598 0.180488 0.076250 0.216756
O165  O     O_R   0.585614 0.148780 0.005104 -0.310065
O166  O     O_R   0.657441 0.165007 0.170121 -0.267574
N58   N     N_R   0.626616 0.807016 0.094203 0.253343
O167  O     O_R   0.670563 0.817495 0.190894 -0.312012
O168  O     O_R   0.645034 0.826408 0.050263 -0.243950
N59   N     N_R   0.151738 0.771012 0.101250 0.222158
O169  O     O_R   0.197924 0.743638 0.182612 -0.324418
O170  O     O_R   0.178274 0.799670 0.076445 -0.251525
N60   N     N_R   0.141929 0.284479 0.097304 0.212499
O171  O     O_R   0.179181 0.303622 0.187682 -0.333759
O172  O     O_R   0.174876 0.284513 0.067707 -0.252574

loop_
_geom_bond_atom_site_label_1
_geom_bond_atom_site_label_2
_geom_bond_distance
_ccdc_geom_bond_type
C110  N50   1.493427 S    
N39   O129  1.305103 A    
N56   O163  1.297269 A    
Zn5   O21   1.972556 S    
C58   C74   1.689072 S    
C121  H14   1.098280 S    
C178  H184  1.102479 S    
C70   C74   1.680480 S    
N20   O92   1.293437 A    
N3    O57   1.298125 A    
O23   C19   1.298316 A    
C35   C51   1.632625 S    
C140  H70   1.087479 S    
C29   C181  1.590387 S    
C139  H67   1.087596 S    
C172  H168  1.088937 S    
N12   O75   1.300049 A    
C185  H205  1.085924 S    
C94   C102  1.650363 S    
C52   N56   1.497489 S    
N34   O120  1.301280 A    
C182  H197  1.101011 S    
C180  H191  1.108440 S    
C65   N17   1.491380 S    
N53   O158  1.298958 A    
C60   N8    1.508751 S    
C27   C31   1.634611 S    
C150  H102  1.109711 S    
C59   N7    1.506937 S    
C53   N1    1.494132 S    
C157  H123  1.099695 S    
O46   C2    1.311324 A    
C155  H115  1.104572 S    
C69   N21   1.509271 S    
C16   C104  1.513860 S    
C77   C81   1.640352 S    
N2    O55   1.294359 A    
C144  H84   1.105746 S    
C55   N59   1.496990 S    
C120  N48   1.477812 S    
O34   C22   1.309695 A    
C80   C84   1.634690 S    
C153  H110  1.081799 S    
C9    C105  1.514432 S    
Zn3   O3    1.993558 S    
C18   C47   1.523932 S    
C106  C114  1.647380 S    
C79   C83   1.641801 S    
C72   C88   1.584199 S    
C25   C121  1.574206 S    
Zn16  O28   1.981883 S    
N60   O172  1.302422 A    
O28   C24   1.279050 A    
C138  H64   1.089236 S    
C69   C73   1.644648 S    
C189  H219  1.105366 S    
C66   C82   1.633381 S    
C122  H17   1.108137 S    
Zn11  O31   1.981977 S    
C119  C120  1.573975 S    
C147  H92   1.103272 S    
C129  H37   1.107758 S    
Zn4   O40   1.971403 S    
C121  H15   1.107783 S    
O27   C23   1.290677 A    
C58   C62   1.642646 S    
Zn15  O43   1.968511 S    
C70   C86   1.579613 S    
O11   C7    1.295586 A    
C17   C48   1.528294 S    
C49   N53   1.490353 S    
N25   O102  1.304455 A    
N50   O152  1.301345 A    
N57   O165  1.300220 A    
C67   N19   1.490926 S    
C124  H23   1.106630 S    
C191  H225  1.097583 S    
N16   O84   1.299034 A    
C155  H116  1.082815 S    
C19   C46   1.522533 S    
C192  H228  1.106446 S    
C165  H146  1.108264 S    
C151  H105  1.100338 S    
C69   C141  1.561690 S    
C158  H124  1.077423 S    
C94   C154  1.560073 S    
N18   O87   1.301260 A    
C159  H129  1.107222 S    
C60   C76   1.694405 S    
C154  H114  1.112282 S    
C166  H149  1.108144 S    
C177  H181  1.103414 S    
C149  H97   1.095675 S    
C125  H25   1.110163 S    
O16   C12   1.285028 A    
C99   C100  1.641098 S    
Zn16  O4    1.973068 S    
C149  H99   1.100359 S    
Zn12  O4    1.976628 S    
N52   O155  1.298764 A    
C65   C81   1.649730 S    
N43   O138  1.297902 A    
C132  H47   1.110464 S    
C88   N32   1.489768 S    
C82   C146  1.592690 S    
C143  H79   1.111973 S    
C68   C84   1.632356 S    
C57   C61   1.622098 S    
C69   C85   1.561383 S    
Zn6   O14   1.970579 S    
O47   C3    1.295130 A    
C52   C132  1.566531 S    
C158  H125  1.094644 S    
Zn7   O3    1.991843 S    
C161  H134  1.110916 S    
C109  C165  1.589500 S    
N29   O109  1.302953 A    
C155  H117  1.111216 S    
N8    O68   1.304967 A    
C145  H87   1.110706 S    
N44   O139  1.305803 A    
N31   O113  1.303253 A    
Zn5   O13   1.971446 S    
C91   C92   1.631835 S    
C140  H72   1.111519 S    
C169  H159  1.099215 S    
C131  H44   1.107875 S    
C186  H208  1.083073 S    
C139  H69   1.110117 S    
H9    C117  1.108185 S    
N35   O122  1.301567 A    
C122  H16   1.096362 S    
C33   C185  1.576312 S    
N30   O112  1.299323 A    
C47   C51   1.652443 S    
C31   C163  1.567141 S    
N33   O117  1.294427 A    
C37   C53   1.565806 S    
N46   O143  1.301833 A    
O24   C20   1.290117 A    
O42   C14   1.292196 A    
C172  H166  1.112422 S    
C39   C55   1.590876 S    
C160  H131  1.096215 S    
C53   N57   1.484835 S    
C187  H211  1.089213 S    
C174  H173  1.109857 S    
Zn6   O46   1.966319 S    
C165  H145  1.097709 S    
C90   C150  1.567987 S    
Zn10  O2    1.976628 S    
C127  H31   1.113319 S    
Zn11  O19   1.970179 S    
C192  H227  1.096827 S    
C33   C125  1.596510 S    
H12   C120  1.096495 S    
C29   C45   1.664201 S    
N24   O99   1.304700 A    
N40   O132  1.295805 A    
C81   C137  1.566497 S    
C31   C47   1.668684 S    
C115  C116  1.612834 S    
Zn4   O4    1.991846 S    
C136  H58   1.110887 S    
C8    C76   1.523477 S    
C56   N4    1.506708 S    
C113  C114  1.617002 S    
C114  C174  1.590598 S    
O5    C1    1.293447 A    
N27   O105  1.299130 A    
Zn7   O23   1.972556 S    
Zn8   O24   1.973210 S    
C162  H137  1.091417 S    
C182  H196  1.072904 S    
C145  H85   1.102466 S    
C33   C41   1.629331 S    
C92   C152  1.567352 S    
O31   C19   1.298125 A    
C188  H215  1.103639 S    
C176  H178  1.098357 S    
O25   C21   1.280400 A    
N19   O90   1.301406 A    
N37   O125  1.304765 A    
C152  H108  1.109762 S    
C89   C101  1.679711 S    
C72   N24   1.489324 S    
C62   C134  1.562178 S    
C40   H4    1.087026 S    
C105  C117  1.587126 S    
C123  H21   1.107930 S    
C184  H202  1.091105 S    
N17   O85   1.296512 A    
C70   N22   1.492031 S    
C173  H169  1.091093 S    
Zn12  O52   1.975491 S    
C130  H40   1.094924 S    
N45   O141  1.300752 A    
O22   C18   1.297373 A    
C37   H1    1.081048 S    
N58   O168  1.300055 A    
C125  H27   1.108853 S    
C131  H43   1.112266 S    
N17   O86   1.301213 A    
C3    C78   1.507722 S    
Zn13  O41   1.968511 S    
N28   O107  1.300514 A    
C71   N23   1.510369 S    
N35   O121  1.294817 A    
O50   C6    1.318077 A    
C34   C186  1.583802 S    
C175  H176  1.093877 S    
C132  H46   1.098683 S    
Zn16  O44   1.970224 S    
C30   C182  1.593527 S    
C137  H62   1.104311 S    
N49   O149  1.299049 A    
Zn1   O37   1.970535 S    
Zn2   O34   1.972601 S    
Zn3   O39   1.970535 S    
C38   C190  1.561272 S    
C166  H148  1.109905 S    
N6    O63   1.297060 A    
C108  C120  1.601044 S    
C157  H121  1.089409 S    
C190  H222  1.098297 S    
C117  N45   1.487887 S    
C115  C175  1.575404 S    
C59   C75   1.658986 S    
C126  H28   1.107135 S    
C56   N60   1.496342 S    
O35   C23   1.302832 A    
N14   O80   1.302990 A    
C163  H139  1.109522 S    
C136  H59   1.105920 S    
C95   C103  1.646664 S    
C152  H106  1.083406 S    
C93   C101  1.649748 S    
N42   O135  1.305615 A    
C148  H95   1.091600 S    
N54   O160  1.302512 A    
N41   O133  1.304488 A    
Zn9   O49   1.976701 S    
Zn10  O50   1.975491 S    
C186  H210  1.113137 S    
C164  H143  1.096030 S    
N32   O116  1.300032 A    
C50   N54   1.492648 S    
C141  H75   1.103900 S    
C36   C44   1.637840 S    
C133  H50   1.090627 S    
C149  H98   1.112074 S    
N1    O53   1.294148 A    
C186  H209  1.108145 S    
C99   C159  1.589400 S    
C5    C73   1.522655 S    
C10   C106  1.511483 S    
C79   C87   1.605766 S    
C39   C191  1.556226 S    
C177  H183  1.109150 S    
C93   C169  1.580521 S    
C135  H55   1.109814 S    
N52   O156  1.301075 A    
C67   C83   1.647948 S    
C60   C64   1.642279 S    
C61   N13   1.507122 S    
N26   O104  1.298679 A    
C170  H160  1.112590 S    
Zn5   O45   1.967687 S    
C40   C56   1.590027 S    
C182  H198  1.110946 S    
C168  H155  1.108915 S    
Zn7   O47   1.967687 S    
C119  N47   1.487311 S    
Zn8   O48   1.966319 S    
C81   C145  1.591434 S    
N38   O127  1.305707 A    
C183  H201  1.102975 S    
C85   N29   1.484577 S    
C86   N30   1.491203 S    
C129  H39   1.093304 S    
O51   C7    1.302428 A    
C58   N10   1.496625 S    
C25   C29   1.628968 S    
C184  H204  1.107573 S    
C64   C136  1.569770 S    
O8    C4    1.280191 A    
N29   O110  1.296609 A    
N36   O123  1.301571 A    
C173  H171  1.108705 S    
C37   C41   1.599266 S    
C130  H42   1.096340 S    
N56   O164  1.303231 A    
C1    C80   1.509011 S    
C39   C43   1.600690 S    
C100  N44   1.502952 S    
C2    C79   1.511116 S    
N22   O96   1.291377 A    
N31   O114  1.296797 A    
C131  H45   1.094707 S    
C91   N39   1.526855 S    
N7    O65   1.296038 A    
N3    O58   1.304699 A    
C51   N55   1.507974 S    
C36   C52   1.631061 S    
C146  H90   1.107247 S    
C36   C188  1.578091 S    
O52   C8    1.318164 A    
N12   O76   1.302297 A    
O40   C12   1.317471 A    
Zn13  O1    1.976478 S    
C132  H48   1.089445 S    
C142  H78   1.106040 S    
C163  H140  1.095046 S    
C63   C135  1.577452 S    
C13   C101  1.502768 S    
C34   C50   1.639322 S    
N53   O157  1.302869 A    
C66   C74   1.675178 S    
C28   C32   1.635016 S    
C49   C129  1.572634 S    
C157  H122  1.109040 S    
C11   C107  1.516545 S    
O9    C5    1.301081 A    
C12   C108  1.508762 S    
C117  C118  1.571758 S    
C126  H30   1.108364 S    
C144  H83   1.103112 S    
C99   N43   1.502717 S    
C100  C160  1.601398 S    
C100  C104  1.684020 S    
O13   C9    1.290478 A    
N22   O95   1.304408 A    
C185  H206  1.113231 S    
N4    O59   1.300446 A    
C127  H33   1.109210 S    
N43   O137  1.302986 A    
O18   C14   1.296557 A    
C151  H104  1.112315 S    
O38   C10   1.318690 A    
C171  H163  1.112812 S    
C45   C53   1.628461 S    
O6    C2    1.280055 A    
C58   N6    1.507350 S    
C25   C41   1.661881 S    
C189  H218  1.093340 S    
C47   C55   1.667188 S    
C95   C155  1.585274 S    
N13   O78   1.304933 A    
C91   C103  1.675749 S    
Zn9   O29   1.981977 S    
C147  H91   1.106104 S    
O49   C5    1.298579 A    
C179  H189  1.108339 S    
N49   O150  1.304421 A    
C57   N9    1.497962 S    
N47   O145  1.301257 A    
N27   O106  1.302349 A    
Zn12  O32   1.981788 S    
C181  H195  1.099582 S    
Zn13  O25   1.981693 S    
N25   O101  1.295076 A    
C124  H22   1.090746 S    
Zn15  O3    1.976478 S    
C191  H224  1.098986 S    
Zn11  O3    1.973218 S    
C183  H199  1.092076 S    
C66   N34   1.492779 S    
C88   H8    1.101004 S    
C65   C73   1.672578 S    
O43   C15   1.289617 A    
C189  H217  1.109142 S    
C135  H57   1.106820 S    
C143  H80   1.090649 S    
C167  H151  1.095167 S    
C156  H120  1.110982 S    
Zn5   O1    1.991843 S    
C26   C30   1.619336 S    
C112  N52   1.492575 S    
C70   C142  1.568290 S    
C170  H162  1.084355 S    
C35   C43   1.629466 S    
N9    O70   1.299697 A    
C106  C110  1.630143 S    
C154  H113  1.102935 S    
C28   N28   1.502762 S    
O10   C6    1.283743 A    
C89   N37   1.528014 S    
N57   O166  1.301315 A    
C114  C178  1.572232 S    
C134  H54   1.103573 S    
C54   N2    1.503539 S    
C176  H179  1.109792 S    
C190  H220  1.110632 S    
C107  C115  1.647377 S    
N11   O73   1.303132 A    
C31   C183  1.590647 S    
C90   C102  1.682435 S    
C105  C113  1.649991 S    
C98   C102  1.688520 S    
C59   N11   1.499848 S    
C98   C158  1.595491 S    
C96   C104  1.655196 S    
C150  H101  1.097161 S    
N20   O91   1.302043 A    
C97   N41   1.500603 S    
C161  H133  1.094796 S    
Zn9   O17   1.970179 S    
C185  H207  1.107454 S    
C178  H185  1.109217 S    
N44   O140  1.299253 A    
C154  H112  1.072802 S    
C57   N5    1.507185 S    
N2    O56   1.304354 A    
C140  H71   1.110392 S    
C148  H94   1.111377 S    
N23   O98   1.304850 A    
C139  H68   1.094349 S    
Zn14  O42   1.970224 S    
N15   O81   1.295751 A    
C27   C123  1.576491 S    
C93   C94   1.614262 S    
O7    C3    1.295536 A    
C82   C138  1.569792 S    
N34   O119  1.301369 A    
C123  H19   1.087308 S    
Zn2   O38   1.971403 S    
C128  H35   1.101681 S    
N23   O97   1.302813 A    
O19   C15   1.293189 A    
C24   C44   1.512706 S    
C37   C189  1.556632 S    
C7    C75   1.519408 S    
C181  H193  1.078170 S    
C94   C170  1.584967 S    
C26   C42   1.634380 S    
C33   C49   1.638323 S    
C28   C124  1.587633 S    
C40   C44   1.597998 S    
N46   O144  1.300314 A    
O37   C9    1.315972 A    
C133  H49   1.109401 S    
C107  C111  1.650406 S    
O39   C11   1.314055 A    
C153  H111  1.111765 S    
N24   O100  1.288131 A    
N60   O171  1.300127 A    
C116  C176  1.589893 S    
C96   C156  1.565518 S    
C38   H2    1.086686 S    
C147  H93   1.110747 S    
C61   C133  1.578453 S    
C129  H38   1.092776 S    
C34   C42   1.632441 S    
C159  H128  1.107950 S    
C110  C166  1.571732 S    
C91   C151  1.577634 S    
C85   H5    1.077004 S    
C187  H213  1.106656 S    
N50   O151  1.298524 A    
H10   C118  1.098517 S    
C167  H152  1.108464 S    
C188  H214  1.093086 S    
C124  H24   1.106440 S    
N16   O83   1.298423 A    
N59   O170  1.302829 A    
Zn3   O35   1.973255 S    
C78   C86   1.588014 S    
C165  H147  1.099439 S    
C65   N33   1.488848 S    
C67   N35   1.486500 S    
C6    C74   1.523775 S    
N13   O77   1.295128 A    
C71   C143  1.565578 S    
C174  H174  1.103360 S    
C179  H188  1.098795 S    
C115  C179  1.581350 S    
C167  H153  1.098218 S    
C141  H73   1.112153 S    
C72   C144  1.574325 S    
C48   C56   1.652697 S    
C71   C87   1.562882 S    
N32   O115  1.301507 A    
C15   C103  1.507378 S    
C160  H132  1.107613 S    
C38   C54   1.594729 S    
C156  H119  1.101024 S    
C95   C171  1.577388 S    
C54   N58   1.489774 S    
C128  H36   1.110353 S    
C187  H212  1.112251 S    
C111  C112  1.642059 S    
C125  H26   1.103118 S    
C108  C116  1.646345 S    
C172  H167  1.110013 S    
C170  H161  1.104631 S    
N11   O74   1.300431 A    
C90   N38   1.506302 S    
C138  H66   1.109698 S    
N7    O66   1.301816 A    
Zn14  O6    1.976746 S    
C109  C110  1.642276 S    
N5    O61   1.296818 A    
N39   O130  1.297601 A    
N28   O108  1.303333 A    
C63   C79   1.650998 S    
C116  C180  1.571201 S    
C30   C46   1.668049 S    
Zn3   O11   1.966361 S    
C28   C44   1.638672 S    
C27   N27   1.497841 S    
C137  H61   1.090539 S    
C51   C131  1.573320 S    
Zn15  O27   1.981693 S    
N19   O89   1.294711 A    
C107  C119  1.590459 S    
C34   C126  1.587885 S    
N6    O64   1.304789 A    
C32   C164  1.570441 S    
C161  H135  1.095470 S    
C190  H221  1.097788 S    
N8    O67   1.296924 A    
N48   O148  1.299856 A    
C93   C153  1.585664 S    
C84   C140  1.574808 S    
C64   C80   1.633725 S    
C77   C85   1.604099 S    
C111  C167  1.590289 S    
C36   C128  1.580801 S    
C83   C139  1.563995 S    
C30   C162  1.586940 S    
O32   C20   1.313157 A    
C95   C96   1.618942 S    
C80   C88   1.589733 S    
C89   C90   1.624684 S    
C175  H177  1.109595 S    
C21   C41   1.506590 S    
Zn2   O2    1.991846 S    
C150  H100  1.082479 S    
C121  H13   1.090223 S    
Zn14  O2    1.973068 S    
C106  C118  1.601413 S    
C26   N26   1.500405 S    
C72   C76   1.682780 S    
N30   O111  1.301721 A    
C68   C76   1.673696 S    
N42   O136  1.299561 A    
C180  H190  1.102326 S    
C151  H103  1.095935 S    
C63   N15   1.507907 S    
N55   O161  1.296487 A    
N51   O154  1.304279 A    
C113  C173  1.575756 S    
C97   C98   1.651985 S    
C71   C75   1.641076 S    
N33   O118  1.302421 A    
C67   C75   1.673036 S    
C164  H142  1.111003 S    
Zn8   O4    1.993555 S    
Zn4   O36   1.972601 S    
C96   C172  1.588320 S    
O21   C17   1.292541 A    
C178  H186  1.089006 S    
N47   O146  1.299890 A    
H11   C119  1.108419 S    
C84   C148  1.589336 S    
C128  H34   1.106366 S    
C133  H51   1.106014 S    
C59   C63   1.625236 S    
C141  H74   1.090651 S    
C46   C50   1.654865 S    
C143  H81   1.105369 S    
C145  H86   1.104327 S    
N18   O88   1.293324 A    
C62   C78   1.634524 S    
C127  H32   1.088223 S    
C25   N25   1.506061 S    
C89   C149  1.588089 S    
C152  H107  1.108118 S    
C162  H136  1.109979 S    
C23   C43   1.516623 S    
C177  H182  1.097910 S    
C45   C49   1.667894 S    
N40   O131  1.306109 A    
N41   O134  1.297087 A    
N21   O94   1.304843 A    
C146  H88   1.111235 S    
C97   C157  1.582482 S    
Zn10  O30   1.981788 S    
O26   C22   1.278955 A    
C32   C48   1.678037 S    
C148  H96   1.100676 S    
C146  H89   1.093898 S    
C29   C161  1.594241 S    
C168  H154  1.109762 S    
C55   N3    1.497247 S    
C112  C168  1.569854 S    
Zn14  O26   1.981883 S    
C188  H216  1.112249 S    
C176  H180  1.104155 S    
Zn15  O7    1.975536 S    
C183  H200  1.109259 S    
Zn1   O9    1.966361 S    
C14   C102  1.519288 S    
C175  H175  1.090434 S    
C26   C122  1.583210 S    
C62   N14   1.508694 S    
C109  N49   1.491706 S    
C134  H53   1.101475 S    
C40   C192  1.549742 S    
Zn4   O12   1.967730 S    
Zn11  O51   1.976701 S    
N36   O124  1.300990 A    
C181  H194  1.108218 S    
Zn6   O2    1.993555 S    
C130  H41   1.110025 S    
N55   O162  1.299548 A    
Zn7   O15   1.971446 S    
C173  H170  1.095264 S    
Zn13  O5    1.975536 S    
Zn8   O16   1.970579 S    
C61   C77   1.649205 S    
N58   O167  1.300663 A    
C160  H130  1.081407 S    
Zn2   O10   1.967730 S    
N5    O62   1.303821 A    
C105  C109  1.649895 S    
C99   C103  1.671094 S    
C159  H127  1.090656 S    
C179  H187  1.103680 S    
C108  C112  1.630771 S    
N15   O82   1.304945 A    
C137  H63   1.109901 S    
O29   C17   1.305336 A    
C156  H118  1.073025 S    
C92   C104  1.684061 S    
C83   C147  1.586485 S    
N51   O153  1.298746 A    
C97   C101  1.663321 S    
C35   C127  1.589428 S    
Zn6   O22   1.973210 S    
N9    O69   1.303108 A    
C138  H65   1.110335 S    
Zn10  O18   1.968466 S    
N10   O71   1.300150 A    
C92   N40   1.508920 S    
C126  H29   1.101934 S    
C39   H3    1.100138 S    
C144  H82   1.108927 S    
C113  C177  1.583808 S    
Zn9   O1    1.973218 S    
N14   O79   1.298735 A    
N10   O72   1.302485 A    
C153  H109  1.110940 S    
N4    O60   1.303955 A    
C169  H158  1.076647 S    
C32   C184  1.593457 S    
C136  H60   1.102856 S    
C87   H7    1.078873 S    
C163  H141  1.106263 S    
Zn12  O20   1.968466 S    
C22   C42   1.513131 S    
C180  H192  1.089405 S    
N54   O159  1.300961 A    
C134  H52   1.110334 S    
C142  H76   1.108567 S    
C38   C42   1.588412 S    
C122  H18   1.103160 S    
O45   C1    1.298046 A    
C98   N42   1.502526 S    
C164  H144  1.102376 S    
C68   N20   1.491406 S    
O41   C13   1.285386 A    
O33   C21   1.309177 A    
C66   N18   1.493987 S    
O15   C11   1.293656 A    
N48   O147  1.302293 A    
N1    O54   1.303999 A    
C166  H150  1.104654 S    
C191  H223  1.106887 S    
C111  N51   1.492676 S    
C35   C187  1.566239 S    
C162  H138  1.111013 S    
C171  H164  1.075650 S    
C184  H203  1.095016 S    
C135  H56   1.090909 S    
C27   C43   1.643442 S    
C192  H226  1.111639 S    
C50   C130  1.573017 S    
O44   C16   1.288287 A    
C174  H172  1.098577 S    
C171  H165  1.107548 S    
O17   C13   1.295001 A    
O20   C16   1.298085 A    
N38   O128  1.295060 A    
N26   O103  1.295527 A    
C123  H20   1.098227 S    
C118  N46   1.476311 S    
C57   C73   1.660459 S    
O48   C4    1.309069 A    
C60   N12   1.494584 S    
C168  H156  1.104655 S    
Zn16  O8    1.976746 S    
C158  H126  1.107643 S    
O36   C24   1.308635 A    
C86   H6    1.100012 S    
O14   C10   1.285130 A    
N45   O142  1.299725 A    
N59   O169  1.294351 A    
C64   N16   1.507843 S    
Zn1   O1    1.993558 S    
N37   O126  1.297235 A    
C4    C77   1.506707 S    
C78   C82   1.634956 S    
C68   N36   1.492581 S    
N21   O93   1.303201 A    
C87   N31   1.487642 S    
C46   C54   1.658033 S    
C142  H77   1.092022 S    
C20   C45   1.529857 S    
C169  H157  1.112210 S    
Zn1   O33   1.973255 S    
C48   C52   1.645148 S    
O30   C18   1.302716 A    
O12   C8    1.283996 A    
