data_mof_unit_55920.cif
_audit_creation_date              2012-12-10T18:55:21-0500
_audit_creation_method            fapswitch 2.2
_symmetry_space_group_name_H-M    P1
_symmetry_Int_Tables_number       1
_space_group_crystal_system       triclinic
_cell_length_a                    10.843735
_cell_length_b                    9.942836
_cell_length_c                    27.366896
_cell_angle_alpha                 89.616668
_cell_angle_beta                  91.726506
_cell_angle_gamma                 89.624314
_cell_volume                      2949.1567992

loop_
_atom_site_label
_atom_site_type_symbol
_atom_type_description
_atom_site_fract_x
_atom_site_fract_y
_atom_site_fract_z
_atom_type_partial_charge
C1    C     C_R   0.260202 0.500418 0.499549 0.997627
C2    C     C_R   0.329367 0.375746 0.868185 -0.040669
C3    C     C_R   0.474896 0.499720 0.353332 -0.316678
C4    C     C_R   0.488832 0.494651 0.646807 -0.328079
C5    C     C_R   0.309132 0.358646 0.971536 0.087927
C6    C     C_R   0.525237 0.329840 0.029498 0.078775
C7    C     C_R   0.535607 0.360487 0.979537 -0.086367
C8    C     C_R   0.302459 0.372797 0.023605 -0.071187
C9    C     C_R   0.426639 0.367681 0.950046 0.010155
C10   C     C_R   0.413407 0.358170 0.052003 -0.006597
C11   C     C_R   0.205294 0.342963 0.939756 -0.304819
C12   C     C_R   0.739985 0.499616 0.500575 0.979314
C13   C     C_R   0.623798 0.275838 0.057893 -0.309317
C14   C     C_R   0.214528 0.347648 0.888695 0.471539
C15   C     C_R   0.622082 0.277183 0.109007 0.476199
C16   C     C_R   0.496557 0.500317 0.406071 0.987156
C17   C     C_R   0.498526 0.499214 0.593908 0.986898
C18   C     C_R   0.193127 0.405244 0.048995 0.351809
C19   C     C_R   0.650374 0.394810 0.959193 0.329271
C20   C     C_R   0.063836 0.385842 0.483500 0.271874
C21   C     C_R   0.936723 0.615526 0.515940 0.255921
C22   C     C_R   0.936155 0.382100 0.486860 0.243584
C23   C     C_R   0.414626 0.374501 0.103138 -0.229193
C24   C     C_R   0.064837 0.617244 0.514379 0.265460
C25   C     C_R   0.872981 0.499247 0.500783 -0.231763
C26   C     C_R   0.127503 0.500933 0.499531 -0.239769
C27   C     C_R   0.565091 0.070152 0.535222 0.400990
C28   C     C_R   0.435352 0.930115 0.464727 0.416498
C29   C     C_R   0.435417 0.072059 0.464663 0.401624
C30   C     C_R   0.564797 0.928064 0.535315 0.429937
C31   C     C_R   0.325378 0.473391 0.174475 0.598908
C32   C     C_R   0.551415 0.459435 0.829636 0.597815
C33   C     C_R   0.520862 0.362196 0.182114 0.577009
C34   C     C_R   0.435181 0.387903 0.899119 -0.219945
C35   C     C_R   0.342647 0.391237 0.817352 0.573706
C36   C     C_R   0.545054 0.539714 0.271283 0.405069
C37   C     C_R   0.374793 0.540194 0.719941 0.396862
C38   C     C_R   0.568469 0.538990 0.322001 0.395028
C39   C     C_R   0.381775 0.542709 0.668707 0.392613
C40   C     C_R   0.361529 0.452119 0.334378 0.412051
C41   C     C_R   0.582005 0.430771 0.675001 0.417518
C42   C     C_R   0.348308 0.430205 0.284147 -0.239764
C43   C     C_R   0.562242 0.403684 0.724100 -0.242796
C44   C     C_R   0.438636 0.473781 0.252343 0.023060
C45   C     C_R   0.312892 0.435020 0.125127 -0.114684
C46   C     C_R   0.461900 0.461565 0.747615 0.017355
C47   C     C_3   0.159750 0.487463 0.356345 0.062484
C48   C     C_3   0.171171 0.633512 0.373476 -0.384628
C49   C     C_3   0.047486 0.707416 0.370594 -0.835919
C50   C     C_3   0.787949 0.478049 0.672292 0.070903
C51   C     C_3   0.778712 0.620336 0.650098 -0.413747
C52   C     C_3   0.877479 0.712971 0.671626 -0.800750
C53   C     C_3   0.180762 0.507932 0.641872 0.104860
C54   C     C_3   0.205040 0.363671 0.624069 -0.442125
C55   C     C_3   0.085816 0.283783 0.618823 -0.834773
C56   C     C_R   0.549515 0.421480 0.879101 -0.124866
C57   C     C_3   0.770637 0.470554 0.331106 0.089764
C58   C     C_3   0.750724 0.342607 0.361645 -0.406333
C59   C     C_3   0.848509 0.235766 0.352132 -0.812405
C60   C     C_3   0.014933 0.282757 0.050332 0.053899
C61   C     C_3   0.064858 0.144395 0.035394 -0.399899
C62   C     C_3   0.004053 0.032083 0.063991 -0.917364
C63   C     C_3   0.749379 0.541098 0.011679 0.083712
C64   C     C_3   0.819624 0.645992 0.982525 -0.326655
C65   C     C_3   0.822412 0.780773 0.008664 -0.957666
C66   C     C_R   0.202753 0.455421 0.097350 0.376853
C67   C     C_R   0.658043 0.419757 0.908762 0.407782
C68   C     C_R   0.520241 0.336812 0.131735 -0.043175
H1    H     H_    0.268663 0.376621 0.269796 0.195807
H2    H     H_    0.060490 0.813163 0.382377 0.288645
H3    H     H_    0.981211 0.658908 0.395271 0.252065
H4    H     H_    0.876932 0.433039 0.661669 0.168334
H5    H     H_    0.791444 0.482245 0.712987 0.188267
H6    H     H_    0.788303 0.613271 0.610015 0.245342
H7    H     H_    0.687530 0.666304 0.657256 0.250182
H8    H     H_    0.865928 0.723985 0.711595 0.281597
H9    H     H_    0.868812 0.813819 0.654133 0.288938
H10   H     H_    0.970765 0.672552 0.665094 0.247219
H11   H     H_    0.653528 0.223180 0.560173 0.395350
H12   H     H_    0.628964 0.342511 0.744593 0.207201
H13   H     H_    0.348860 0.777360 0.439966 0.368265
H14   H     H_    0.348917 0.227039 0.438930 0.421420
H15   H     H_    0.651105 0.773020 0.561031 0.392057
H16   H     H_    0.041021 0.542955 0.092843 0.351440
H17   H     H_    0.839095 0.419548 0.911249 0.359078
H18   H     H_    0.107595 0.553137 0.617649 0.172568
H19   H     H_    0.143641 0.505410 0.679278 0.200946
H20   H     H_    0.249472 0.367260 0.588289 0.251663
H21   H     H_    0.268189 0.309797 0.650387 0.238005
H22   H     H_    0.044131 0.270569 0.655089 0.272898
H23   H     H_    0.115794 0.321438 0.952946 0.206045
H24   H     H_    0.106157 0.182881 0.603771 0.285328
H25   H     H_    0.018995 0.336042 0.593543 0.248949
H26   H     H_    0.863718 0.509720 0.340514 0.159272
H27   H     H_    0.771456 0.445632 0.291538 0.218997
H28   H     H_    0.753593 0.368868 0.400953 0.269585
H29   H     H_    0.659102 0.298809 0.352374 0.240699
H30   H     H_    0.845150 0.206745 0.312991 0.279281
H31   H     H_    0.831002 0.145121 0.374744 0.286139
H32   H     H_    0.941737 0.273692 0.361928 0.240544
H33   H     H_    0.306019 0.628974 0.776090 0.347493
H34   H     H_    0.702382 0.232095 0.040350 0.175485
H35   H     H_    0.592789 0.611410 0.208390 0.339867
H36   H     H_    0.038481 0.311269 0.878640 0.334171
H37   H     H_    0.784473 0.191672 0.114806 0.317499
H38   H     H_    0.916594 0.288518 0.038635 0.207926
H39   H     H_    0.016233 0.291452 0.090876 0.177432
H40   H     H_    0.046312 0.128734 0.995709 0.229579
H41   H     H_    0.166000 0.137986 0.042718 0.233476
H42   H     H_    0.023055 0.044224 0.103826 0.282888
H43   H     H_    0.042178 0.933568 0.052704 0.278940
H44   H     H_    0.902745 0.033397 0.056703 0.260920
H45   H     H_    0.086443 0.439148 0.377501 0.170774
H46   H     H_    0.794848 0.530122 0.048438 0.179996
H47   H     H_    0.653512 0.577529 0.017886 0.136548
H48   H     H_    0.915786 0.610294 0.977550 0.258599
H49   H     H_    0.774165 0.660508 0.945954 0.247486
H50   H     H_    0.727196 0.820142 0.012759 0.270138
H51   H     H_    0.874973 0.854261 0.986923 0.279633
H52   H     H_    0.867837 0.769304 0.045386 0.275882
H53   H     H_    0.073624 0.234199 0.438870 0.356072
H54   H     H_    0.923748 0.769857 0.559108 0.359004
H55   H     H_    0.924507 0.186863 0.486691 0.360225
H56   H     H_    0.128326 0.483603 0.317320 0.153799
H57   H     H_    0.082438 0.811448 0.515950 0.355916
H58   H     H_    0.205279 0.633347 0.411889 0.228925
H59   H     H_    0.238099 0.688203 0.350818 0.249528
H60   H     H_    0.009236 0.707536 0.332487 0.275215
N1    N     N_R   0.428351 0.437019 0.201666 -0.359952
N2    N     N_R   0.450629 0.438959 0.799403 -0.356170
N3    N     N_R   0.500000 0.857200 0.500000 -0.265168
N4    N     N_R   0.500000 0.142800 0.500000 -0.275279
O1    O     O_R   0.316770 0.614620 0.500000 -0.597744
O2    O     O_2   0.652414 0.518903 0.811838 -0.493107
O3    O     O_2   0.249026 0.359433 0.786044 -0.462017
O4    O     O_2   0.613881 0.315109 0.211462 -0.474152
O5    O     O_3   0.270307 0.413643 0.366038 -0.605910
O6    O     O_3   0.691899 0.394181 0.654027 -0.609838
O7    O     O_3   0.635019 0.131701 0.571262 -0.660233
O8    O     O_3   0.365826 0.868768 0.428671 -0.695491
O9    O     O_3   0.366668 0.135369 0.428202 -0.651983
O10   O     O_3   0.633697 0.864786 0.571730 -0.685115
O11   O     O_3   0.102963 0.516789 0.118594 -0.701772
O12   O     O_R   0.683230 0.385380 0.500000 -0.601044
O13   O     O_3   0.770791 0.441509 0.887671 -0.703044
O14   O     O_3   0.285527 0.592579 0.639223 -0.577052
O15   O     O_3   0.683521 0.573148 0.341472 -0.602152
O16   O     O_3   0.283290 0.614978 0.741198 -0.713968
O17   O     O_3   0.630341 0.598807 0.241557 -0.714626
O18   O     O_3   0.111015 0.330645 0.858615 -0.680628
O19   O     O_3   0.721332 0.227956 0.136716 -0.695581
O20   O     O_3   0.077105 0.390494 0.027397 -0.669806
O21   O     O_3   0.754909 0.414118 0.988594 -0.683975
O22   O     O_3   0.127674 0.280129 0.463249 -0.725401
O23   O     O_R   0.683230 0.614620 0.500000 -0.594941
O24   O     O_3   0.872589 0.724631 0.533593 -0.751373
O25   O     O_3   0.872152 0.265120 0.476831 -0.745653
O26   O     O_3   0.129989 0.731226 0.527462 -0.711452
O27   O     O_R   0.316770 0.385380 0.500000 -0.606238
O28   O     O_R   0.500030 0.614650 0.428760 -0.618538
O29   O     O_R   0.499970 0.385350 0.571240 -0.628462
O30   O     O_R   0.499970 0.614650 0.571240 -0.607533
O31   O     O_R   0.500030 0.385350 0.428760 -0.623421
O32   O     O_2   0.236499 0.547338 0.195199 -0.481269
Zn1   Zn    Zn3+2 0.500000 0.653120 0.500000 1.006855
Zn2   Zn    Zn3+2 0.500000 0.346880 0.500000 0.989814

loop_
_geom_bond_atom_site_label_1
_geom_bond_atom_site_label_2
_ccdc_geom_bond_type
C2    C35   A    
H13   O8    S    
H11   O7    S    
H33   O16   S    
C34   C56   A    
C64   H48   S    
C16   O28   A    
C59   H31   S    
C28   O8    S    
C51   H6    S    
C55   H25   S    
C61   H41   S    
C15   O19   S    
C47   H56   S    
C53   C54   S    
C32   O2    S    
C20   O22   S    
C23   C45   A    
C28   C29   A    
N4    Zn2   S    
C5    C11   A    
C55   H22   S    
C11   C14   A    
C24   O26   S    
C36   O17   S    
C29   N4    A    
C4    C41   A    
C30   N3    A    
C52   H10   S    
C47   H45   S    
C60   O20   S    
H36   O18   S    
C61   H40   S    
C58   H28   S    
C50   H4    S    
C54   C55   S    
C63   H46   S    
C65   H52   S    
C62   H43   S    
C3    C38   A    
C22   C25   A    
C67   O13   S    
C18   O20   S    
C65   H50   S    
C19   C67   A    
C53   H18   S    
O29   Zn2   S    
C37   C46   A    
C63   H47   S    
C2    C34   A    
C40   C42   A    
C27   C30   A    
C59   H32   S    
C41   C43   A    
C47   O5    S    
C58   H29   S    
C42   C44   A    
H14   O9    S    
C1    O1    A    
C32   N2    A    
C16   O31   A    
H37   O19   S    
H53   O22   S    
C51   C52   S    
C1    O27   A    
O31   Zn2   S    
C63   O21   S    
C54   H21   S    
C17   O30   A    
C50   H5    S    
C35   O3    S    
H57   O26   S    
C66   O11   S    
H55   O25   S    
H16   O11   S    
C44   N1    S    
C42   H1    S    
C8    C18   A    
C64   H49   S    
C12   O12   A    
O12   Zn2   S    
C60   C61   S    
C23   C68   A    
C5    C9    A    
C55   H24   S    
O1    Zn1   S    
C5    C8    A    
O30   Zn1   S    
C47   C48   S    
C62   H42   S    
C4    C39   A    
C29   O9    S    
C40   O5    S    
C14   O18   S    
C50   C51   S    
C65   H51   S    
C53   H19   S    
O28   Zn1   S    
C35   N2    A    
C41   O6    S    
C60   H39   S    
C17   O29   A    
C4    C17   S    
C8    C10   A    
C48   C49   S    
C20   C22   A    
C3    C40   A    
C7    C19   A    
C49   H2    S    
C57   O15   S    
C57   H27   S    
C9    C34   A    
C19   O21   S    
C36   C44   A    
C12   O23   A    
C31   C45   A    
C52   H9    S    
C60   H38   S    
C33   N1    A    
C7    C9    A    
C49   H60   S    
C21   C25   A    
C31   O32   S    
H54   O24   S    
C24   C26   A    
C51   H7    S    
C52   H8    S    
C46   N2    S    
H15   O10   S    
C27   N4    A    
C50   O6    S    
C6    C7    A    
C22   O25   S    
C10   C23   A    
C18   C66   A    
C56   C67   A    
C30   O10   S    
O27   Zn2   S    
C12   C25   S    
C57   H26   S    
C28   N3    A    
C64   C65   S    
C13   C15   A    
C58   C59   S    
C31   N1    A    
C6    C13   A    
C54   H20   S    
C33   O4    S    
C57   C58   S    
C1    C26   S    
C20   C26   A    
O23   Zn1   S    
C15   C68   A    
H17   O13   S    
C39   O14   S    
C36   C38   A    
C53   O14   S    
C43   H12   S    
C21   O24   S    
C37   O16   S    
C61   C62   S    
C2    C14   A    
C43   C46   A    
C27   O7    S    
C38   O15   S    
C6    C10   A    
H35   O17   S    
C48   H58   S    
C63   C64   S    
C11   H23   S    
C62   H44   S    
N3    Zn1   S    
C37   C39   A    
C49   H3    S    
C21   C24   A    
C45   C66   A    
C59   H30   S    
C13   H34   S    
C32   C56   A    
C3    C16   S    
C33   C68   A    
C48   H59   S    
