data_mof_unit_33085.cif
_audit_creation_date              2012-12-11T16:23:52-0500
_audit_creation_method            fapswitch 2.2
_symmetry_space_group_name_H-M    P1
_symmetry_Int_Tables_number       1
_space_group_crystal_system       triclinic
_cell_length_a                    14.71565
_cell_length_b                    14.740356
_cell_length_c                    33.231566
_cell_angle_alpha                 95.979162
_cell_angle_beta                  96.093545
_cell_angle_gamma                 61.179209
_cell_volume                      6268.18666949

loop_
_atom_site_label
_atom_site_type_symbol
_atom_type_description
_atom_site_fract_x
_atom_site_fract_y
_atom_site_fract_z
_atom_type_partial_charge
C1    C     C_R   0.390517 0.701201 0.446326 0.554971
C2    C     C_1   0.313642 0.311952 0.231670 0.082289
C3    C     C_1   0.316121 0.316910 0.268072 0.111036
C4    C     C_R   0.405180 0.385834 0.434279 0.549316
C5    C     C_R   0.291061 0.290041 0.103094 -0.007671
C6    C     C_R   0.762718 0.365718 0.411380 -0.000840
C7    C     C_R   0.823162 0.405494 0.397452 0.090046
C8    C     C_R   0.859449 0.374623 0.358486 -0.102960
C9    C     C_R   0.838260 0.303165 0.333617 0.019191
C10   C     C_R   0.790078 0.253774 0.349537 0.099566
C11   C     C_R   0.752391 0.285604 0.387873 -0.125309
C12   C     C_R   0.321268 0.327301 0.311609 0.021122
C13   C     C_R   0.875323 0.283765 0.210044 0.398327
C14   C     C_R   0.855053 0.290587 0.290291 0.367087
C15   C     C_R   0.881610 0.371318 0.151016 0.233749
C16   C     C_R   0.702442 0.408817 0.447873 0.558279
C17   C     C_R   0.897523 0.367352 0.110112 -0.081227
C18   C     C_R   0.913824 0.195158 0.100139 -0.123216
C19   C     C_R   0.896346 0.198284 0.140804 0.047359
C20   C     C_R   0.883690 0.284921 0.166762 0.019072
C21   C     C_R   0.918374 0.277899 0.084873 -0.045056
C22   C     C_R   0.366717 0.763553 0.410617 -0.029478
C23   C     C_R   0.390732 0.242985 0.334820 0.248052
C24   C     C_R   0.269017 0.796885 0.389422 -0.113192
C25   C     C_R   0.249480 0.835610 0.351013 0.245766
C26   C     C_R   0.331073 0.836159 0.332392 0.003346
C27   C     C_R   0.423588 0.815760 0.355369 -0.114470
C28   C     C_R   0.392059 0.703597 0.561000 0.562112
C29   C     C_R   0.441329 0.782078 0.394551 0.079364
C30   C     C_R   0.335932 0.840611 0.207174 0.383572
C31   C     C_R   0.327543 0.843945 0.288392 0.369280
C32   C     C_R   0.230945 0.882554 0.143511 -0.149541
C33   C     C_R   0.212842 0.909831 0.103870 -0.142622
C34   C     C_R   0.413624 0.261759 0.375792 -0.095425
C35   C     C_R   0.394922 0.863809 0.100891 0.085967
C36   C     C_R   0.414376 0.831150 0.141237 0.247044
C37   C     C_R   0.329285 0.848660 0.163197 0.007099
C38   C     C_R   0.292007 0.906722 0.082681 -0.016941
C39   C     C_R   0.366035 0.368516 0.583465 0.018278
C40   C     C_R   0.406642 0.388698 0.548785 0.550096
C41   C     C_R   0.279810 0.450109 0.601964 -0.111014
C42   C     C_R   0.253645 0.439395 0.639495 -0.101803
C43   C     C_R   0.312284 0.346506 0.658919 0.031448
C44   C     C_R   0.392243 0.261548 0.638785 -0.103841
C45   C     C_R   0.391351 0.227660 0.166922 0.104143
C46   C     C_R   0.419303 0.272652 0.601305 -0.106737
C47   C     C_R   0.287103 0.337054 0.782107 0.359000
C48   C     C_R   0.297965 0.342910 0.701628 0.342887
C49   C     C_R   0.206845 0.408483 0.849827 0.114352
C50   C     C_R   0.210238 0.395939 0.891653 0.113314
C51   C     C_R   0.368275 0.230976 0.884742 -0.153239
C52   C     C_R   0.704098 0.411905 0.562287 0.563410
C53   C     C_R   0.368925 0.246693 0.844467 -0.144322
C54   C     C_R   0.286743 0.332170 0.826094 0.015654
C55   C     C_R   0.286372 0.301632 0.908191 -0.002340
C56   C     C_R   0.381393 0.219512 0.124764 -0.120240
C57   C     C_R   0.763591 0.375290 0.601807 0.022329
C58   C     C_R   0.811312 0.430338 0.624400 0.078793
C59   C     C_R   0.838251 0.416566 0.665837 -0.085860
C60   C     C_R   0.822850 0.345612 0.684851 -0.011655
C61   C     C_R   0.789393 0.281483 0.662002 -0.093186
C62   C     C_R   0.761614 0.293766 0.620694 0.066165
C63   C     C_R   0.926185 0.217738 0.820001 -0.146518
C64   C     C_R   0.365781 0.362611 0.394070 -0.052144
C65   C     C_R   0.949008 0.202114 0.861063 -0.171725
C66   C     C_R   0.836715 0.386452 0.877259 0.257169
C67   C     C_R   0.214668 0.376790 0.124809 0.078017
C68   C     C_R   0.818176 0.402662 0.835140 0.129551
C69   C     C_R   0.864688 0.317565 0.806891 -0.003267
C70   C     C_1   0.851216 0.330211 0.764014 0.031162
C71   C     C_1   0.839841 0.338216 0.727950 0.014173
C72   C     C_R   0.909222 0.286015 0.889992 -0.010705
C73   C     C_R   0.371487 0.760513 0.601618 0.021995
C74   C     C_R   0.281212 0.781449 0.621354 0.072692
C75   C     C_R   0.277821 0.803675 0.663117 -0.094005
C76   C     C_R   0.287961 0.443565 0.371830 -0.113113
C77   C     C_R   0.360209 0.809158 0.685715 -0.009787
C78   C     C_R   0.224872 0.383844 0.167201 -0.090190
C79   C     C_R   0.442910 0.802200 0.666311 -0.088904
C80   C     C_R   0.448379 0.780162 0.624390 0.063211
C81   C     C_R   0.372983 0.919748 0.829364 -0.108152
C82   C     C_R   0.350176 0.949448 0.869615 -0.155601
C83   C     C_R   0.266876 0.840542 0.867846 0.224448
C84   C     C_R   0.289824 0.811963 0.827014 -0.081400
C85   C     C_R   0.340547 0.853322 0.807766 0.006519
C86   C     C_1   0.352062 0.834826 0.765024 0.009489
C87   C     C_1   0.357935 0.822872 0.728925 0.004809
C88   C     C_R   0.265926 0.426421 0.330786 0.060522
C89   C     C_R   0.310627 0.307686 0.188275 0.005898
C90   C     C_R   0.293899 0.913650 0.889070 0.012915
C91   C     C_R   0.964920 0.263720 0.046108 0.564113
C92   C     C_R   0.272611 0.259454 0.060300 0.555156
C93   C     C_R   0.259089 0.959705 0.044105 0.570438
C94   C     C_R   0.960888 0.268427 0.931163 0.583712
C95   C     C_R   0.270912 0.264805 0.945362 0.546800
C96   C     C_R   0.257157 0.963812 0.929244 0.575620
Cr1   Cr    Cr6+3 0.576280 0.580550 0.506370 1.138061
Cr2   Cr    Cr6+3 0.346780 0.572400 0.496520 1.076704
Cr3   Cr    Cr6+3 0.576960 0.347070 0.497150 1.083498
Cr4   Cr    Cr6+3 0.087320 0.083240 0.984860 1.101547
Cr5   Cr    Cr6+3 0.087720 0.316210 0.996740 1.133744
Cr6   Cr    Cr6+3 0.317350 0.090340 0.995890 1.072359
H1    H     H_    0.442635 0.153721 0.109177 0.175051
H2    H     H_    0.236256 0.524585 0.588711 0.169302
H3    H     H_    0.485028 0.208056 0.587364 0.170991
H4    H     H_    0.190494 0.505437 0.654155 0.157933
H5    H     H_    0.438241 0.188821 0.653127 0.153188
H6    H     H_    0.429259 0.159526 0.896721 0.155354
H7    H     H_    0.432053 0.188741 0.827031 0.151702
H8    H     H_    0.003795 0.124662 0.870036 0.163601
H9    H     H_    0.960943 0.152030 0.798289 0.142786
H10   H     H_    0.782977 0.222547 0.676593 0.150571
H11   H     H_    0.471930 0.198226 0.393013 0.191265
H12   H     H_    0.710649 0.249874 0.398395 0.165536
H13   H     H_    0.870286 0.462063 0.683293 0.160245
H14   H     H_    0.372054 0.005357 0.884861 0.143934
H15   H     H_    0.412196 0.952135 0.814623 0.140516
H16   H     H_    0.503918 0.812760 0.683836 0.155108
H17   H     H_    0.266139 0.759434 0.809833 0.143335
H18   H     H_    0.211042 0.814897 0.678216 0.149819
H19   H     H_    0.248699 0.521708 0.385540 0.170021
H20   H     H_    0.164410 0.447954 0.183829 0.190464
H21   H     H_    0.827117 0.640809 0.172513 0.403080
H22   H     H_    0.973899 0.921331 0.349953 0.392200
H23   H     H_    0.900224 0.431932 0.098572 0.214347
H24   H     H_    0.607277 0.710325 0.223022 0.394775
H25   H     H_    0.531116 0.962308 0.337589 0.379209
H26   H     H_    0.782018 0.623259 0.939768 0.381437
H27   H     H_    0.169905 0.691617 0.842979 0.358658
H28   H     H_    0.900110 0.410203 0.346937 0.173656
H29   H     H_    0.930170 0.125285 0.081203 0.162005
H30   H     H_    0.208276 0.789686 0.402221 0.193889
H31   H     H_    0.133626 0.940985 0.090906 0.169513
H32   H     H_    0.485064 0.820456 0.342004 0.165229
H33   H     H_    0.165681 0.893837 0.159670 0.184557
I1    I     I_    0.771116 0.130302 0.317956 -0.118262
I2    I     I_    0.727923 0.554510 0.812845 -0.180479
I3    I     I_    0.572858 0.784948 0.599152 -0.231976
I4    I     I_    0.142706 0.784381 0.592951 -0.280752
I5    I     I_    0.081308 0.501344 0.097754 -0.184994
I6    I     I_    0.152916 0.554855 0.298579 -0.176595
I7    I     I_    0.866812 0.508521 0.432836 -0.201649
I8    I     I_    0.902171 0.064308 0.161975 -0.212862
I9    I     I_    0.583723 0.761505 0.425246 -0.191833
I10   I     I_    0.527939 0.113139 0.196167 -0.062265
I11   I     I_    0.519811 0.848394 0.067777 -0.100593
I12   I     I_    0.104074 0.522275 0.929497 -0.073339
I13   I     I_    0.071898 0.533041 0.822221 -0.203639
I14   I     I_    0.721958 0.180678 0.591503 -0.282543
I15   I     I_    0.854520 0.529543 0.598884 -0.226156
N1    N     N_R   0.790209 0.286478 0.223288 -0.149080
N2    N     N_R   0.376117 0.889649 0.272899 -0.164679
N3    N     N_R   0.379050 0.889205 0.232945 -0.127622
N4    N     N_R   0.255147 0.428520 0.765446 -0.171988
N5    N     N_R   0.259939 0.431470 0.725931 -0.213144
N6    N     N_R   0.331155 0.251116 0.718308 -0.220978
N7    N     N_R   0.325458 0.248349 0.757804 -0.231179
N8    N     N_R   0.780195 0.290218 0.262757 -0.162166
N9    N     N_R   0.940020 0.288617 0.276994 -0.174072
N10   N     N_R   0.950185 0.284735 0.237441 -0.141012
N11   N     N_R   0.287896 0.794648 0.222693 -0.177937
N12   N     N_R   0.284843 0.795346 0.262533 -0.126802
O1    O     O_R   0.679450 0.499830 0.463150 -0.455828
O2    O     O_R   0.340240 0.172500 0.045430 -0.508017
O3    O     O_R   0.309670 0.000990 0.032050 -0.476979
O4    O     O_R   0.480650 0.664000 0.464630 -0.462930
O5    O     O_R   0.168330 0.982130 0.939200 -0.443099
O6    O     O_R   0.000140 0.178170 0.944610 -0.506479
O7    O     O_R   0.983010 0.336750 0.948660 -0.437016
O8    O     O_R   0.181800 0.312190 0.959860 -0.477870
O9    O     O_R   0.338500 0.175680 0.956950 -0.517032
O10   O     O_R   0.308050 0.003930 0.950020 -0.506738
O11   O     O_3   0.164130 0.163270 0.992500 -0.287991
O12   O     O_R   0.356040 0.477400 0.534170 -0.498384
O13   O     O_R   0.323930 0.675950 0.455370 -0.513887
O14   O     O_R   0.354700 0.475360 0.451930 -0.494906
O15   O     O_R   0.494470 0.320860 0.448390 -0.507015
O16   O     O_R   0.662580 0.357570 0.460050 -0.509416
O17   O     O_R   0.680900 0.502040 0.551870 -0.462772
O18   O     O_R   0.481990 0.666040 0.546870 -0.470159
O19   O     O_R   0.325370 0.678160 0.544080 -0.479482
O20   O     O_2   0.778638 0.514586 0.209415 -0.231985
O21   O     O_2   0.964275 0.458682 0.207046 -0.260264
O22   O     O_3   0.836523 0.581823 0.152999 -0.456665
O23   O     O_R   0.495910 0.323070 0.537100 -0.485979
O24   O     O_2   0.096179 0.976950 0.304394 -0.219877
O25   O     O_2   0.113983 0.802127 0.299978 -0.219292
O26   O     O_3   0.036328 0.922032 0.364063 -0.510084
O27   O     O_2   0.611157 0.680714 0.132898 -0.180338
O28   O     O_2   0.585278 0.839556 0.172910 -0.237580
O29   O     O_3   0.551149 0.705890 0.205092 -0.478810
O30   O     O_2   0.386653 0.097298 0.279741 -0.228165
O31   O     O_2   0.553854 0.095060 0.297440 -0.227206
O32   O     O_3   0.481394 0.030909 0.349564 -0.512391
O33   O     O_2   0.656231 0.551481 0.898383 -0.224845
O34   O     O_R   0.663920 0.359620 0.542290 -0.473094
O35   O     O_2   0.771148 0.449487 0.953465 -0.255496
O36   O     O_3   0.823156 0.567685 0.919583 -0.466959
O37   O     O_2   0.250999 0.759257 0.933764 -0.195771
O38   O     O_2   0.091657 0.855585 0.891564 -0.265570
O39   O     O_3   0.225386 0.670851 0.865137 -0.472853
O40   O     O_3   0.500010 0.500010 0.500010 -0.275812
O41   O     O_R   0.170070 0.978950 0.027680 -0.498114
O42   O     O_R   0.001760 0.175230 0.026640 -0.503453
O43   O     O_R   0.984760 0.333570 0.037150 -0.481626
O44   O     O_R   0.183410 0.309240 0.041890 -0.470484
S1    S     S_3+6 0.865011 0.483174 0.181874 0.065481
S2    S     S_3+6 0.121752 0.885145 0.328073 0.064104
S3    S     S_3+6 0.544102 0.763712 0.162927 0.089199
S4    S     S_3+6 0.454198 0.114237 0.313585 0.050377
S5    S     S_3+6 0.768051 0.489900 0.913347 0.077384
S6    S     S_3+6 0.206364 0.782416 0.890948 0.067979

loop_
_geom_bond_atom_site_label_1
_geom_bond_atom_site_label_2
_ccdc_geom_bond_type
C50   I12   S    
C66   C68   A    
C63   C65   A    
C31   N2    A    
C62   I14   S    
C27   C29   A    
C18   C21   A    
O21   S1    D    
C41   C42   A    
C5    C56   A    
Cr5   O11   S    
C35   C36   A    
C52   O34   A    
Cr3   O23   S    
Cr1   O40   S    
C5    C67   A    
C81   C82   A    
C68   I2    S    
C7    C8    A    
C39   C41   A    
C53   C54   A    
Cr6   O11   S    
C12   C23   A    
C26   C27   A    
O38   S6    D    
O22   S1    S    
C14   N8    A    
Cr4   O5    S    
C45   I10   S    
C76   H19   S    
C36   C37   A    
C22   C29   A    
O28   S3    D    
C10   I1    S    
Cr3   O15   S    
C84   H17   S    
C94   O7    A    
C47   N7    A    
Cr2   O12   S    
Cr4   O41   S    
Cr1   O17   S    
Cr1   O4    S    
C46   H3    S    
C81   H15   S    
O37   S6    D    
C73   C74   A    
C11   H12   S    
C3    C12   S    
C68   C69   A    
C96   O10   A    
C30   N3    A    
C66   C72   A    
C63   C69   A    
C45   C56   A    
C44   C46   A    
C8    C9    A    
Cr1   O1    S    
O25   S2    D    
Cr5   O7    S    
C70   C71   T    
C21   C91   S    
C25   S2    S    
C45   C89   A    
C43   C48   S    
C76   C88   A    
C13   N10   A    
C1    C22   S    
C83   S6    S    
C36   S3    S    
H27   O39   S    
C92   O2    A    
C48   N6    A    
C31   N12   A    
C93   O3    A    
C59   C60   A    
C78   C89   A    
C49   C54   A    
N9    N10   A    
C18   H29   S    
H24   O29   S    
C67   C78   A    
C78   H20   S    
C28   C73   S    
C91   O43   A    
C16   O16   A    
C28   O18   A    
N11   N12   A    
C77   C79   A    
C16   O1    A    
Cr6   O10   S    
C15   C20   A    
C77   C87   S    
C74   C75   A    
C12   C88   A    
N1    N8    A    
C57   C62   A    
C35   C38   A    
C84   C85   A    
C13   N1    A    
Cr3   O16   S    
C55   C95   S    
C10   C11   A    
H25   O32   S    
C94   O6    A    
C39   C40   S    
H22   O26   S    
C86   C87   T    
C18   C19   A    
Cr1   O18   S    
C79   H16   S    
C60   C71   S    
C25   C26   A    
C85   C86   S    
C29   I9    S    
C6    C16   S    
Cr3   O34   S    
C17   C21   A    
C30   C37   S    
O26   S2    S    
C60   C61   A    
C34   H11   S    
C35   I11   S    
N6    N7    A    
C2    C89   S    
C9    C14   S    
O33   S5    D    
H21   O22   S    
O35   S5    D    
O32   S4    S    
Cr2   O14   S    
C24   H30   S    
C83   C84   A    
C4    O15   A    
C23   C34   A    
C15   S1    S    
C34   C64   A    
C64   C76   A    
C96   O5    A    
Cr5   O8    S    
C32   C37   A    
C24   C25   A    
C67   I5    S    
C75   C77   A    
O30   S4    D    
N4    N5    A    
Cr5   O43   S    
O29   S3    S    
C47   C54   S    
C59   H13   S    
C47   N4    A    
C48   N5    A    
C51   H6    S    
Cr6   O3    S    
O31   S4    D    
C39   C46   A    
C43   C44   A    
C8    H28   S    
C22   C24   A    
C42   C43   A    
C52   C57   S    
C88   I6    S    
C6    C11   A    
C9    C10   A    
C44   H5    S    
C53   H7    S    
Cr6   O9    S    
C15   C17   A    
C83   C90   A    
C1    O13   A    
C19   I8    S    
O39   S6    S    
C13   C20   S    
C27   H32   S    
Cr2   O40   S    
C75   H18   S    
C91   O42   A    
C56   H1    S    
C32   H33   S    
C90   C96   S    
C6    C7    A    
C40   O23   A    
C23   S4    S    
C65   C72   A    
C74   I4    S    
C4    C64   S    
C50   C55   A    
C82   C90   A    
C41   H2    S    
O24   S2    D    
C14   N9    A    
Cr4   O6    S    
C32   C33   A    
C19   C20   A    
C61   C62   A    
C2    C3    T    
C58   C59   A    
C52   O17   A    
C72   C94   S    
Cr3   O40   S    
O36   S5    S    
C40   O12   A    
Cr2   O13   S    
Cr4   O42   S    
C17   H23   S    
C57   C58   A    
C1    O4    A    
Cr2   O19   S    
C28   O19   A    
C80   I3    S    
O20   S1    D    
C38   C93   S    
C73   C80   A    
C51   C55   A    
C63   H9    S    
C69   C70   S    
C93   O41   A    
C95   O8    A    
H26   O36   S    
C65   H8    S    
C5    C92   S    
C92   O44   A    
Cr5   O44   S    
C82   H14   S    
C79   C80   A    
C42   H4    S    
C33   H31   S    
C26   C31   S    
N2    N3    A    
C49   I13   S    
Cr6   O2    S    
C49   C50   A    
C4    O14   A    
Cr4   O11   S    
C33   C38   A    
O27   S3    D    
C30   N11   A    
C51   C53   A    
C66   S5    S    
C61   H10   S    
C95   O9    A    
C7    I7    S    
C81   C85   A    
C58   I15   S    
