data_mof_unit_19674.cif
_audit_creation_date              2013-03-05T16:09:07-0500
_audit_creation_method            fapswitch 2.2
_symmetry_space_group_name_H-M    P1
_symmetry_Int_Tables_number       1
_space_group_crystal_system       triclinic
_cell_length_a                    18.243054
_cell_length_b                    7.16335
_cell_length_c                    12.905009
_cell_angle_alpha                 90.598977
_cell_angle_beta                  72.326862
_cell_angle_gamma                 90.052273
_cell_volume                      1606.75849544

loop_
_atom_site_label
_atom_site_type_symbol
_atom_site_description
_atom_site_fract_x
_atom_site_fract_y
_atom_site_fract_z
_atom_type_partial_charge
O1    O     O_R   0.453880 0.506200 0.150010 -0.588505
O2    O     O_R   0.546120 0.006200 0.849990 -0.583528
O3    O     O_R   0.604080 0.177770 0.007280 -0.597111
O4    O     O_R   0.395920 0.677770 0.992720 -0.590703
C1    C     C_R   0.635828 0.344454 0.001726 0.978568
C2    C     C_R   0.364124 0.844381 0.998387 0.976358
O5    O     O_R   0.458010 0.176640 0.159130 -0.606318
O6    O     O_R   0.541990 0.676640 0.840870 -0.615759
O7    O     O_R   0.399010 0.004010 0.002930 -0.583615
O8    O     O_R   0.600990 0.504010 0.997070 -0.581016
C3    C     C_R   0.444050 0.346587 0.203031 0.939933
C4    C     C_R   0.556774 0.844836 0.797493 0.950120
O9    O     O_3   0.480810 0.338440 0.948570 -0.288950
O10   O     O_3   0.519190 0.838440 0.051430 -0.291092
V1    V     V_3+5 0.503560 0.064490 0.009540 1.122654
V2    V     V_3+5 0.496440 0.564490 0.990460 1.123458
C5    C     C_R   0.578594 0.821617 0.492527 0.132959
C6    C     C_R   0.426621 0.295040 0.505702 0.126634
H1    H     H_    0.660254 0.962793 0.293761 0.195352
H2    H     H_    0.331821 0.173219 0.702402 0.169190
C7    C     C_R   0.590571 0.852968 0.677568 -0.247222
C8    C     C_R   0.413996 0.357728 0.324280 -0.262337
C9    C     C_R   0.950941 0.841117 0.389017 0.072854
C10   C     C_R   0.052617 0.343261 0.607587 0.076885
C11   C     C_R   0.913886 0.818923 0.502950 0.235288
C12   C     C_R   0.090481 0.335619 0.492588 0.236692
C13   C     C_R   0.833174 0.805075 0.539282 -0.283185
C14   C     C_R   0.171571 0.337117 0.455468 -0.286850
C15   C     C_R   0.786961 0.857629 0.475290 0.063424
C16   C     C_R   0.217157 0.355521 0.524896 0.057183
C17   C     C_R   0.822055 0.881819 0.362538 0.038634
C18   C     C_R   0.180794 0.340130 0.638072 0.044167
C19   C     C_R   0.705184 0.872755 0.521084 0.002544
C20   C     C_R   0.299666 0.365604 0.482437 -0.007786
C21   C     C_R   0.658730 0.865250 0.451158 0.070082
C22   C     C_R   0.344589 0.306767 0.548749 0.078254
C23   C     C_R   0.693889 0.914899 0.343351 -0.267907
C24   C     C_R   0.305213 0.253476 0.654664 -0.259180
C25   C     C_R   0.773367 0.921289 0.297584 0.091629
C26   C     C_R   0.227950 0.293650 0.703584 0.095652
C27   C     C_R   0.668110 0.908118 0.633009 0.101959
C28   C     C_R   0.338833 0.426463 0.375367 0.108021
C29   C     C_R   0.546014 0.803719 0.608000 0.040506
C30   C     C_R   0.459523 0.297447 0.390009 0.052372
C31   C     C_R   0.903673 0.864923 0.319691 -0.282958
C32   C     C_R   0.098879 0.352934 0.679301 -0.286428
H3    H     H_    0.804561 0.757175 0.620456 0.159862
H4    H     H_    0.201323 0.316105 0.370354 0.162285
C33   C     C_1   0.216061 0.858911 0.001440 -0.269413
C34   C     C_1   0.783879 0.358711 0.998877 -0.269863
C35   C     C_1   0.283466 0.852439 0.999870 -0.252726
C36   C     C_1   0.716476 0.352461 0.000372 -0.253894
O11   O     O_R   0.899030 0.205490 0.002790 -0.588039
O12   O     O_R   0.100970 0.705490 0.997210 -0.586740
O13   O     O_R   0.042000 0.536370 0.840840 -0.593270
O14   O     O_R   0.958000 0.036370 0.159160 -0.597860
C37   C     C_R   0.060337 0.367283 0.798381 0.983141
C38   C     C_R   0.940732 0.869598 0.201339 0.989169
O15   O     O_R   0.895930 0.535070 0.992690 -0.592280
O16   O     O_R   0.104070 0.035070 0.007310 -0.592859
O17   O     O_R   0.953870 0.707520 0.150040 -0.588722
O18   O     O_R   0.046130 0.207520 0.849960 -0.590652
C39   C     C_R   0.864440 0.366740 0.998019 0.955242
C40   C     C_R   0.135528 0.866780 0.002233 0.950086
O19   O     O_3   0.019200 0.374340 0.051340 -0.290877
O20   O     O_3   0.980800 0.874340 0.948660 -0.292855
V3    V     V_3+5 0.996440 0.648350 0.990470 1.131537
V4    V     V_3+5 0.003560 0.148350 0.009530 1.130654
N1    N     N_2   0.470595 0.726527 0.654878 -0.108079
H5    H     H_    0.460261 0.666558 0.729632 0.194552
C41   C     C_3   0.402752 0.819784 0.645120 -1.006026
H6    H     H_    0.364610 0.860282 0.727108 0.240792
H7    H     H_    0.370417 0.722438 0.607767 0.272211
H8    H     H_    0.417018 0.945729 0.595353 0.271230
N2    N     N_2   0.535614 0.224456 0.339520 -0.109306
H9    H     H_    0.545910 0.165697 0.263594 0.184356
C42   C     C_3   0.602857 0.318319 0.352284 -1.014657
H10   H     H_    0.645969 0.341057 0.271588 0.249480
H11   H     H_    0.629289 0.233921 0.402443 0.266124
H12   H     H_    0.589061 0.452231 0.394500 0.284519
C43   C     C_3   0.525774 0.787532 0.420158 -0.339358
C44   C     C_3   0.559643 0.736564 0.298338 -0.906596
H13   H     H_    0.560325 0.858319 0.246144 0.253656
H14   H     H_    0.617806 0.674295 0.275964 0.265918
H15   H     H_    0.522835 0.632115 0.275688 0.271676
H16   H     H_    0.486731 0.670689 0.455423 0.223512
H17   H     H_    0.488215 0.910326 0.425795 0.202438
C45   C     C_3   0.482689 0.286071 0.574719 -0.342961
C46   C     C_3   0.455522 0.293302 0.699360 -0.881142
H18   H     H_    0.407197 0.391775 0.731914 0.260479
H19   H     H_    0.441500 0.152353 0.734391 0.261318
H20   H     H_    0.502733 0.345650 0.728737 0.257164
H21   H     H_    0.520237 0.162571 0.550015 0.216091
H22   H     H_    0.519794 0.409860 0.553877 0.212667
C47   C     C_3   0.704704 0.038976 0.698180 -0.367880
C48   C     C_3   0.677954 0.240411 0.695327 -0.825854
H23   H     H_    0.691468 0.288108 0.609835 0.248075
H24   H     H_    0.615686 0.254379 0.735555 0.277755
H25   H     H_    0.707702 0.333276 0.739144 0.221791
H26   H     H_    0.692902 0.991582 0.783282 0.190136
H27   H     H_    0.767560 0.047812 0.665232 0.200519
C49   C     C_3   0.305799 0.582562 0.322724 -0.379236
C50   C     C_3   0.345566 0.769278 0.327563 -0.809360
H28   H     H_    0.342287 0.804505 0.412930 0.244158
H29   H     H_    0.406511 0.767004 0.277469 0.283677
H30   H     H_    0.316299 0.881597 0.296252 0.229507
H31   H     H_    0.308966 0.545416 0.237743 0.191511
H32   H     H_    0.244791 0.611144 0.366342 0.202593
C51   C     C_3   0.038494 0.831927 0.330639 -0.361935
C52   C     C_3   0.098942 0.831955 0.390727 -0.960530
H33   H     H_    0.096804 0.960031 0.439673 0.272977
H34   H     H_    0.096390 0.705345 0.439327 0.269966
H35   H     H_    0.156593 0.831353 0.328929 0.252094
H36   H     H_    0.049359 0.706662 0.277026 0.201843
H37   H     H_    0.053493 0.952593 0.275307 0.193871
C53   C     C_3   0.965107 0.328618 0.664590 -0.365048
C54   C     C_3   0.905270 0.321519 0.603567 -0.957668
H38   H     H_    0.906304 0.446542 0.554296 0.272012
H39   H     H_    0.909130 0.191841 0.555474 0.271115
H40   H     H_    0.847544 0.320662 0.664849 0.255107
H41   H     H_    0.955635 0.202386 0.715911 0.202077
H42   H     H_    0.948201 0.447833 0.722072 0.194572
C55   C     C_3   0.957631 0.814786 0.586788 -0.340295
C56   C     C_3   0.909221 0.823585 0.707102 -0.947427
H43   H     H_    0.872054 0.949504 0.724332 0.258115
H44   H     H_    0.872685 0.698126 0.731207 0.258561
H45   H     H_    0.948190 0.830757 0.758402 0.282908
H46   H     H_    0.993139 0.687494 0.575020 0.214959
H47   H     H_    0.994920 0.939074 0.575326 0.216960
C57   C     C_3   0.046792 0.329820 0.408492 -0.340809
C58   C     C_3   0.095015 0.331285 0.288069 -0.948562
H48   H     H_    0.131951 0.457269 0.269178 0.259850
H49   H     H_    0.131846 0.205000 0.266055 0.260528
H50   H     H_    0.055992 0.332577 0.236789 0.283527
H51   H     H_    0.011585 0.202210 0.419777 0.218942
H52   H     H_    0.009366 0.454144 0.420248 0.213720
N3    N     N_2   0.802486 0.976694 0.187268 -0.103520
H53   H     H_    0.793757 0.116908 0.178321 0.173442
C59   C     C_3   0.779053 0.861898 0.109746 -0.797069
H54   H     H_    0.818436 0.885803 0.026728 0.268497
H55   H     H_    0.719796 0.898718 0.110282 0.219775
H56   H     H_    0.781130 0.711715 0.129170 0.243340
N4    N     N_2   0.197817 0.258850 0.816566 -0.101841
H57   H     H_    0.205675 0.121934 0.834444 0.172778
C60   C     C_3   0.224108 0.387553 0.884778 -0.796658
H58   H     H_    0.188796 0.370400 0.970823 0.263436
H59   H     H_    0.218501 0.533685 0.860279 0.242953
H60   H     H_    0.285154 0.359178 0.878536 0.223140

loop_
_geom_bond_atom_site_label_1
_geom_bond_atom_site_label_2
_geom_bond_distance
_ccdc_geom_bond_type
O20   V4    2.192367 S    
C25   N3    1.420803 S    
C9    C31   1.430024 A    
C13   C15   1.401521 A    
O11   C39   1.327641 A    
C47   C48   1.528045 S    
O1    C3    1.322538 A    
C58   H50   1.109511 S    
O2    C4    1.317935 A    
C2    O7    1.317549 A    
C60   H58   1.109724 S    
C26   N4    1.418058 S    
C37   O18   1.315530 A    
C8    C28   1.415219 A    
C42   H10   1.111579 S    
O5    C3    1.329065 A    
N3    C59   1.449706 S    
C53   H42   1.105899 S    
C21   C23   1.393402 A    
C10   C12   1.434749 A    
C54   H39   1.102089 S    
C59   H56   1.110460 S    
N4    H57   1.029935 S    
C48   H25   1.111112 S    
C15   C19   1.431882 A    
C53   C54   1.528198 S    
O6    V2    2.029729 S    
N1    C41   1.446318 S    
O11   V4    1.978490 S    
C52   H33   1.102357 S    
H1    C23   1.071064 S    
O15   V3    1.996822 S    
C7    C29   1.423772 A    
C8    C30   1.425424 A    
C57   H51   1.101933 S    
C17   C25   1.424411 A    
C20   C28   1.422096 A    
O19   V3    2.207695 S    
C48   H24   1.100441 S    
C34   C36   1.224701 T    
C1    C36   1.467143 S    
C49   H32   1.102315 S    
C2    C35   1.466939 S    
C46   H19   1.108197 S    
C20   C22   1.419708 A    
C43   H16   1.106814 S    
C12   C57   1.529370 S    
C38   O17   1.315970 A    
O5    V1    2.014294 S    
O20   V3    1.762319 S    
C29   N1    1.436994 S    
C33   C40   1.467239 S    
C55   H47   1.103565 S    
C34   C39   1.467433 S    
C49   C50   1.530734 S    
C28   C49   1.529950 S    
C12   C14   1.409892 A    
C60   H59   1.110388 S    
C43   C44   1.544396 S    
C42   H11   1.102403 S    
C9    C51   1.546467 S    
C45   H22   1.100094 S    
C31   C38   1.471396 S    
C53   H41   1.108557 S    
C16   C20   1.439093 A    
C16   C18   1.414335 A    
C55   C56   1.536274 S    
O4    C2    1.319056 A    
C54   H40   1.108555 S    
C41   H7    1.109710 S    
C47   H26   1.109889 S    
O12   V3    1.977395 S    
C33   C35   1.224577 T    
O14   V4    2.029688 S    
C4    C7    1.483636 S    
C6    C45   1.548584 S    
O4    V2    1.997966 S    
C30   N2    1.438703 S    
N2    H9    1.025795 S    
C5    C29   1.434032 A    
C6    C30   1.430418 A    
H2    C24   1.065451 S    
O17   V3    2.008641 S    
O6    C4    1.326493 A    
O19   V4    1.751444 S    
C48   H23   1.112348 S    
C49   H31   1.110092 S    
C50   H29   1.103504 S    
O1    V2    2.015779 S    
C46   H20   1.104907 S    
O2    V1    2.007137 S    
C11   C55   1.527515 S    
C52   H35   1.110331 S    
C43   H17   1.103634 S    
C51   H36   1.107801 S    
C56   H45   1.109655 S    
C7    C27   1.413349 A    
C10   C53   1.545654 S    
C44   H14   1.104703 S    
O13   C37   1.324686 A    
C32   C37   1.485673 S    
O9    V2    1.752154 S    
C58   H48   1.109806 S    
O3    C1    1.319689 A    
C60   H60   1.110689 S    
O3    V1    1.996853 S    
C56   H44   1.107946 S    
C42   H12   1.089305 S    
C13   H3    1.078306 S    
N4    C60   1.446893 S    
C45   H21   1.102778 S    
C14   H4    1.076304 S    
C18   C32   1.428686 A    
C57   H52   1.103492 S    
C58   H49   1.109213 S    
C41   H8    1.097430 S    
O13   V3    2.014271 S    
C59   H54   1.108852 S    
C11   C13   1.406852 A    
C44   H15   1.099921 S    
N3    H53   1.030243 S    
C3    C8    1.493951 S    
O15   C39   1.328606 A    
O18   V4    2.017406 S    
O16   C40   1.328040 A    
C10   C32   1.430517 A    
C22   C24   1.394351 A    
C57   C58   1.536027 S    
O7    V1    1.982248 S    
C19   C27   1.416815 A    
C41   H6    1.111201 S    
C15   C17   1.413000 A    
O8    V2    1.983401 S    
C51   C52   1.528596 S    
C24   C26   1.387358 A    
C59   H55   1.110943 S    
C55   H46   1.101170 S    
C27   C47   1.534591 S    
O12   C40   1.326076 A    
C14   C16   1.400542 A    
C19   C21   1.413747 A    
O14   C38   1.315870 A    
C50   H30   1.110974 S    
C5    C43   1.549698 S    
C18   C26   1.419036 A    
N1    H5    1.024114 S    
C52   H34   1.100986 S    
C51   H37   1.107128 S    
C1    O8    1.319024 A    
C9    C11   1.430125 A    
C45   C46   1.532910 S    
O16   V4    1.997936 S    
C23   C25   1.390583 A    
C44   H13   1.105314 S    
C17   C31   1.427040 A    
N2    C42   1.450143 S    
C50   H28   1.111354 S    
O10   V1    1.763046 S    
C5    C21   1.431317 A    
C46   H18   1.105149 S    
C54   H38   1.100598 S    
C6    C22   1.431677 A    
C47   H27   1.097313 S    
C56   H43   1.108226 S    
