data_mof_unit_35950.cif
_audit_creation_date              2012-12-11T14:44:31-0500
_audit_creation_method            fapswitch 2.2
_symmetry_space_group_name_H-M    P1
_symmetry_Int_Tables_number       1
_space_group_crystal_system       triclinic
_cell_length_a                    19.97409
_cell_length_b                    7.224487
_cell_length_c                    19.641842
_cell_angle_alpha                 90.637201
_cell_angle_beta                  98.429345
_cell_angle_gamma                 90.007246
_cell_volume                      2803.57156239

loop_
_atom_site_label
_atom_site_type_symbol
_atom_type_description
_atom_site_fract_x
_atom_site_fract_y
_atom_site_fract_z
_atom_type_partial_charge
O1    O     O_R   0.673210 0.377390 0.686390 -0.534006
O2    O     O_R   0.326790 0.622610 0.313610 -0.534007
O3    O     O_R   0.826790 0.877390 0.813610 -0.539732
O4    O     O_R   0.173210 0.122610 0.186390 -0.539732
O5    O     O_R   0.810750 0.706450 0.681250 -0.543619
O6    O     O_R   0.189250 0.293550 0.318750 -0.543619
O7    O     O_R   0.689250 0.206450 0.818750 -0.514165
O8    O     O_R   0.310750 0.793550 0.181250 -0.514164
C1    C     C_R   0.831318 0.538195 0.665875 0.748119
C2    C     C_R   0.168682 0.461804 0.334125 0.748119
C3    C     C_R   0.667970 0.039601 0.833685 0.729432
C4    C     C_R   0.332030 0.960398 0.166315 0.729431
O9    O     O_R   0.672750 0.707060 0.678240 -0.539078
O10   O     O_R   0.327250 0.292940 0.321760 -0.539078
O11   O     O_R   0.827250 0.207060 0.821760 -0.535353
O12   O     O_R   0.172750 0.792940 0.178240 -0.535353
O13   O     O_R   0.687800 0.877990 0.810580 -0.545266
O14   O     O_R   0.312200 0.122010 0.189420 -0.545265
O15   O     O_R   0.812200 0.377990 0.689420 -0.528032
O16   O     O_R   0.187800 0.622010 0.310580 -0.528031
C5    C     C_R   0.648514 0.538848 0.661271 0.704293
C6    C     C_R   0.351486 0.461152 0.338729 0.704291
C7    C     C_R   0.851676 0.040412 0.838756 0.707163
C8    C     C_R   0.148324 0.959588 0.161244 0.707164
O17   O     O_3   0.755100 0.544060 0.793420 -0.373732
O18   O     O_3   0.244900 0.455940 0.206580 -0.373732
O19   O     O_3   0.744900 0.044060 0.706580 -0.378028
O20   O     O_3   0.255100 0.955940 0.293420 -0.378028
V1    V     V_3+5 0.749050 0.818670 0.741950 1.405712
V2    V     V_3+5 0.250950 0.181330 0.258050 1.405712
V3    V     V_3+5 0.750950 0.318670 0.758050 1.449518
V4    V     V_3+5 0.249050 0.681330 0.241950 1.449519
C9    C     C_R   0.087548 0.956199 0.107261 -0.119929
C10   C     C_R   0.912452 0.043801 0.892738 -0.119929
C11   C     C_R   0.413100 0.463624 0.391358 -0.111311
C12   C     C_R   0.586899 0.536376 0.608642 -0.111312
C13   C     C_R   0.009178 0.218844 0.952621 0.295372
C14   C     C_R   0.990822 0.781156 0.047379 0.295372
C15   C     C_R   0.477565 0.674807 0.563832 0.298608
C16   C     C_R   0.522435 0.325193 0.436168 0.298608
C17   C     C_R   0.954594 0.200801 0.899265 -0.213118
C18   C     C_R   0.045406 0.799199 0.100735 -0.213118
C19   C     C_R   0.534169 0.660558 0.615199 -0.243625
C20   C     C_R   0.465831 0.339442 0.384800 -0.243624
C21   C     C_R   0.925975 0.901875 0.940850 -0.239026
C22   C     C_R   0.074025 0.098125 0.059150 -0.239026
C23   C     C_R   0.582567 0.423757 0.549535 -0.232646
C24   C     C_R   0.417433 0.576243 0.450465 -0.232646
C25   C     C_R   0.978964 0.919896 0.996969 0.065682
C26   C     C_R   0.021036 0.080104 0.003031 0.065682
C27   C     C_R   0.526468 0.436127 0.496517 0.064785
C28   C     C_R   0.473532 0.563873 0.503483 0.064785
H1    H     H_    0.106358 0.219315 0.064425 0.172549
H2    H     H_    0.893642 0.780685 0.935575 0.172549
H3    H     H_    0.375862 0.669008 0.455684 0.163225
H4    H     H_    0.624138 0.330992 0.544316 0.163225
C29   C     C_R   0.571737 0.180747 0.888303 0.233003
C30   C     C_R   0.428262 0.819251 0.111696 0.233002
C31   C     C_R   0.948796 0.467776 0.640860 0.241447
C32   C     C_R   0.051204 0.532224 0.359140 0.241447
C33   C     C_R   0.617383 0.032708 0.882197 -0.111762
C34   C     C_R   0.382617 0.967292 0.117803 -0.111762
C35   C     C_R   0.882085 0.528314 0.617920 -0.093949
C36   C     C_R   0.117914 0.471686 0.382079 -0.093949
C37   C     C_R   0.614965 0.874877 0.922805 -0.297589
C38   C     C_R   0.385036 0.125124 0.077196 -0.297588
C39   C     C_R   0.863479 0.579033 0.549094 -0.287013
C40   C     C_R   0.136521 0.420967 0.450906 -0.287013
C41   C     C_R   0.568921 0.861758 0.969678 0.092830
C42   C     C_R   0.431079 0.138243 0.030322 0.092830
C43   C     C_R   0.909931 0.567045 0.502049 0.109672
C44   C     C_R   0.090069 0.432955 0.497951 0.109672
C45   C     C_R   0.523427 0.007611 0.976314 0.035137
C46   C     C_R   0.476573 0.992390 0.023686 0.035138
C47   C     C_R   0.976557 0.505295 0.523950 0.028271
C48   C     C_R   0.023443 0.494705 0.476050 0.028271
C49   C     C_R   0.524510 0.168067 0.935612 0.024863
C50   C     C_R   0.475490 0.831932 0.064388 0.024864
C51   C     C_R   0.996447 0.455192 0.593618 0.037806
C52   C     C_R   0.003553 0.544808 0.406382 0.037806
C53   C     C_R   0.568150 0.704357 0.010417 -0.187161
C54   C     C_R   0.431849 0.295642 0.989582 -0.187163
C55   C     C_R   0.890475 0.615039 0.433100 -0.167049
C56   C     C_R   0.109525 0.384961 0.566900 -0.167049
C57   C     C_R   0.522458 0.689791 0.057355 -0.186247
C58   C     C_R   0.477541 0.310207 0.942643 -0.186245
C59   C     C_R   0.936315 0.603288 0.385876 -0.190845
C60   C     C_R   0.063685 0.396711 0.614124 -0.190845
H5    H     H_    0.524840 0.565927 0.087940 0.142378
H6    H     H_    0.475158 0.434070 0.912058 0.142376
H7    H     H_    0.918074 0.639988 0.333241 0.130213
H8    H     H_    0.081925 0.360011 0.666759 0.130213
H9    H     H_    0.054719 0.689113 0.137826 0.148115
H10   H     H_    0.945281 0.310887 0.862173 0.148116
H11   H     H_    0.462907 0.251845 0.339282 0.120321
H12   H     H_    0.537093 0.748155 0.660718 0.120321
N1    N     N_2   0.051200 0.378843 0.955611 -0.531366
H13   H     H_    0.025569 0.497276 0.938386 0.266246
C61   C     C_3   0.111848 0.353033 0.924433 -0.585249
H14   H     H_    0.098440 0.325201 0.868309 0.194717
H15   H     H_    0.142241 0.235927 0.948583 0.206968
H16   H     H_    0.143285 0.480431 0.931977 0.203656
N2    N     N_2   0.948800 0.621157 0.044389 -0.531366
H17   H     H_    0.974431 0.502724 0.061614 0.266246
C62   C     C_3   0.888151 0.646968 0.075567 -0.585248
H18   H     H_    0.901560 0.674800 0.131691 0.194717
H19   H     H_    0.856714 0.519569 0.068023 0.203655
H20   H     H_    0.857759 0.764073 0.051417 0.206968
N3    N     N_2   0.423865 0.796401 0.574625 -0.533354
H21   H     H_    0.415191 0.801806 0.625120 0.253928
C63   C     C_3   0.428507 0.979517 0.546615 -0.561988
H22   H     H_    0.473935 0.052896 0.573412 0.195354
H23   H     H_    0.382913 0.060623 0.554179 0.201921
H24   H     H_    0.430796 0.971424 0.490552 0.210782
N4    N     N_2   0.576136 0.203601 0.425375 -0.533354
H25   H     H_    0.584809 0.198196 0.374880 0.253928
C64   C     C_3   0.571494 0.020484 0.453385 -0.561987
H26   H     H_    0.526066 0.947104 0.426587 0.195354
H27   H     H_    0.569205 0.028576 0.509448 0.210782
H28   H     H_    0.617088 0.939379 0.445820 0.201921
N5    N     N_2   0.573338 0.339765 0.846210 -0.505856
H29   H     H_    0.571492 0.465365 0.871232 0.247155
C65   C     C_3   0.529743 0.328678 0.780662 -0.519747
H30   H     H_    0.475865 0.319968 0.788465 0.181142
H31   H     H_    0.542802 0.205600 0.750848 0.191183
H32   H     H_    0.536670 0.454295 0.750432 0.184542
N6    N     N_2   0.426658 0.660228 0.153785 -0.505855
H33   H     H_    0.428502 0.534632 0.128760 0.247155
C66   C     C_3   0.470254 0.671297 0.219333 -0.519744
H34   H     H_    0.524132 0.679999 0.211530 0.181139
H35   H     H_    0.463324 0.545677 0.249560 0.184541
H36   H     H_    0.457199 0.794373 0.249150 0.191185
N7    N     N_2   0.967391 0.426596 0.711911 -0.532067
H37   H     H_    0.995136 0.307202 0.721910 0.248680
C67   C     C_3   0.993866 0.583578 0.753797 -0.570482
H38   H     H_    0.041766 0.633027 0.737676 0.195591
H39   H     H_    0.004332 0.542965 0.808555 0.193653
H40   H     H_    0.956414 0.698144 0.749283 0.208150
N8    N     N_2   0.032609 0.573403 0.288088 -0.532067
H41   H     H_    0.004863 0.692798 0.278089 0.248680
C68   C     C_3   0.006134 0.416422 0.246203 -0.570480
H42   H     H_    0.958234 0.366972 0.262323 0.195591
H43   H     H_    0.043586 0.301856 0.250717 0.208150
H44   H     H_    0.995668 0.457034 0.191445 0.193652
H45   H     H_    0.649967 0.761942 0.918669 0.148083
H46   H     H_    0.350034 0.238059 0.081332 0.148083
H47   H     H_    0.812229 0.625830 0.532026 0.124334
H48   H     H_    0.187771 0.374170 0.467974 0.124334
H49   H     H_    0.603151 0.591650 0.006065 0.125545
H50   H     H_    0.396848 0.408349 0.993934 0.125544
H51   H     H_    0.839335 0.661358 0.415424 0.122244
H52   H     H_    0.160665 0.338642 0.584576 0.122244

loop_
_geom_bond_atom_site_label_1
_geom_bond_atom_site_label_2
_ccdc_geom_bond_type
O17   V3    S    
C24   H3    S    
C55   C59   A    
C30   C34   A    
O1    C5    A    
C59   H7    S    
O19   V1    S    
C18   H9    S    
O13   V1    S    
C45   C46   A    
O3    C7    A    
C63   H22   S    
C44   C48   A    
O15   V3    S    
C64   H27   S    
C13   N1    S    
N1    H13   S    
C67   H38   S    
C5    C12   S    
O18   V4    S    
C6    C11   S    
C62   H19   S    
O5    C1    A    
C9    C18   A    
C36   C40   A    
O9    V1    S    
C14   C18   A    
C52   C59   A    
N3    C63   S    
O4    C8    A    
C37   C41   A    
C65   H31   S    
C16   N4    S    
N4    H25   S    
O1    V3    S    
C12   C23   A    
O2    V4    S    
O3    V1    S    
C1    O15   A    
C32   C52   A    
C17   H10   S    
C2    O16   A    
N4    C64   S    
O2    C6    A    
C41   C45   A    
O14   V2    S    
C16   C20   A    
C43   C55   A    
C40   H48   S    
C40   C44   A    
C66   H36   S    
O11   C7    A    
C15   C28   A    
C30   N6    S    
O12   C8    A    
C9    C22   A    
C10   C17   A    
O10   V2    S    
C11   C24   A    
C51   C60   A    
N1    C61   S    
O5    V1    S    
C55   H51   S    
C62   H20   S    
C35   C39   A    
O7    V3    S    
C34   C38   A    
C27   C28   A    
O8    V4    S    
C29   C49   A    
C65   H30   S    
C24   C28   A    
C63   H23   S    
C58   H6    S    
C68   H44   S    
C31   C51   A    
C14   C25   A    
C57   H5    S    
C65   H32   S    
C23   C27   A    
C3    C33   S    
C54   C58   A    
C31   N7    S    
C56   C60   A    
O7    C3    A    
C47   C48   A    
N6    C66   S    
C42   C46   A    
C14   N2    S    
C4    C34   S    
C61   H14   S    
C21   C25   A    
O8    C4    A    
C7    C10   S    
C4    O14   A    
C19   H12   S    
O9    C5    A    
N2    C62   S    
C10   C21   A    
C60   H8    S    
O11   V3    S    
C11   C20   A    
N5    H29   S    
C44   C56   A    
C67   H40   S    
C56   H52   S    
C50   C57   A    
C61   H15   S    
C49   C58   A    
C39   H47   S    
N7    H37   S    
C64   H28   S    
C37   H45   S    
N6    H33   S    
C38   H46   S    
C66   H34   S    
O16   V4    S    
C67   H39   S    
C3    O13   A    
O6    V2    S    
C1    C35   S    
C2    C36   S    
C48   C52   A    
C54   H50   S    
C21   H2    S    
C15   C19   A    
N8    H41   S    
C29   C33   A    
O12   V4    S    
C16   C27   A    
C62   H18   S    
C22   C26   A    
C31   C35   A    
C8    C9    S    
C32   C36   A    
O10   C6    A    
C68   H43   S    
C20   H11   S    
C64   H26   S    
C43   C47   A    
C13   C26   A    
N8    C68   S    
C38   C42   A    
C53   H49   S    
C22   H1    S    
O20   V2    S    
C63   H24   S    
C39   C43   A    
C13   C17   A    
C42   C54   A    
O4    V2    S    
N5    C65   S    
C41   C53   A    
O6    C2    A    
C30   C50   A    
C32   N8    S    
C29   N5    S    
C33   C37   A    
C15   N3    S    
C61   H16   S    
C25   C26   A    
C46   C50   A    
N3    H21   S    
N2    H17   S    
N7    C67   S    
C45   C49   A    
C12   C19   A    
C68   H42   S    
C47   C51   A    
C53   C57   A    
C23   H4    S    
C66   H35   S    
