data_mof_unit_13466.cif
_audit_creation_date              2012-12-10T16:58:22-0500
_audit_creation_method            fapswitch 2.2
_symmetry_space_group_name_H-M    P1
_symmetry_Int_Tables_number       1
_space_group_crystal_system       triclinic
_cell_length_a                    7.815579
_cell_length_b                    8.907385
_cell_length_c                    23.178318
_cell_angle_alpha                 91.812434
_cell_angle_beta                  86.160416
_cell_angle_gamma                 92.761385
_cell_volume                      1607.44599443

loop_
_atom_site_label
_atom_site_type_symbol
_atom_type_description
_atom_site_fract_x
_atom_site_fract_y
_atom_site_fract_z
_atom_type_partial_charge
C1    C     C_R   0.543936 0.793400 0.497717 0.943966
C2    C     C_R   0.486467 0.321843 0.305923 -0.099375
C3    C     C_R   0.515215 0.634702 0.765835 -0.069861
C4    C     C_R   0.506927 0.292903 0.246153 -0.045534
C5    C     C_R   0.538178 0.497523 0.792137 0.140503
C6    C     C_R   0.514526 0.412553 0.208451 0.143694
C7    C     C_2   0.567008 0.953574 0.493520 -0.265433
C8    C     C_2   0.432257 0.045955 0.504571 -0.285018
C9    C     C_R   0.502443 0.499445 0.610433 0.962204
C10   C     C_R   0.497804 0.498899 0.389502 0.915092
C11   C     C_R   0.388352 0.342948 0.119156 0.586749
C12   C     C_R   0.455842 0.206447 0.501414 0.933730
C13   C     C_R   0.686437 0.514168 0.879802 0.664489
C14   C     C_R   0.684095 0.420873 0.118698 0.637541
C15   C     C_R   0.389871 0.437447 0.882523 0.590866
C16   C     C_R   0.690770 0.450150 0.059306 -0.112027
C17   C     C_R   0.393122 0.391871 0.939849 -0.102062
C18   C     C_R   0.543618 0.406182 0.028957 -0.057569
C19   C     C_R   0.542209 0.432818 0.969620 -0.065956
C20   C     C_R   0.395837 0.338521 0.058445 -0.100802
C21   C     C_R   0.688280 0.503071 0.940108 -0.103983
C22   C     C_R   0.831704 0.531035 0.030768 0.141118
C23   C     C_R   0.547439 0.363556 0.759311 0.188997
C24   C     C_R   0.256428 0.304260 0.967478 0.141867
C25   C     C_R   0.828848 0.559650 0.971326 0.177146
C26   C     C_R   0.259015 0.276127 0.026868 0.168853
C27   C     C_2   0.473470 0.217211 0.671346 0.951792
C28   C     C_2   0.536432 0.748814 0.310805 1.019711
C29   C     C_2   0.556539 0.782004 0.675300 0.948473
C30   C     C_2   0.472273 0.195853 0.346090 0.891886
C31   C     C_2   0.469789 0.770235 0.801752 1.038366
C32   C     C_2   0.531499 0.139965 0.222248 0.958982
C33   C     C_2   0.745744 0.003313 0.474841 1.071966
C34   C     C_R   0.504408 0.561042 0.229546 0.182017
C35   C     C_2   0.252863 0.995695 0.522276 1.045028
C36   C     C_R   0.515584 0.362213 0.700862 -0.117024
C37   C     C_R   0.504948 0.592581 0.289172 -0.123161
C38   C     C_R   0.510124 0.499839 0.672960 -0.209614
C39   C     C_R   0.490584 0.471925 0.327387 -0.197720
C40   C     C_R   0.520577 0.637389 0.704937 -0.117152
H1    H     H_    0.322955 0.026325 0.673128 0.406172
H2    H     H_    0.683971 0.940443 0.304079 0.386950
H3    H     H_    0.705876 0.972903 0.670171 0.376214
H4    H     H_    0.318674 0.035267 0.384472 0.376313
H5    H     H_    0.490466 0.889511 0.876735 0.365800
H6    H     H_    0.684341 0.004355 0.172084 0.383350
H7    H     H_    0.938559 0.990583 0.412490 0.387252
H8    H     H_    0.057062 0.008514 0.583544 0.380421
I1    I     I_    0.040205 0.633687 0.077112 -0.115138
I2    I     I_    0.054865 0.194954 0.919722 -0.104572
I3    I     I_    0.023430 0.713457 0.932686 -0.087243
I4    I     I_    0.066601 0.121759 0.065958 -0.081847
I5    I     I_    0.619263 0.165673 0.799228 -0.127013
I6    I     I_    0.470322 0.730251 0.169028 -0.159367
I7    I     I_    0.037621 0.325574 0.415073 -0.042886
I8    I     I_    0.960360 0.677374 0.584121 -0.084037
N1    N     N_R   0.530832 0.384750 0.147316 -0.353809
N2    N     N_R   0.536993 0.488717 0.853499 -0.349163
N3    N     N_2   0.950330 0.457950 0.484560 0.028451
N4    N     N_2   0.049670 0.542050 0.515440 0.023441
O1    O     O_R   0.389250 0.738570 0.503790 -0.578796
O2    O     O_2   0.831609 0.544765 0.846810 -0.448070
O3    O     O_2   0.825796 0.431024 0.148787 -0.434538
O4    O     O_2   0.242977 0.431557 0.855149 -0.462536
O5    O     O_2   0.546866 0.182708 0.625008 -0.629484
O6    O     O_R   0.346443 0.120688 0.697172 -0.695307
O7    O     O_2   0.453768 0.796463 0.353498 -0.617077
O8    O     O_R   0.667682 0.838880 0.283832 -0.732862
O9    O     O_2   0.484856 0.809035 0.631800 -0.643343
O10   O     O_R   0.680004 0.884591 0.696284 -0.744599
O11   O     O_2   0.593569 0.169879 0.374145 -0.622739
O12   O     O_R   0.610750 0.261430 0.496210 -0.564446
O13   O     O_R   0.319751 0.107936 0.351758 -0.711486
O14   O     O_2   0.366350 0.855205 0.785046 -0.545945
O15   O     O_R   0.538914 0.798362 0.855339 -0.777011
O16   O     O_2   0.425549 0.038952 0.234473 -0.529849
O17   O     O_R   0.676300 0.113077 0.185275 -0.737583
O18   O     O_2   0.837575 0.068546 0.509180 -0.582176
O19   O     O_R   0.812727 0.960007 0.419694 -0.738099
O20   O     O_2   0.163011 0.929961 0.487453 -0.600299
O21   O     O_R   0.183245 0.038442 0.577083 -0.757827
O22   O     O_R   0.678390 0.711620 0.493890 -0.616986
O23   O     O_R   0.321610 0.288380 0.506110 -0.622669
O24   O     O_R   0.355400 0.513520 0.588790 -0.585535
O25   O     O_R   0.644600 0.486480 0.411210 -0.590534
O26   O     O_R   0.644550 0.486570 0.578900 -0.599930
O27   O     O_R   0.355450 0.513430 0.421100 -0.596181
O28   O     O_2   0.239146 0.315727 0.150419 -0.444942
Zn1   Zn    Zn3+2 0.306930 0.518000 0.506610 1.112209
Zn2   Zn    Zn3+2 0.693070 0.482000 0.493390 1.116614

loop_
_geom_bond_atom_site_label_1
_geom_bond_atom_site_label_2
_ccdc_geom_bond_type
C10   O25   A    
I7    N3    S    
C34   C37   A    
H7    O19   S    
C30   O11   D    
C35   O21   S    
C7    C8    D    
N4    Zn1   S    
C5    N2    S    
C19   C21   A    
C24   C26   A    
C33   O18   D    
C35   O20   D    
H8    O21   S    
C18   C19   A    
C32   O17   S    
C2    C39   A    
C13   O2    S    
C22   C25   A    
C15   O4    S    
C12   O12   A    
N3    N4    D    
H2    O8    S    
C7    C33   S    
C6    N1    S    
O23   Zn1   S    
O1    Zn1   S    
C23   I5    S    
C29   O9    D    
C24   I2    S    
C11   C20   A    
C10   O27   A    
C17   C24   A    
C28   O7    D    
C4    C6    A    
O26   Zn2   S    
C30   O13   S    
C33   O19   S    
C31   O14   D    
C13   N2    A    
C1    O22   A    
I8    N4    S    
C12   O23   A    
C10   C39   S    
C8    C35   S    
C2    C4    A    
C25   I3    S    
C27   O5    D    
C26   I4    S    
C9    O26   A    
O12   Zn2   S    
C31   O15   S    
C5    C23   A    
C11   O28   S    
C8    C12   S    
C13   C21   A    
C3    C31   S    
C4    C32   S    
C22   I1    S    
C3    C40   A    
C34   I6    S    
H3    O10   S    
O27   Zn1   S    
C15   N2    A    
C14   C16   A    
O24   Zn1   S    
C29   O10   S    
C15   C17   A    
C14   N1    A    
C21   C25   A    
C16   C22   A    
C28   O8    S    
C1    C7    S    
C3    C5    A    
C1    O1    A    
C32   O16   D    
H6    O17   S    
O25   Zn2   S    
H1    O6    S    
C27   C36   S    
O22   Zn2   S    
C2    C30   S    
H5    O15   S    
C36   C38   A    
C37   C39   A    
C27   O6    S    
C38   C40   A    
C20   C26   A    
C28   C37   S    
C14   O3    S    
C29   C40   S    
C9    C38   S    
C17   C19   A    
C18   C20   A    
H4    O13   S    
C9    O24   A    
C6    C34   A    
C16   C18   A    
C23   C36   A    
C11   N1    A    
N3    Zn2   S    
