data_mof_unit_17303.cif
_audit_creation_date              2013-03-05T16:00:02-0500
_audit_creation_method            fapswitch 2.2
_symmetry_space_group_name_H-M    P1
_symmetry_Int_Tables_number       1
_space_group_crystal_system       triclinic
_cell_length_a                    20.803605
_cell_length_b                    21.017119
_cell_length_c                    14.741737
_cell_angle_alpha                 89.6351
_cell_angle_beta                  128.401292
_cell_angle_gamma                 90.06103
_cell_volume                      5051.11362051

loop_
_atom_site_label
_atom_site_type_symbol
_atom_site_description
_atom_site_fract_x
_atom_site_fract_y
_atom_site_fract_z
_atom_type_partial_charge
O1    O     O_R   0.600040 0.935040 0.546740 -0.556022
O2    O     O_R   0.399960 0.064960 0.453260 -0.554899
O3    O     O_R   0.399960 0.935040 0.453260 -0.540387
O4    O     O_R   0.600040 0.064960 0.546740 -0.544136
O5    O     O_R   0.100040 0.435040 0.546740 -0.555473
O6    O     O_R   0.899960 0.564960 0.453260 -0.556465
O7    O     O_R   0.899960 0.435040 0.453260 -0.541453
O8    O     O_R   0.100040 0.564960 0.546740 -0.546470
O9    O     O_R   0.555010 0.935070 0.653220 -0.482284
O10   O     O_R   0.444990 0.064930 0.346780 -0.511439
O11   O     O_R   0.444990 0.935070 0.346780 -0.497161
O12   O     O_R   0.555010 0.064930 0.653220 -0.537676
O13   O     O_R   0.055010 0.435070 0.653220 -0.478763
O14   O     O_R   0.944990 0.564930 0.346780 -0.509951
O15   O     O_R   0.944990 0.435070 0.346780 -0.501169
O16   O     O_R   0.055010 0.564930 0.653220 -0.537142
C1    C     C_R   0.604178 0.914575 0.633593 0.876629
C2    C     C_R   0.399343 0.088621 0.370664 0.827772
C3    C     C_R   0.398701 0.912143 0.370130 0.849162
C4    C     C_R   0.604078 0.085342 0.632984 0.851661
C5    C     C_R   0.104387 0.414665 0.633837 0.877748
C6    C     C_R   0.898518 0.588001 0.369798 0.830917
C7    C     C_R   0.897808 0.412697 0.369061 0.845867
C8    C     C_R   0.104366 0.585147 0.633274 0.855483
Cu1   Cu    Cu3+1 0.526640 1.000000 0.436960 1.149488
Cu2   Cu    Cu3+1 0.473360 1.000000 0.563040 1.138190
Cu3   Cu    Cu3+1 0.026640 0.500000 0.436960 1.148001
Cu4   Cu    Cu3+1 0.973360 0.500000 0.563040 1.139656
C9    C     C_R   0.659965 0.137598 0.702648 -0.174277
C10   C     C_R   0.339557 0.861906 0.295025 -0.189050
C11   C     C_R   0.345877 0.144140 0.303444 -0.192048
C12   C     C_R   0.675204 0.876888 0.725052 -0.156864
C13   C     C_R   0.162319 0.636042 0.705162 -0.178153
C14   C     C_R   0.836900 0.363639 0.291984 -0.187640
C15   C     C_R   0.841766 0.641251 0.299277 -0.187339
C16   C     C_R   0.175954 0.377199 0.725397 -0.155607
C17   C     C_R   0.715554 0.239227 0.705431 -0.032313
C18   C     C_R   0.219613 0.799167 0.228702 -0.021481
C19   C     C_R   0.223758 0.204512 0.234943 -0.047704
C20   C     C_R   0.823030 0.876433 0.868394 -0.040951
C21   C     C_R   0.228134 0.733714 0.715986 -0.030917
C22   C     C_R   0.717154 0.300677 0.227071 -0.001568
C23   C     C_R   0.712464 0.693572 0.219090 -0.052213
C24   C     C_R   0.324359 0.374385 0.862480 -0.041424
C25   C     C_R   0.675345 0.183264 0.648817 -0.178568
C26   C     C_R   0.276706 0.845831 0.300890 -0.157207
C27   C     C_R   0.280477 0.157095 0.304877 -0.182447
C28   C     C_R   0.752467 0.894463 0.760131 -0.168590
C29   C     C_R   0.183947 0.679507 0.655946 -0.169497
C30   C     C_R   0.774664 0.347276 0.299177 -0.163265
C31   C     C_R   0.772464 0.649082 0.293538 -0.182117
C32   C     C_R   0.252522 0.394148 0.757099 -0.174999
C33   C     C_R   0.689927 0.146698 0.817642 0.387772
C34   C     C_R   0.343534 0.830714 0.214183 0.416609
C35   C     C_R   0.358040 0.183456 0.236594 0.374995
C36   C     C_R   0.669254 0.835262 0.794763 0.398240
C37   C     C_R   0.190870 0.645073 0.819381 0.387651
C38   C     C_R   0.838545 0.334029 0.207867 0.415307
C39   C     C_R   0.854089 0.682756 0.235208 0.375561
C40   C     C_R   0.171727 0.336022 0.797442 0.402871
C41   C     C_R   0.711649 0.209319 0.862220 -0.013248
C42   C     C_R   0.275283 0.795427 0.125064 -0.000845
C43   C     C_R   0.302917 0.234875 0.170504 0.011277
C44   C     C_R   0.739010 0.827167 0.912617 0.011316
C45   C     C_R   0.215470 0.707194 0.865657 -0.014362
C46   C     C_R   0.770253 0.298228 0.120185 -0.005783
C47   C     C_R   0.795226 0.731375 0.164475 0.012421
C48   C     C_R   0.243687 0.326625 0.913424 0.007461
C49   C     C_R   0.733028 0.253607 0.811597 -0.117509
C50   C     C_R   0.218549 0.772698 0.140385 -0.106948
C51   C     C_R   0.232243 0.242263 0.164121 -0.093479
C52   C     C_R   0.817356 0.845675 0.948115 -0.102690
C53   C     C_R   0.241727 0.749673 0.819078 -0.120710
C54   C     C_R   0.715797 0.273933 0.138608 -0.100634
C55   C     C_R   0.721357 0.733569 0.151002 -0.096970
C56   C     C_R   0.321354 0.341284 0.942885 -0.104480
C57   C     C_R   0.711516 0.229805 0.953761 -0.123371
C58   C     C_R   0.264191 0.780690 0.022881 -0.171616
C59   C     C_R   0.311621 0.275687 0.101533 -0.169645
C60   C     C_R   0.733293 0.800578 0.996053 -0.153813
C61   C     C_R   0.214968 0.728355 0.956412 -0.123592
C62   C     C_R   0.757270 0.284079 0.016613 -0.169531
C63   C     C_R   0.804275 0.774661 0.098753 -0.174605
C64   C     C_R   0.240602 0.303102 0.001059 -0.152313
C65   C     C_R   0.292975 0.821486 0.978515 0.632081
C66   C     C_R   0.660525 0.202163 0.976513 0.604824
C67   C     C_R   0.661389 0.804781 0.986121 0.648275
C68   C     C_R   0.388374 0.293584 0.132769 0.663223
C69   C     C_R   0.780154 0.327131 0.967264 0.629202
C70   C     C_R   0.160989 0.702954 0.975419 0.611791
C71   C     C_R   0.171932 0.312370 0.997802 0.647165
C72   C     C_R   0.881114 0.797282 0.136450 0.670719
C73   C     C_R   0.280155 0.807166 0.876022 0.273201
C74   C     C_R   0.660743 0.224966 0.066316 0.276341
C75   C     C_R   0.656602 0.774041 0.066298 0.224136
C76   C     C_R   0.393832 0.325891 0.054395 0.262057
C77   C     C_R   0.766866 0.312700 0.864583 0.265705
C78   C     C_R   0.161301 0.725663 0.065145 0.258130
C79   C     C_R   0.169653 0.285269 0.082872 0.227783
C80   C     C_R   0.887986 0.833522 0.062826 0.252779
H1    H     H_    0.272911 0.868025 0.363550 0.224937
H2    H     H_    0.654807 0.176277 0.561698 0.220439
H3    H     H_    0.758260 0.924963 0.706066 0.230465
H4    H     H_    0.270249 0.127998 0.355742 0.227432
H5    H     H_    0.771878 0.369014 0.363086 0.223692
H6    H     H_    0.166271 0.671806 0.570540 0.219975
H7    H     H_    0.257022 0.425468 0.702655 0.233771
H8    H     H_    0.761996 0.618012 0.342087 0.231572
H9    H     H_    0.247305 0.764388 0.677650 0.215665
H10   H     H_    0.672409 0.287678 0.238765 0.235057
H11   H     H_    0.657470 0.694201 0.211895 0.216658
H12   H     H_    0.381787 0.389502 0.883237 0.212173
H13   H     H_    0.727345 0.272842 0.661476 0.215297
H14   H     H_    0.174823 0.786013 0.240038 0.238838
H15   H     H_    0.171123 0.209056 0.232972 0.217937
H16   H     H_    0.881521 0.889770 0.890823 0.206884
N1    N     N_R   0.433280 0.000000 0.657760 -0.304449
N2    N     N_R   0.566720 1.000000 0.342240 -0.297688
N3    N     N_R   0.933280 0.500000 0.657760 -0.304246
N4    N     N_R   0.066720 0.500000 0.342240 -0.297482
C81   C     C_R   0.320792 0.016478 0.660482 0.183631
C82   C     C_R   0.679726 0.010757 0.339158 0.179547
C83   C     C_R   0.822540 0.521337 0.662414 0.185366
C84   C     C_R   0.180778 0.506446 0.340612 0.182667
C85   C     C_R   0.351715 0.007429 0.600410 0.613545
C86   C     C_R   0.648542 0.004027 0.399415 0.635528
C87   C     C_R   0.852153 0.509447 0.601359 0.616051
C88   C     C_R   0.148786 0.501699 0.400084 0.634030
C89   C     C_R   0.487483 0.998402 0.775732 0.772622
C90   C     C_R   0.512002 0.002073 0.224319 0.788786
C91   C     C_R   0.987900 0.497875 0.775759 0.779506
C92   C     C_R   0.012515 0.503826 0.224351 0.781767
C93   C     C_R   0.461166 0.009656 0.843781 -0.172411
C94   C     C_R   0.538857 0.010052 0.156013 -0.176110
C95   C     C_R   0.962842 0.510891 0.844923 -0.173364
C96   C     C_R   0.040385 0.510408 0.157094 -0.173715
C97   C     C_R   0.375375 0.017384 0.783211 -0.247006
C98   C     C_R   0.625099 0.012539 0.216423 -0.239934
C99   C     C_R   0.877804 0.522669 0.785106 -0.252971
C100  C     C_R   0.126663 0.509117 0.217959 -0.231605
C101  C     C_R   0.516071 0.012561 0.968645 0.058903
C102  C     C_R   0.484170 0.014518 0.031132 0.060366
C103  C     C_R   0.018114 0.512164 0.970049 0.059584
C104  C     C_R   0.986442 0.516900 0.032616 0.046177
C105  C     C_R   0.399171 0.024195 0.966602 -0.060380
C106  C     C_R   0.601620 0.017156 0.033026 -0.086101
C107  C     C_R   0.902868 0.532150 0.969083 -0.072533
C108  C     C_R   0.103972 0.512106 0.035007 -0.079866
C109  C     C_R   0.346133 0.025179 0.846588 0.745552
C110  C     C_R   0.654755 0.016502 0.152964 0.714997
C111  C     C_R   0.850003 0.535289 0.849179 0.751306
C112  C     C_R   0.156800 0.510205 0.154983 0.713988
H17   H     H_    0.370928 0.034574 0.005788 0.249846
H18   H     H_    0.630351 0.024978 0.993605 0.264412
H19   H     H_    0.876503 0.545839 0.009723 0.249944
H20   H     H_    0.133695 0.517113 0.996542 0.263370
N5    N     N_R   0.305842 0.852019 0.830524 0.150984
O17   O     O_R   0.380114 0.874380 0.897182 -0.260640
O18   O     O_R   0.252182 0.877536 0.728846 -0.291368
N6    N     N_R   0.608079 0.195611 0.086482 0.157466
O19   O     O_R   0.532599 0.181818 0.999811 -0.264209
O20   O     O_R   0.638481 0.174341 0.189147 -0.319373
N7    N     N_R   0.584565 0.782611 0.057953 0.150782
O21   O     O_R   0.512054 0.779476 0.957857 -0.224195
O22   O     O_R   0.591445 0.801505 0.147521 -0.299707
N8    N     N_R   0.473402 0.341719 0.088853 0.147618
O23   O     O_R   0.527070 0.369596 0.187320 -0.240561
O24   O     O_R   0.496337 0.320265 0.030314 -0.331163
N9    N     N_R   0.785635 0.359512 0.813178 0.141285
O25   O     O_R   0.747410 0.413894 0.779572 -0.236197
O26   O     O_R   0.843329 0.349088 0.804664 -0.295780
N10   N     N_R   0.105536 0.698607 0.081354 0.148435
O27   O     O_R   0.028805 0.690397 0.993044 -0.280208
O28   O     O_R   0.133489 0.673813 0.180882 -0.318466
N11   N     N_R   0.102530 0.300333 0.083516 0.144890
O29   O     O_R   0.027882 0.302815 0.986991 -0.210956
O30   O     O_R   0.117034 0.320024 0.178175 -0.318410
N12   N     N_R   0.966703 0.858604 0.106740 0.156625
O31   O     O_R   0.031983 0.823221 0.171507 -0.263051
O32   O     O_R   0.975052 0.919139 0.097607 -0.280047
N13   N     N_R   0.421863 0.818152 0.241066 0.133472
O33   O     O_R   0.450640 0.760341 0.267669 -0.273873
O34   O     O_R   0.458577 0.860487 0.223204 -0.229584
N14   N     N_R   0.712453 0.092409 0.893772 0.172280
O35   O     O_R   0.761499 0.099930 0.005529 -0.266700
O36   O     O_R   0.702663 0.034702 0.855727 -0.307612
N15   N     N_R   0.598772 0.793934 0.742352 0.169846
O37   O     O_R   0.608940 0.735846 0.780463 -0.273016
O38   O     O_R   0.528040 0.809154 0.645419 -0.307199
N16   N     N_R   0.418933 0.166214 0.223840 0.156186
O39   O     O_R   0.396685 0.150138 0.122899 -0.334551
O40   O     O_R   0.496652 0.167874 0.312252 -0.294081
N17   N     N_R   0.915557 0.323644 0.229795 0.131382
O41   O     O_R   0.948804 0.267319 0.262087 -0.276241
O42   O     O_R   0.946722 0.366175 0.202946 -0.231520
N18   N     N_R   0.210404 0.590562 0.893864 0.169140
O43   O     O_R   0.257086 0.597482 0.005653 -0.277648
O44   O     O_R   0.201380 0.533032 0.855514 -0.314710
N19   N     N_R   0.100119 0.296461 0.749153 0.172013
O45   O     O_R   0.108952 0.239802 0.791843 -0.276217
O46   O     O_R   0.029720 0.310593 0.650834 -0.305481
N20   N     N_R   0.920375 0.670704 0.231299 0.157303
O47   O     O_R   0.904909 0.656512 0.133690 -0.333954
O48   O     O_R   0.996223 0.674339 0.324923 -0.290939
F1    F     F_    0.320521 0.880677 0.022613 -0.573110
F2    F     F_    0.605693 0.156275 0.906245 -0.637926
F3    F     F_    0.599376 0.844644 0.906974 -0.576567
F4    F     F_    0.457620 0.286130 0.243519 -0.567539
F5    F     F_    0.804548 0.387083 0.009114 -0.571763
F6    F     F_    0.103692 0.659119 0.902083 -0.634304
F7    F     F_    0.111389 0.353621 0.920224 -0.576303
F8    F     F_    0.947420 0.792938 0.250005 -0.559808
F9    F     F_    0.265031 0.032205 0.793802 -0.550816
F10   F     F_    0.736214 0.018375 0.205595 -0.560155
F11   F     F_    0.770532 0.550205 0.797097 -0.546019
F12   F     F_    0.238321 0.507556 0.208090 -0.564008
F13   F     F_    0.432300 0.993305 0.176025 -0.591052
F14   F     F_    0.565582 0.982116 0.824439 -0.589155
F15   F     F_    0.932137 0.497658 0.174602 -0.591823
F16   F     F_    0.065310 0.480307 0.823292 -0.584805
F17   F     F_    0.700570 0.003812 0.516775 -0.608417
F18   F     F_    0.299676 0.007869 0.483031 -0.605401
F19   F     F_    0.200412 0.500945 0.517422 -0.613423
F20   F     F_    0.799396 0.509451 0.484002 -0.611747
N21   N     N_R   0.234467 0.027406 0.594895 0.235747
O49   O     O_R   0.182657 0.985241 0.520434 -0.184787
O50   O     O_R   0.208072 0.084163 0.591459 -0.222327
N22   N     N_R   0.766486 0.018626 0.404493 0.229420
O51   O     O_R   0.816503 0.975887 0.480985 -0.232048
O52   O     O_R   0.795305 0.073672 0.404786 -0.194288
N23   N     N_R   0.736648 0.533674 0.597791 0.236078
O53   O     O_R   0.683901 0.489713 0.531250 -0.197846
O54   O     O_R   0.711241 0.591934 0.585865 -0.221221
N24   N     N_R   0.267944 0.511551 0.406686 0.227580
O55   O     O_R   0.315753 0.468367 0.484014 -0.233627
O56   O     O_R   0.299520 0.564915 0.406226 -0.199206

loop_
_geom_bond_atom_site_label_1
_geom_bond_atom_site_label_2
_geom_bond_distance
_ccdc_geom_bond_type
O16   Cu4   1.930714 S    
O1    Cu1   1.928980 S    
C18   C50   1.406563 A    
C47   C63   1.420123 A    
N5    O17   1.300760 A    
C17   C49   1.404251 A    
O2    C2    1.304959 A    
N9    O26   1.300916 A    
N9    O25   1.299788 A    
C54   C74   1.414823 A    
N7    O21   1.301131 A    
C39   N20   1.438321 S    
Cu2   N1    2.022726 S    
C53   C73   1.407484 A    
C93   C97   1.424076 A    
C96   C100  1.423551 A    
C80   N12   1.436716 S    
Cu1   N2    2.022724 S    
C66   F2    1.358981 S    
N22   O52   1.301262 A    
O4    Cu1   1.941227 S    
C86   F17   1.355828 S    
C65   F1    1.358156 S    
N11   O30   1.301369 A    
C5    C16   1.466613 S    
C43   C59   1.421129 A    
Cu3   N4    2.022724 S    
C98   C110  1.406642 A    
C95   C99   1.424332 A    
C6    C15   1.479995 S    
C112  F12   1.357342 S    
O11   C3    1.298741 A    
N16   O39   1.301195 A    
C62   C69   1.412636 A    
N20   O48   1.302346 A    
N24   O56   1.301285 A    
N7    O22   1.301311 A    
O12   Cu2   1.930714 S    
C60   C67   1.412401 A    
C91   C95   1.431884 A    
C60   C63   1.408262 A    
C59   C64   1.407474 A    
C18   H14   1.079308 S    
C14   C38   1.410222 A    
C17   H13   1.081878 S    
O11   Cu1   1.930717 S    
C13   C29   1.399856 A    
C103  C104  1.432173 A    
C46   C54   1.413197 A    
C83   C99   1.418156 A    
C81   N21   1.433070 S    
N14   O35   1.301889 A    
C42   C50   1.414518 A    
C15   C39   1.417215 A    
C81   C97   1.418187 A    
C24   C56   1.405109 A    
N22   O51   1.300974 A    
C105  C109  1.386510 A    
C66   C74   1.408168 A    
C40   N19   1.450779 S    
C39   C47   1.426091 A    
C106  C110  1.385607 A    
C65   C73   1.396277 A    
C38   C46   1.408565 A    
O6    Cu4   1.928979 S    
N11   O29   1.301200 A    
C32   H7    1.082932 S    
C41   C57   1.420730 A    
C31   H8    1.083251 S    
N17   O42   1.299653 A    
C35   C43   1.425973 A    
O16   C8    1.301470 A    
C30   H5    1.083095 S    
N3    C91   1.364768 A    
C50   C78   1.412884 A    
C36   C44   1.420519 A    
O13   Cu4   1.921282 S    
O3    C3    1.304472 A    
C64   C71   1.412926 A    
O14   Cu3   1.921282 S    
C107  H19   1.073913 S    
C100  C112  1.406515 A    
C16   C32   1.399530 A    
C84   C88   1.394710 A    
C105  H17   1.072410 S    
O15   C7    1.300008 A    
C24   C32   1.388581 A    
C95   C103  1.446002 A    
N19   O45   1.301965 A    
N5    O18   1.301083 A    
O5    Cu3   1.928980 S    
N8    O24   1.301006 A    
C20   H16   1.081290 S    
C12   C28   1.398552 A    
C102  C105  1.407717 A    
C97   C109  1.406418 A    
C90   C94   1.432020 A    
C33   C41   1.417420 A    
C68   F4    1.356699 S    
C104  C107  1.406112 A    
C44   C60   1.418505 A    
C88   F19   1.355551 S    
C21   C29   1.387875 A    
C59   C68   1.410889 A    
N10   O28   1.301282 A    
O9    Cu2   1.921282 S    
N12   O31   1.300460 A    
C4    C9    1.463190 S    
N13   O34   1.299928 A    
C23   C55   1.402835 A    
C103  C108  1.407980 A    
N21   O50   1.301167 A    
C26   H1    1.083158 S    
C22   C54   1.407482 A    
C14   C30   1.405328 A    
N20   O47   1.301185 A    
C37   N18   1.453931 S    
C55   C75   1.413035 A    
C48   C64   1.418562 A    
C35   N16   1.438459 S    
C110  F10   1.357257 S    
C82   C98   1.418203 A    
C71   F7    1.358726 S    
C45   C53   1.422692 A    
C70   F6    1.359340 S    
C72   C80   1.400203 A    
C69   F5    1.358451 S    
C34   C42   1.408825 A    
Cu1   Cu2   2.691188 S    
N13   O33   1.300872 A    
C28   H3    1.083196 S    
C51   C79   1.413587 A    
O7    Cu4   1.941229 S    
C69   C77   1.394815 A    
C91   F16   1.347896 S    
N6    O20   1.301251 A    
C82   C86   1.394303 A    
C90   F13   1.350780 S    
C107  C111  1.386318 A    
C81   C85   1.394390 A    
C89   F14   1.349544 S    
N2    C90   1.363956 A    
C75   N7    1.436903 S    
C94   C102  1.445105 A    
C10   C34   1.410463 A    
O15   Cu3   1.930717 S    
C85   F18   1.356049 S    
C106  H18   1.073348 S    
C36   N15   1.449079 S    
C92   C96   1.431990 A    
C7    C14   1.477567 S    
C82   N22   1.433331 S    
O12   C4    1.300320 A    
N21   O49   1.300965 A    
C34   N13   1.442022 S    
O5    C5    1.299593 A    
N23   O54   1.301052 A    
C73   N5    1.435346 S    
C67   F3    1.359208 S    
C101  C106  1.407078 A    
C22   C30   1.396892 A    
C89   C93   1.430953 A    
C61   C70   1.418530 A    
C87   F20   1.355996 S    
C58   C65   1.414139 A    
O9    C1    1.298351 A    
C21   H9    1.081156 S    
C49   C77   1.405537 A    
C43   C51   1.422338 A    
C57   C66   1.418973 A    
C19   H15   1.081504 S    
C15   C31   1.400584 A    
N8    O23   1.301131 A    
C1    C12   1.463695 S    
C76   N8    1.437071 S    
C33   N14   1.453429 S    
C47   C55   1.422677 A    
N24   O55   1.301018 A    
C17   C25   1.386619 A    
C24   H12   1.080808 S    
C83   C87   1.394316 A    
Cu3   Cu4   2.691188 S    
N1    C89   1.363903 A    
N10   O27   1.301250 A    
O10   Cu1   1.921282 S    
C19   C27   1.387958 A    
C52   C80   1.411491 A    
C41   C49   1.422579 A    
C20   C28   1.388739 A    
C67   C75   1.400246 A    
C74   N6    1.438806 S    
C27   H4    1.083330 S    
C20   C52   1.405502 A    
N4    C92   1.364584 A    
C93   C101  1.444269 A    
N16   O40   1.302528 A    
C84   C100  1.417694 A    
O3    Cu2   1.941229 S    
C108  C112  1.386342 A    
C37   C45   1.417081 A    
N18   O43   1.301758 A    
C16   C40   1.410262 A    
Cu4   N3    2.022726 S    
O2    Cu2   1.928979 S    
C94   C98   1.424860 A    
N12   O32   1.301301 A    
N4    C88   1.354548 A    
C29   H6    1.083450 S    
O4    C4    1.296581 A    
C13   C37   1.409017 A    
C48   C56   1.422335 A    
C108  H20   1.072214 S    
C38   N17   1.440619 S    
O1    C1    1.299183 A    
C8    C13   1.464656 S    
C10   C26   1.403707 A    
C92   F15   1.352033 S    
C11   C35   1.420198 A    
N6    O19   1.301337 A    
O14   C6    1.302140 A    
C22   H10   1.081229 S    
C77   N9    1.432469 S    
C78   N10   1.437901 S    
N15   O37   1.301920 A    
C96   C104  1.443643 A    
C101  C102  1.432028 A    
O13   C5    1.299179 A    
C18   C26   1.394840 A    
C58   C61   1.408338 A    
C23   C31   1.387223 A    
C42   C58   1.411466 A    
C79   N11   1.437953 S    
C9    C33   1.410680 A    
C57   C62   1.407550 A    
O10   C2    1.300877 A    
O7    C7    1.304431 A    
C99   C111  1.406841 A    
O8    C8    1.295998 A    
N14   O36   1.301251 A    
C68   C76   1.400584 A    
C44   C52   1.422438 A    
C12   C36   1.408235 A    
C109  F9    1.357209 S    
N15   O38   1.300947 A    
N18   O44   1.301225 A    
C72   F8    1.357559 S    
C25   H2    1.083554 S    
C21   C53   1.405173 A    
C23   H11   1.081488 S    
C11   C27   1.400815 A    
C83   N23   1.432044 S    
C40   C48   1.421231 A    
C63   C72   1.410064 A    
N17   O41   1.300734 A    
C9    C25   1.399413 A    
N23   O53   1.300824 A    
N19   O46   1.300843 A    
O8    Cu3   1.941227 S    
C19   C51   1.403144 A    
C45   C61   1.418725 A    
C111  F11   1.357254 S    
C2    C11   1.483042 S    
N2    C86   1.353974 A    
C71   C79   1.401466 A    
C3    C10   1.474542 S    
N1    C85   1.354665 A    
C84   N24   1.433593 S    
C70   C78   1.405276 A    
C56   C76   1.412594 A    
C46   C62   1.409215 A    
N3    C87   1.354430 A    
O6    C6    1.302241 A    
