data_mof_unit_43533.cif
_audit_creation_date              2012-12-10T21:11:30-0500
_audit_creation_method            fapswitch 2.2
_symmetry_space_group_name_H-M    P1
_symmetry_Int_Tables_number       1
_space_group_crystal_system       triclinic
_cell_length_a                    17.532072
_cell_length_b                    16.665468
_cell_length_c                    10.688043
_cell_angle_alpha                 89.983467
_cell_angle_beta                  89.96448
_cell_angle_gamma                 90.027237
_cell_volume                      3122.83329663

loop_
_atom_site_label
_atom_site_type_symbol
_atom_type_description
_atom_site_fract_x
_atom_site_fract_y
_atom_site_fract_z
_atom_type_partial_charge
C1    C     C_R   0.352961 0.500012 0.501432 0.866535
C2    C     C_R   0.647042 0.500027 0.501516 0.868232
C3    C     C_R   0.885919 0.500589 0.550595 0.165694
C4    C     C_R   0.113982 0.500480 0.549119 0.165090
C5    C     C_1   0.966112 0.500724 0.558206 -0.070251
C6    C     C_1   0.033820 0.500694 0.557712 -0.070301
C7    C     C_R   0.441627 0.832255 0.561093 0.411979
C8    C     C_R   0.569320 0.167320 0.515391 0.347801
C9    C     C_R   0.556752 0.832501 0.435305 0.359889
C10   C     C_R   0.431673 0.166469 0.488103 0.341201
C11   C     C_R   0.444130 0.747783 0.562028 -0.121154
C12   C     C_R   0.567206 0.252372 0.511524 -0.179967
C13   C     C_R   0.555710 0.747848 0.437553 -0.157661
C14   C     C_R   0.433066 0.251643 0.489792 -0.172864
C15   C     C_R   0.499799 0.875558 0.499433 -0.126971
C16   C     C_R   0.500727 0.124353 0.501943 -0.059695
C17   C     C_1   0.500950 0.963363 0.501344 0.050991
C18   C     C_1   0.501120 0.036435 0.502007 0.102487
C19   C     C_R   0.488387 0.499973 0.259932 0.895327
C20   C     C_R   0.511442 0.499929 0.740155 0.896398
C21   C     C_R   0.458275 0.647255 0.109698 -0.387170
C22   C     C_R   0.539891 0.351673 0.888889 -0.286187
C23   C     C_R   0.542764 0.646837 0.890396 -0.387312
C24   C     C_R   0.458319 0.352100 0.111546 -0.287596
C25   C     C_R   0.477165 0.721277 0.052887 0.462780
C26   C     C_R   0.519526 0.278715 0.943943 0.396286
C27   C     C_R   0.523869 0.721326 0.946385 0.479897
C28   C     C_R   0.478133 0.278955 0.056718 0.394956
C29   C     C_R   0.516569 0.573342 0.940810 0.048885
C30   C     C_R   0.483088 0.425942 0.059758 0.016078
C31   C     C_R   0.483477 0.573482 0.059218 0.046792
C32   C     C_R   0.515683 0.425776 0.940423 0.015419
C33   C     C_R   0.522571 0.499617 0.875794 -0.166583
C34   C     C_R   0.476974 0.499816 0.124356 -0.167802
C35   C     C_R   0.847272 0.573384 0.540668 -0.163422
C36   C     C_R   0.152207 0.427527 0.537549 -0.162821
C37   C     C_R   0.152914 0.573304 0.542468 -0.162411
C38   C     C_R   0.847398 0.427588 0.542556 -0.163510
C39   C     C_R   0.768972 0.573294 0.522642 -0.208603
C40   C     C_R   0.230531 0.427251 0.519722 -0.203392
C41   C     C_R   0.231236 0.573271 0.524633 -0.205919
C42   C     C_R   0.769109 0.427259 0.524505 -0.204775
C43   C     C_R   0.729530 0.500164 0.514282 -0.037582
C44   C     C_R   0.270426 0.500172 0.513290 -0.035072
H1    H     H_    0.422994 0.646711 0.192443 0.168316
H2    H     H_    0.575520 0.349590 0.806211 0.184517
H3    H     H_    0.579091 0.645003 0.808950 0.162713
H4    H     H_    0.422913 0.350377 0.194509 0.184299
H5    H     H_    0.877732 0.629915 0.545366 0.134665
H6    H     H_    0.121419 0.371152 0.541088 0.131818
H7    H     H_    0.122696 0.629836 0.549858 0.135016
H8    H     H_    0.877948 0.371195 0.548727 0.131347
H9    H     H_    0.739465 0.630211 0.515553 0.155995
H10   H     H_    0.259681 0.370225 0.511480 0.139515
H11   H     H_    0.260979 0.630199 0.520396 0.153977
H12   H     H_    0.739764 0.370200 0.518892 0.138358
H13   H     H_    0.400995 0.714446 0.612487 0.175858
H14   H     H_    0.619462 0.286206 0.517177 0.145054
H15   H     H_    0.600092 0.714511 0.390228 0.163172
H16   H     H_    0.380553 0.285020 0.483894 0.142691
N1    N     N_R   0.500000 0.707230 0.500000 -0.145632
N2    N     N_R   0.500000 0.292770 0.500000 -0.112090
O1    O     O_R   0.389110 0.566570 0.499990 -0.629511
O2    O     O_R   0.610890 0.433430 0.500010 -0.629737
O3    O     O_R   0.610890 0.566570 0.500010 -0.626704
O4    O     O_R   0.389110 0.433430 0.499990 -0.629693
O5    O     O_R   0.499990 0.566540 0.316770 -0.609865
O6    O     O_R   0.500010 0.433460 0.683230 -0.609777
O7    O     O_R   0.500010 0.566540 0.683230 -0.608794
O8    O     O_R   0.499990 0.433460 0.316770 -0.608820
Zn1   Zn    Zn3+2 0.500000 0.588860 0.500000 0.927607
Zn2   Zn    Zn3+2 0.500000 0.411140 0.500000 0.935667
O9    O     O_3   0.452396 0.208303 0.109898 -0.636436
C45   C     C_3   0.513561 0.169014 0.170033 0.135312
H17   H     H_    0.525779 0.199191 0.260296 0.143422
H18   H     H_    0.566952 0.168445 0.113574 0.178844
C46   C     C_3   0.491438 0.082138 0.194445 -0.835639
H19   H     H_    0.479860 0.050675 0.105175 0.262421
H20   H     H_    0.538709 0.051085 0.243369 0.220725
H21   H     H_    0.439297 0.079090 0.252859 0.264985
O10   O     O_3   0.544296 0.796631 0.898998 -0.572508
C47   C     C_3   0.601544 0.794720 0.806153 0.090123
H22   H     H_    0.579484 0.766258 0.719443 0.156489
H23   H     H_    0.653200 0.762678 0.840441 0.129547
C48   C     C_3   0.624285 0.880298 0.773412 -0.789891
H24   H     H_    0.649908 0.910275 0.856001 0.238456
H25   H     H_    0.666615 0.879849 0.696076 0.222114
H26   H     H_    0.573406 0.914796 0.743121 0.274119
O11   O     O_3   0.545482 0.207864 0.891757 -0.639296
C49   C     C_3   0.484386 0.167414 0.833191 0.118545
H27   H     H_    0.471530 0.196687 0.742435 0.144114
H28   H     H_    0.431236 0.166795 0.890203 0.183432
C50   C     C_3   0.507199 0.080529 0.810456 -0.796888
H29   H     H_    0.520692 0.050463 0.900204 0.260369
H30   H     H_    0.459654 0.047845 0.764527 0.234031
H31   H     H_    0.558545 0.077669 0.750137 0.260483
O12   O     O_3   0.458207 0.795972 0.103111 -0.601527
C51   C     C_3   0.389815 0.795652 0.172944 0.085046
H32   H     H_    0.400263 0.770694 0.267912 0.138127
H33   H     H_    0.344037 0.761143 0.124566 0.147313
C52   C     C_3   0.362314 0.881626 0.188402 -0.837194
H34   H     H_    0.353149 0.909543 0.095254 0.276965
H35   H     H_    0.307663 0.882298 0.240905 0.207439
H36   H     H_    0.405270 0.917246 0.240765 0.240802
O13   O     O_3   0.385929 0.871095 0.630007 -0.600387
C53   C     C_3   0.327909 0.899522 0.549321 0.146936
H37   H     H_    0.350315 0.925801 0.460832 0.140997
H38   H     H_    0.297576 0.948853 0.598290 0.191374
C54   C     C_3   0.269959 0.833682 0.520262 -0.947007
H39   H     H_    0.248687 0.806407 0.608448 0.273807
H40   H     H_    0.221042 0.859695 0.468286 0.227323
H41   H     H_    0.296363 0.786389 0.461357 0.236943
O14   O     O_3   0.637109 0.124257 0.523601 -0.596221
C55   C     C_3   0.687600 0.157759 0.612530 0.084110
H42   H     H_    0.657142 0.183112 0.695251 0.170907
H43   H     H_    0.722644 0.205399 0.567745 0.134897
C56   C     C_3   0.740895 0.092414 0.659506 -0.793245
H44   H     H_    0.773463 0.066438 0.580096 0.261842
H45   H     H_    0.781630 0.118038 0.728269 0.202740
H46   H     H_    0.707436 0.044124 0.705634 0.255076
O15   O     O_3   0.616591 0.872857 0.379267 -0.604915
C57   C     C_3   0.604918 0.873305 0.248694 0.148705
H47   H     H_    0.549179 0.901439 0.224842 0.181880
H48   H     H_    0.607002 0.811309 0.209937 0.157668
C58   C     C_3   0.667662 0.922277 0.186872 -0.810822
H49   H     H_    0.657799 0.924936 0.084428 0.219031
H50   H     H_    0.667905 0.984314 0.224793 0.262162
H51   H     H_    0.724005 0.894106 0.204735 0.251548
O16   O     O_3   0.364306 0.122405 0.482510 -0.621233
C59   C     C_3   0.311858 0.155057 0.395996 0.084768
H52   H     H_    0.340528 0.180733 0.311780 0.174883
H53   H     H_    0.277051 0.202226 0.442336 0.140993
C60   C     C_3   0.258594 0.088795 0.351943 -0.842997
H54   H     H_    0.228013 0.062247 0.433056 0.251687
H55   H     H_    0.216152 0.113684 0.285363 0.217350
H56   H     H_    0.291819 0.041060 0.304135 0.251695

loop_
_geom_bond_atom_site_label_1
_geom_bond_atom_site_label_2
_ccdc_geom_bond_type
C4    C36   A    
C50   H29   S    
O9    C45   S    
C59   H53   S    
C2    O3    A    
O12   C51   S    
C46   H19   S    
C26   O11   S    
C7    C11   A    
C21   C31   A    
C52   H34   S    
C45   H18   S    
C23   C29   A    
C38   C42   A    
C56   H45   S    
C48   H24   S    
C5    C6    T    
C37   H7    S    
C48   H26   S    
C38   H8    S    
C53   H37   S    
C14   N2    A    
C29   C33   A    
O7    Zn1   S    
C9    C13   A    
C50   H30   S    
C41   H11   S    
C42   H12   S    
O14   C55   S    
O4    Zn2   S    
C3    C38   A    
C45   C46   S    
C35   H5    S    
C58   H51   S    
C9    O15   S    
C7    O13   S    
C19   O5    A    
C23   C27   A    
O6    Zn2   S    
C12   H14   S    
N1    Zn1   S    
C7    C15   A    
C8    C16   A    
C28   O9    S    
C1    O1    A    
C2    O2    A    
C55   H42   S    
C21   H1    S    
C46   H20   S    
C23   H3    S    
C45   H17   S    
C30   C34   A    
C48   H25   S    
C24   H4    S    
C36   C40   A    
C4    C6    S    
C10   C14   A    
C56   H46   S    
C27   O10   S    
C39   C43   A    
C3    C5    S    
O3    Zn1   S    
O10   C47   S    
C1    O4    A    
C35   C39   A    
C60   H56   S    
C60   H54   S    
C12   N2    A    
C1    C44   S    
C49   H28   S    
C3    C35   A    
C2    C43   S    
C8    C12   A    
C17   C18   T    
C31   C34   A    
N2    Zn2   S    
C16   C18   S    
C11   H13   S    
O15   C57   S    
C22   C32   A    
C8    O14   S    
C20   C33   S    
C25   O12   S    
C22   H2    S    
O1    Zn1   S    
C47   H22   S    
C50   H31   S    
C40   H10   S    
C58   H49   S    
C41   C44   A    
C20   O7    A    
C54   H41   S    
C59   C60   S    
C42   C43   A    
C57   H48   S    
C47   C48   S    
C36   H6    S    
C49   C50   S    
C60   H55   S    
O16   C59   S    
C46   H21   S    
C15   C17   S    
C21   C25   A    
C26   C28   A    
C20   O6    A    
C24   C28   A    
C11   N1    A    
C19   C34   S    
C55   H43   S    
C57   H47   S    
C13   H15   S    
C25   C27   A    
C51   C52   S    
C14   H16   S    
O13   C53   S    
C47   H23   S    
C32   C33   A    
C57   C58   S    
C54   H40   S    
C59   H52   S    
C9    C15   A    
C10   O16   S    
C29   C31   A    
C10   C16   A    
C56   H44   S    
C30   C32   A    
C49   H27   S    
C39   H9    S    
C53   H38   S    
O5    Zn1   S    
O2    Zn2   S    
C37   C41   A    
C51   H33   S    
C24   C30   A    
C55   C56   S    
C40   C44   A    
C13   N1    A    
C4    C37   A    
C52   H35   S    
C51   H32   S    
C22   C26   A    
C58   H50   S    
C19   O8    A    
O8    Zn2   S    
C52   H36   S    
O11   C49   S    
C54   H39   S    
C53   C54   S    
