data_mof_unit_16368.cif
_audit_creation_date              2012-12-11T18:37:11-0500
_audit_creation_method            fapswitch 2.2
_symmetry_space_group_name_H-M    P1
_symmetry_Int_Tables_number       1
_space_group_crystal_system       triclinic
_cell_length_a                    8.803986
_cell_length_b                    14.982452
_cell_length_c                    27.262061
_cell_angle_alpha                 96.916042
_cell_angle_beta                  93.998243
_cell_angle_gamma                 84.69243
_cell_volume                      3548.28964899

loop_
_atom_site_label
_atom_site_type_symbol
_atom_type_description
_atom_site_fract_x
_atom_site_fract_y
_atom_site_fract_z
_atom_type_partial_charge
Ba1   Ba    Ba6+2 0.849670 0.455410 0.524690 1.941907
Ba2   Ba    Ba6+2 0.340150 0.544510 0.475310 1.939666
C1    C     C_3   0.756440 0.154633 0.676299 0.353188
C2    C     C_R   0.909358 0.578994 0.177176 0.696631
C3    C     C_2   0.762857 0.521372 0.265907 0.367620
C4    C     C_3   0.036273 0.307121 0.669134 0.436748
C5    C     C_3   0.728233 0.535756 0.320789 0.013267
C6    C     C_1   0.993701 0.485539 0.342423 0.085157
C7    C     C_2   0.031205 0.481083 0.295320 -0.108746
C8    C     C_2   0.912523 0.502342 0.253729 0.166816
C9    C     C_R   0.045947 0.512584 0.104617 -0.070557
C10   C     C_R   0.103127 0.440859 0.131317 -0.109357
C11   C     C_R   0.211167 0.375964 0.109697 -0.020399
C12   C     C_3   0.633329 0.236108 0.671630 0.678509
C13   C     C_R   0.946471 0.581435 0.127544 -0.012329
C14   C     C_2   0.869986 0.537643 0.355653 -0.268174
C15   C     C_2   0.355969 0.531309 0.652056 -0.128369
C16   C     C_3   0.037740 0.317030 0.726093 0.098801
C17   C     C_R   0.196936 0.439640 0.979107 0.050545
C18   C     C_R   0.083015 0.596123 0.980518 -0.000058
C19   C     C_R   0.153589 0.517232 0.954319 0.041731
C20   C     C_R   0.242276 0.358858 0.949818 -0.006011
C21   C     C_R   0.269090 0.357388 0.899872 -0.018280
C22   C     C_R   0.243962 0.436110 0.876204 -0.037940
C23   C     C_3   0.561561 0.783432 0.630405 0.601573
C24   C     C_R   0.181762 0.515595 0.902961 -0.080381
C25   C     C_R   0.149089 0.593324 0.878510 -0.071135
C26   C     C_R   0.179725 0.590622 0.827570 0.633692
C27   C     C_R   0.278213 0.436185 0.826194 0.589665
C28   C     C_3   0.091169 0.243681 0.380921 0.394554
C29   C     C_2   0.432482 0.484906 0.737528 0.029084
C30   C     C_3   0.479295 0.490429 0.685603 0.071535
C31   C     C_1   0.212439 0.544480 0.663546 -0.007128
C32   C     C_2   0.170392 0.539064 0.709379 -0.106576
C33   C     C_2   0.286571 0.511442 0.750081 0.220178
C34   C     C_3   0.654625 0.836356 0.673358 0.323177
C35   C     C_R   0.183399 0.443617 0.031488 -0.053314
C36   C     C_R   0.087983 0.515532 0.054956 0.031571
C37   C     C_R   0.033344 0.590305 0.029036 0.046976
C38   C     C_R   0.259089 0.379458 0.061912 0.377907
C39   C     C_R   0.883502 0.650681 0.099991 0.003348
C40   C     C_3   0.120417 0.167437 0.338716 0.087103
C41   C     C_R   0.066735 0.676546 0.956599 0.137525
C42   C     C_R   0.094311 0.673423 0.906250 -0.022958
C43   C     C_R   0.922668 0.653348 0.051424 -0.055878
C44   C     C_R   0.658645 0.061560 0.470018 0.064617
C45   C     C_3   0.033523 0.770839 0.326253 0.567958
C46   C     C_R   0.526632 0.207472 0.508161 -0.056497
C47   C     C_R   0.410921 0.244844 0.540115 0.172214
C48   C     C_R   0.318020 0.185953 0.560765 0.070214
C49   C     C_R   0.357141 0.093302 0.557235 -0.117717
C50   C     C_R   0.468833 0.052238 0.526219 0.017189
C51   C     C_R   0.551463 0.108085 0.500999 -0.060745
C52   C     C_3   0.961163 0.740898 0.599118 0.393630
C53   C     C_R   0.609336 0.910149 0.488817 -0.026464
C54   C     C_R   0.700472 0.966447 0.467300 -0.042588
C55   C     C_R   0.642127 0.812565 0.481016 0.025659
C56   C     C_3   0.957464 0.855074 0.305547 0.082428
C57   C     C_R   0.758762 0.779059 0.448097 -0.239136
C58   C     C_R   0.874317 0.834417 0.438055 -0.080107
C59   C     C_R   0.844075 0.929172 0.449934 0.332091
C60   C     C_R   0.496187 0.955402 0.519644 0.004336
C61   C     C_3   0.958872 0.842800 0.614286 -0.223759
C62   C     C_3   0.615007 0.239226 0.361381 0.837528
C63   C     C_3   0.485577 0.228943 0.319293 0.287619
C64   C     C_3   0.611262 0.750521 0.313689 0.407170
C65   C     C_3   0.554269 0.841995 0.296358 0.371706
C66   C     C_R   0.056292 0.437210 0.179945 0.681403
H1    H     H_    0.599065 0.237547 0.631727 -0.114011
H2    H     H_    0.773448 0.806852 0.674648 -0.095356
H3    H     H_    0.655099 0.907208 0.665774 0.128672
H4    H     H_    0.870474 0.177787 0.676156 0.028432
H5    H     H_    0.924557 0.342732 0.739417 0.072728
H6    H     H_    0.944524 0.730535 0.337540 -0.262859
H7    H     H_    0.875097 0.834955 0.274602 0.096581
H8    H     H_    0.896720 0.898209 0.335178 0.020441
H9    H     H_    0.686819 0.711480 0.286314 0.045238
H10   H     H_    0.677290 0.763409 0.349612 -0.291165
H11   H     H_    0.641072 0.890187 0.307112 -0.021151
H12   H     H_    0.236039 0.134751 0.343473 0.047206
H13   H     H_    0.449041 0.869694 0.314995 0.090342
H14   H     H_    0.920428 0.304276 0.651757 -0.010919
H15   H     H_    0.150260 0.466729 0.287024 0.156950
H16   H     H_    0.265685 0.324443 0.131291 0.200134
H17   H     H_    0.519727 0.465964 0.765387 0.113797
H18   H     H_    0.308728 0.293700 0.879678 0.151987
H19   H     H_    0.253692 0.295237 0.964870 0.157870
H20   H     H_    0.800042 0.702175 0.115499 0.171972
H21   H     H_    0.076919 0.369663 0.659617 -0.036280
H22   H     H_    0.079392 0.735694 0.889314 0.165629
H23   H     H_    0.053022 0.110285 0.340305 0.186161
H24   H     H_    0.052046 0.556466 0.717941 0.113296
H25   H     H_    0.858877 0.702939 0.030875 0.125779
H26   H     H_    0.870538 0.580778 0.390481 0.021193
H27   H     H_    0.386241 0.547329 0.616884 0.117397
H28   H     H_    0.292394 0.052532 0.576901 0.151708
H29   H     H_    0.780767 0.706871 0.440293 0.043393
H30   H     H_    0.712459 0.101777 0.448901 0.180204
H31   H     H_    0.114683 0.368863 0.741085 0.066471
H32   H     H_    0.430395 0.915702 0.539463 0.131874
H33   H     H_    0.971110 0.266724 0.384986 0.128084
H34   H     H_    0.854380 0.715792 0.605874 0.007446
H35   H     H_    0.698724 0.001623 0.366924 0.330541
H36   H     H_    0.705577 0.450832 0.415943 0.329595
H37   H     H_    0.423944 0.102673 0.221256 0.374703
H38   H     H_    0.452564 0.173688 0.772928 0.401071
H39   H     H_    0.787979 0.120394 0.808773 0.386817
H40   H     H_    0.221584 0.820196 0.698425 0.387554
H41   H     H_    0.832138 0.824002 0.768406 0.346662
H42   H     H_    0.373371 0.769690 0.174017 0.382260
H43   H     H_    0.506864 0.180583 0.018288 0.389824
H44   H     H_    0.382608 0.463359 0.218501 0.361922
H45   H     H_    0.983984 0.858482 0.654660 0.151642
H46   H     H_    0.225386 0.409361 0.611111 0.313806
H47   H     H_    0.194100 0.961510 0.514796 0.354525
H48   H     H_    0.845679 0.874238 0.603594 0.092559
H49   H     H_    0.039452 0.876555 0.595053 0.221543
H50   H     H_    0.393070 0.283053 0.325936 0.084564
H51   H     H_    0.437843 0.164940 0.321685 0.039117
I1    I     I_    0.086953 0.208395 0.266132 -0.062842
I2    I     I_    0.993626 0.717328 0.526558 -0.309206
I3    I     I_    0.751377 0.060917 0.612110 -0.361790
I4    I     I_    0.617690 0.649700 0.640668 -0.303240
I5    I     I_    0.146354 0.684808 0.269784 -0.271745
I6    I     I_    0.114674 0.934473 0.277750 -0.147934
I7    I     I_    0.048183 0.810589 0.993893 -0.282189
I8    I     I_    0.115627 0.199214 0.761156 -0.093814
I9    I     I_    0.184671 0.193285 0.444431 -0.256142
N1    N     N_R   0.958962 0.505554 0.202768 -0.416724
N2    N     N_R   0.244858 0.512451 0.801700 -0.442616
O1    O     O_2   0.918080 0.549800 0.616640 -0.474807
O2    O     O_2   0.201648 0.825157 0.456854 -0.381158
O3    O     O_3   0.143003 0.795562 0.364235 -0.547616
O4    O     O_3   0.150070 0.549720 0.556460 -0.412141
O5    O     O_3   0.546340 0.387390 0.478340 -0.372876
O6    O     O_2   0.398940 0.728800 0.517420 -0.373071
O7    O     O_3   0.612525 0.801607 0.584338 -0.713625
O8    O     O_2   0.405508 0.548226 0.327172 -0.358492
O9    O     O_3   0.484731 0.703936 0.320078 -0.542196
O10   O     O_2   0.101802 0.372496 0.201655 -0.511901
O11   O     O_2   0.338535 0.367704 0.804468 -0.511687
O12   O     O_3   0.542351 0.243270 0.406560 -0.690592
O13   O     O_2   0.834315 0.643362 0.197857 -0.530640
O14   O     O_2   0.151376 0.658559 0.806763 -0.543120
O15   O     O_3   0.658250 0.379560 0.591530 -0.422432
O16   O     O_2   0.781244 0.461931 0.671752 -0.502178
O17   O     O_3   0.081825 0.695510 0.623281 -0.552662
O18   O     O_3   0.693561 0.317338 0.691934 -0.653461
O19   O     O_2   0.790750 0.271170 0.482550 -0.418361
O20   O     O_3   0.062300 0.331660 0.568480 -0.438492
O21   O     O_2   0.999585 0.163809 0.566295 -0.413682
O22   O     O_2   0.799043 0.122643 0.302468 -0.211928
O23   O     O_3   0.127027 0.230151 0.650334 -0.521981
O24   O     O_2   0.859291 0.134407 0.392053 -0.378980
O25   O     O_3   0.626086 0.050919 0.356372 -0.561305
O26   O     O_2   0.818690 0.328600 0.319924 -0.333971
O27   O     O_2   0.567114 0.401332 0.337112 -0.347743
O28   O     O_3   0.767410 0.392322 0.410087 -0.594085
O29   O     O_2   0.672806 0.258863 0.245047 -0.091427
O30   O     O_2   0.398481 0.274269 0.227795 -0.237079
O31   O     O_3   0.532107 0.113960 0.230035 -0.384758
O32   O     O_2   0.359049 0.307246 0.695785 -0.320308
O33   O     O_2   0.393831 0.142092 0.680155 -0.246439
O34   O     O_2   0.271610 0.450170 0.383330 -0.398182
O35   O     O_3   0.504870 0.224251 0.763588 -0.392397
O36   O     O_2   0.621170 0.044759 0.729243 -0.197652
O37   O     O_2   0.898119 0.022709 0.725925 -0.239832
O38   O     O_3   0.784377 0.160631 0.782350 -0.452921
O39   O     O_2   0.347964 0.922562 0.647830 -0.266055
O40   O     O_2   0.275213 0.795752 0.590184 -0.292106
O41   O     O_3   0.297466 0.774188 0.683127 -0.461325
O42   O     O_2   0.462632 0.901017 0.746589 -0.132196
O43   O     O_2   0.567731 0.744235 0.747128 -0.263366
O44   O     O_3   0.746483 0.870688 0.775015 -0.413025
O45   O     O_3   0.039630 0.450200 0.443530 -0.428488
O46   O     O_2   0.460234 0.929827 0.218313 -0.223838
O47   O     O_2   0.664921 0.809440 0.205287 -0.242845
O48   O     O_3   0.388482 0.765224 0.210014 -0.426239
O49   O     O_2   0.518026 0.359734 0.011958 -0.286174
O50   O     O_2   0.536030 0.314338 0.095408 -0.178948
O51   O     O_3   0.404633 0.210355 0.025865 -0.496794
O52   O     O_2   0.541177 0.598095 0.208296 -0.241981
O53   O     O_2   0.664515 0.453223 0.173730 -0.222863
O54   O     O_3   0.473605 0.453035 0.241236 -0.413683
O55   O     O_2   0.444865 0.441465 0.551394 -0.266772
O56   O     O_3   0.531440 0.620360 0.408460 -0.492961
O57   O     O_2   0.222141 0.380033 0.513882 -0.276907
O58   O     O_3   0.314196 0.366683 0.609046 -0.623010
O59   O     O_2   0.108495 0.983710 0.425093 -0.286686
O60   O     O_2   0.955265 0.090803 0.480169 -0.240759
O61   O     O_3   0.085429 0.954867 0.517525 -0.508500
O62   O     O_3   0.179772 0.312297 0.375721 -0.634358
O63   O     O_3   0.643350 0.612530 0.521650 -0.455999
O64   O     O_3   0.127390 0.668260 0.431510 -0.456469
P1    P     P_3+3 0.090020 0.577590 0.608380 1.069629
P2    P     P_3+3 0.614340 0.285150 0.467650 1.174193
P3    P     P_3+3 0.126446 0.225546 0.585736 1.161858
P4    P     P_3+3 0.099670 0.422330 0.391610 1.148773
P5    P     P_3+3 0.077685 0.780984 0.421602 1.105904
P6    P     P_3+3 0.639380 0.408947 0.657063 1.053955
P7    P     P_3+3 0.577982 0.733621 0.525804 1.007337
P8    P     P_3+3 0.544948 0.602341 0.343935 1.128657
S1    S     S_3+6 0.734254 0.136219 0.352494 -0.093041
S2    S     S_3+6 0.609670 0.507242 0.220188 0.026316
S3    S     S_3+6 0.353418 0.362333 0.550411 -0.090040
S4    S     S_3+6 0.001199 0.993454 0.466353 -0.048865
S5    S     S_3+6 0.696837 0.341497 0.356316 -0.125144
S6    S     S_3+6 0.526055 0.222479 0.254493 0.106610
S7    S     S_3+6 0.466014 0.225909 0.702455 0.027092
S8    S     S_3+6 0.763592 0.092268 0.729141 0.029747
S9    S     S_3+6 0.365023 0.821395 0.636966 -0.035034
S10   S     S_3+6 0.600620 0.836349 0.736362 0.065590
S11   S     S_3+6 0.519270 0.837541 0.230646 0.028706
S12   S     S_3+6 0.436153 0.316954 0.048473 -0.033054

loop_
_geom_bond_atom_site_label_1
_geom_bond_atom_site_label_2
_ccdc_geom_bond_type
C54   C59   A    
C38   S12   S    
C53   C54   A    
C40   H12   S    
C29   H17   S    
H36   O28   S    
O21   P3    D    
C6    P4    S    
O27   S5    D    
C19   C24   A    
C43   H25   S    
C2    O13   D    
O24   S1    D    
O33   S7    D    
C56   H8    S    
O29   S6    D    
H44   O54   S    
C63   S6    S    
C10   C66   A    
C11   H16   S    
C24   C25   A    
Ba2   O4    S    
C62   O12   S    
O54   S2    S    
O53   S2    D    
C17   C19   A    
C22   C24   A    
C32   C33   S    
C5    P8    S    
O19   P2    D    
C36   C37   A    
C16   I8    S    
C55   C57   A    
O23   P3    S    
C52   C61   S    
H42   O48   S    
O39   S9    D    
C53   C60   A    
C12   O18   S    
H43   O51   S    
O63   P7    S    
O56   P8    S    
O49   S12   D    
C40   H23   S    
C23   S9    S    
O26   S5    D    
C22   C27   A    
C11   C38   A    
C17   C35   A    
C58   P5    S    
O5    P2    S    
Ba1   O15   S    
C25   C42   A    
O60   S4    D    
O40   S9    D    
C29   C30   S    
O34   P4    D    
C6    C7    D    
C21   H18   S    
O1    P1    D    
C21   C22   A    
O31   S6    S    
Ba1   O19   S    
O51   S12   S    
C26   O14   D    
O62   P4    S    
C7    C8    S    
O20   P3    S    
O48   S11   S    
C1    I3    S    
C59   S4    S    
C37   C43   A    
H47   O61   S    
C1    S8    S    
C64   C65   S    
C44   H30   S    
C57   C58   A    
O3    P5    S    
Ba2   P4    S    
C45   O3    S    
C66   N1    Am   
C15   C31   D    
C3    S2    S    
O25   S1    S    
C41   I7    S    
O6    P7    D    
C48   P3    S    
C34   H2    S    
C56   H7    S    
C48   C49   A    
C46   C51   A    
C64   H10   S    
C62   S5    S    
C28   I9    S    
O58   S3    S    
C64   O9    S    
H46   O58   S    
C49   C50   A    
H38   O35   S    
O55   S3    D    
C17   C20   A    
C65   H11   S    
C13   C39   A    
O15   P6    S    
Ba2   O34   S    
C3    C5    S    
C18   C37   A    
H41   O44   S    
O18   P6    S    
O42   S10   D    
O2    P5    D    
Ba2   O6    S    
C58   C59   A    
Ba2   O64   S    
O61   S4    S    
C9    C36   A    
C23   O7    S    
C41   C42   A    
Ba2   O56   S    
O45   P4    S    
C35   C36   A    
O38   S8    S    
Ba2   O45   S    
O30   S6    D    
O41   S9    S    
O64   P5    S    
O59   S4    D    
C63   H50   S    
C27   O11   D    
O57   S3    D    
C31   C32   D    
C63   H51   S    
C61   H49   S    
Ba1   O20   S    
O22   S1    D    
C20   H19   S    
C18   C19   A    
O17   P1    S    
C23   I4    S    
C33   N2    S    
C1    C12   S    
C34   S10   S    
C60   H32   S    
C61   H48   S    
H35   O25   S    
O4    P1    S    
C52   I2    S    
C7    H15   S    
C65   H13   S    
C16   H5    S    
C28   O62   S    
C53   C55   A    
C4    C16   S    
C57   H29   S    
C12   H1    S    
C29   C33   D    
C66   O10   D    
O43   S10   D    
C46   P2    S    
C16   H31   S    
O28   S5    S    
C44   C54   A    
Ba1   O4    S    
O52   S2    D    
C18   C41   A    
C42   H22   S    
C50   C51   A    
C39   H20   S    
H39   O38   S    
Ba1   O45   S    
C39   C43   A    
C12   S7    S    
Ba1   P1    S    
C20   C21   A    
O47   S11   D    
C62   S1    S    
C5    C14   S    
C15   H27   S    
O37   S8    D    
C47   S3    S    
Ba1   O1    S    
O9    P8    S    
C4    H14   S    
C34   H3    S    
C2    N1    Am   
O32   S7    D    
C35   C38   A    
C4    H21   S    
C49   H28   S    
C14   H26   S    
Ba2   O5    S    
Ba2   O63   S    
C52   H34   S    
C62   C63   S    
C2    C13   A    
O50   S12   D    
C1    H4    S    
C8    N1    S    
C3    C8    D    
C30   P6    S    
C50   C60   A    
Ba1   P2    S    
O44   S10   S    
C45   C56   S    
O8    P8    D    
O35   S7    S    
C45   I5    S    
O7    P7    S    
C46   C47   A    
Ba1   Ba2   S    
C44   C51   A    
C28   H33   S    
C26   N2    Am   
C64   H9    S    
Ba1   O63   S    
O16   P6    D    
C45   H6    S    
C32   H24   S    
C4    O23   S    
C65   S11   S    
C23   C34   S    
C61   H45   S    
C27   N2    Am   
C9    C13   A    
C10   C11   A    
C31   P1    S    
C56   I6    S    
C6    C14   D    
C47   C48   A    
H40   O41   S    
C55   P7    S    
C25   C26   A    
C40   I1    S    
C15   C30   S    
O12   P2    S    
O46   S11   D    
C28   C40   S    
H37   O31   S    
Ba1   O5    S    
O36   S8    D    
C9    C10   A    
C52   O17   S    
