data_mof_unit_58449.cif
_audit_creation_date              2013-03-05T16:21:41-0500
_audit_creation_method            fapswitch 2.2
_symmetry_space_group_name_H-M    P1
_symmetry_Int_Tables_number       1
_space_group_crystal_system       triclinic
_cell_length_a                    8.323632
_cell_length_b                    18.892902
_cell_length_c                    18.863897
_cell_angle_alpha                 104.329253
_cell_angle_beta                  92.324301
_cell_angle_gamma                 92.383844
_cell_volume                      2867.74958839

loop_
_atom_site_label
_atom_site_type_symbol
_atom_site_description
_atom_site_fract_x
_atom_site_fract_y
_atom_site_fract_z
_atom_type_partial_charge
P1    P     P_3+3 0.058010 0.429760 0.330690 0.483594
O1    O     O_2   0.885040 0.450540 0.321170 -0.351492
O2    O     O_3   0.133000 0.456200 0.410860 -0.393239
O3    O     O_3   0.639000 0.584840 0.375630 -0.382441
O4    O     O_2   0.759471 0.535109 0.246613 -0.404760
O5    O     O_3   0.072096 0.333662 0.302295 -0.627389
O6    O     O_3   0.649859 0.665715 0.267725 -0.536537
H1    H     H_    0.741806 0.712080 0.373491 0.164501
C1    C     C_3   0.671328 0.796781 0.320977 -0.112186
H2    H     H_    0.801033 0.812462 0.320887 0.141025
P2    P     P_3+3 0.631910 0.669560 0.569730 0.459756
P3    P     P_3+3 0.074173 0.716706 0.420670 0.406612
O7    O     O_2   0.804950 0.679010 0.548920 -0.386520
O8    O     O_3   0.051170 0.624120 0.414780 -0.373863
O9    O     O_2   0.947832 0.754065 0.473213 -0.413342
O10   O     O_3   0.640413 0.697089 0.665474 -0.565291
O11   O     O_3   0.015506 0.732032 0.334938 -0.578431
C2    C     C_3   0.081327 0.681688 0.276423 0.622055
H3    H     H_    0.048839 0.624634 0.278815 0.105460
C3    C     C_3   0.009551 0.690401 0.202555 -0.333609
H4    H     H_    0.878408 0.678539 0.199002 0.273551
C4    C     C_3   0.196232 0.692497 0.634974 0.433129
H5    H     H_    0.315905 0.672924 0.618891 0.103346
H6    H     H_    0.107250 0.674911 0.587729 0.129187
C5    C     C_3   0.206363 0.775766 0.658254 -0.962911
H7    H     H_    0.297337 0.795209 0.704477 0.283592
H8    H     H_    0.241325 0.798525 0.612028 0.219788
H9    H     H_    0.087412 0.796240 0.675814 0.250823
Ba1   Ba    Ba6+2 0.844980 0.532260 0.467660 1.557564
C6    C     C_3   0.011592 0.291581 0.348050 0.843075
H10   H     H_    0.004508 0.324678 0.405431 -0.019787
C7    C     C_3   0.124849 0.229170 0.345730 -0.945895
H11   H     H_    0.102953 0.185448 0.293944 0.265045
H12   H     H_    0.108119 0.204897 0.393192 0.220170
H13   H     H_    0.249785 0.249007 0.344898 0.270046
C8    C     C_3   0.732984 0.650880 0.696004 0.374829
H14   H     H_    0.825044 0.624068 0.659286 0.101148
H15   H     H_    0.651709 0.608321 0.709293 0.112504
C9    C     C_3   0.818342 0.697155 0.766188 -0.757173
H16   H     H_    0.902398 0.738927 0.753126 0.241059
H17   H     H_    0.887420 0.662440 0.794634 0.231088
H18   H     H_    0.728567 0.726026 0.803324 0.298942
P4    P     P_3+3 0.131690 0.570300 0.669320 0.463732
O12   O     O_2   0.304650 0.549490 0.678880 -0.351399
O13   O     O_3   0.056690 0.543860 0.589150 -0.412201
O14   O     O_3   0.550690 0.415220 0.624380 -0.335621
O15   O     O_3   0.149524 0.666084 0.694426 -0.566087
P5    P     P_3+3 0.126870 0.282614 0.579941 0.515939
O16   O     O_3   0.632900 0.410750 0.456460 -0.398790
O17   O     O_3   0.138520 0.375940 0.585230 -0.350529
O18   O     O_2   0.267695 0.250049 0.534340 -0.342675
O19   O     O_3   0.180049 0.273983 0.668172 -0.431360
Ba2   Ba    Ba6+2 0.344840 0.467800 0.532350 1.588467
P6    P     P_3+3 0.617198 0.578116 0.282268 0.427402
C10   C     C_3   0.647023 0.719838 0.334078 0.307812
H19   H     H_    0.533538 0.716810 0.361279 0.020348
H20   H     H_    0.622760 0.837248 0.367153 0.081286
O20   O     O_3   0.556800 0.589310 0.543550 -0.387002
C11   C     C_3   0.474265 0.351853 0.306436 0.504765
H21   H     H_    0.370255 0.376521 0.336783 0.082555
H22   H     H_    0.575465 0.394091 0.313578 0.110117
C12   C     C_3   0.423450 0.325516 0.224769 -0.967163
H23   H     H_    0.315816 0.286870 0.216718 0.274566
H24   H     H_    0.394815 0.372240 0.201706 0.200050
H25   H     H_    0.522304 0.297006 0.193347 0.290190
P7    P     P_3+3 0.562636 0.318557 0.426162 0.468077
O21   O     O_2   0.384750 0.321010 0.451130 -0.383648
O22   O     O_3   0.523521 0.291629 0.331489 -0.509600
H26   H     H_    0.058226 0.649121 0.157016 0.181413
C13   C     C_3   0.045245 0.289142 0.710375 0.484706
H27   H     H_    0.999688 0.343453 0.708789 0.013951
H28   H     H_    0.950063 0.245472 0.688340 -0.074423
C14   C     C_3   0.084959 0.288354 0.790323 -0.374938
H29   H     H_    0.971139 0.291135 0.819202 0.141142
H30   H     H_    0.138224 0.236109 0.792931 0.243970
P8    P     P_3+3 0.567798 0.424493 0.718131 0.491966
C15   C     C_3   0.647908 0.294727 0.717337 0.288886
H31   H     H_    0.751177 0.321564 0.754351 -0.054775
O23   O     O_2   0.429947 0.471720 0.751751 -0.379274
O24   O     O_3   0.515071 0.338195 0.731609 -0.487726
H32   H     H_    0.679887 0.287482 0.659279 0.042204
H33   H     H_    0.715765 0.184737 0.712769 0.039941
C16   C     C_3   0.612217 0.218740 0.731364 0.290813
C17   C     C_R   0.990352 0.481075 0.047017 -0.016286
C18   C     C_R   0.894842 0.447494 0.090205 0.119862
C19   C     C_R   0.733663 0.424600 0.066301 -0.153585
C20   C     C_R   0.674008 0.428142 0.997529 -0.202885
C21   C     C_R   0.773377 0.454966 0.951188 0.151300
C22   C     C_R   0.930454 0.483574 0.976365 0.086871
C23   C     C_R   0.717717 0.452281 0.879826 -0.252415
C24   C     C_R   0.816917 0.477027 0.831481 0.043307
C25   C     C_R   0.970753 0.510729 0.857763 0.038663
C26   C     C_R   0.027322 0.513658 0.930656 0.041631
C27   C     C_R   0.766911 0.468202 0.757387 0.158162
C28   C     C_R   0.869948 0.492587 0.710336 -0.515751
C29   C     C_R   0.018111 0.530180 0.735720 0.248183
C30   C     C_R   0.069281 0.539978 0.811032 -0.093021
C31   C     C_R   0.147600 0.508110 0.072596 0.008273
C32   C     C_R   0.207003 0.503861 0.143541 -0.042256
C33   C     C_R   0.111616 0.468020 0.187406 -0.075293
C34   C     C_R   0.965120 0.430929 0.152990 0.177631
H34   H     H_    0.653926 0.402148 0.100137 0.139180
H35   H     H_    0.551282 0.408004 0.979948 0.130851
H36   H     H_    0.830911 0.485015 0.653430 0.175740
H37   H     H_    0.597471 0.428946 0.862355 0.162360
C35   C     C_R   0.216496 0.576912 0.841070 -0.031055
C36   C     C_R   0.275497 0.578437 0.912936 -0.101358
C37   C     C_R   0.181980 0.544635 0.957248 -0.010020
C38   C     C_R   0.242838 0.541439 0.027944 0.006211
C39   C     C_R   0.428199 0.611650 0.940620 0.231017
C40   C     C_R   0.489391 0.608795 0.010904 0.232675
C41   C     C_R   0.398147 0.571715 0.054035 -0.100568
C42   C     C_R   0.363511 0.533758 0.169140 -0.054181
C43   C     C_R   0.456759 0.566420 0.123634 -0.116026
C44   C     C_R   0.420117 0.533623 0.241011 0.211578
C45   C     C_R   0.319385 0.506011 0.286853 -0.533370
C46   C     C_R   0.167777 0.471602 0.262424 0.277196
H38   H     H_    0.288325 0.602879 0.807703 0.200664
H39   H     H_    0.575605 0.588911 0.142935 0.223752
H40   H     H_    0.362623 0.509486 0.342543 0.174750
C47   C     C_R   0.696422 0.951561 0.534348 0.060434
C48   C     C_R   0.775364 0.908460 0.575019 -0.185275
C49   C     C_R   0.918658 0.048650 0.558734 -0.187312
C50   C     C_R   0.762045 0.021429 0.530204 0.042139
C51   C     C_R   0.975381 0.119289 0.559203 -0.167605
C52   C     C_R   0.878924 0.166118 0.531157 -0.030217
C53   C     C_R   0.725446 0.138791 0.498028 0.062566
C54   C     C_R   0.667739 0.066134 0.496714 0.068425
C55   C     C_R   0.929563 0.239805 0.536143 0.092714
C56   C     C_R   0.827396 0.284253 0.507230 -0.479510
C57   C     C_R   0.680075 0.256827 0.470037 0.253782
C58   C     C_R   0.627789 0.184190 0.466686 0.033238
C59   C     C_R   0.545438 0.924036 0.497741 0.000339
C60   C     C_R   0.484817 0.852245 0.498028 -0.011386
C61   C     C_R   0.574645 0.807570 0.533740 -0.046711
C62   C     C_R   0.715329 0.838550 0.575050 -0.045411
H41   H     H_    0.864750 0.340894 0.512235 0.170319
H42   H     H_    0.095473 0.136831 0.582645 0.207796
H43   H     H_    0.782167 0.809285 0.607863 0.160958
C63   C     C_R   0.475409 0.157197 0.436783 -0.031260
C64   C     C_R   0.414586 0.089867 0.441693 -0.162716
C65   C     C_R   0.512944 0.039974 0.464131 0.068947
C66   C     C_R   0.457482 0.966459 0.458349 0.009535
C67   C     C_R   0.317182 0.932946 0.414811 0.251605
C68   C     C_R   0.334332 0.825060 0.462140 -0.062562
C69   C     C_R   0.249812 0.867946 0.424624 -0.196278
C70   C     C_R   0.277088 0.753303 0.459626 0.227695
C71   C     C_R   0.374549 0.707340 0.488077 -0.527169
C72   C     C_R   0.520905 0.733398 0.526524 0.244005
H44   H     H_    0.396382 0.189054 0.412798 0.158573
H45   H     H_    0.136115 0.848505 0.395866 0.192851
H46   H     H_    0.332264 0.651352 0.483279 0.178960
H47   H     H_    0.001695 0.016223 0.580662 0.147087
H48   H     H_    0.883812 0.927753 0.608586 0.128602
H49   H     H_    0.287196 0.079237 0.429109 0.147897
N1    N     N_R   0.853546 0.259053 0.317151 0.216606
O25   O     O_R   0.810129 0.191234 0.317182 -0.420096
O26   O     O_R   0.777768 0.289753 0.270931 -0.408413
N2    N     N_R   0.591498 0.801878 0.252074 0.284712
O27   O     O_R   0.652192 0.771488 0.189971 -0.310076
O28   O     O_R   0.476509 0.846632 0.252887 -0.406275
C73   C     C_3   0.196686 0.352939 0.831357 -0.774755
H50   H     H_    0.177193 0.364826 0.890890 0.213771
H51   H     H_    0.323463 0.339928 0.823683 0.287891
H52   H     H_    0.174905 0.402536 0.811984 0.255509
N3    N     N_R   0.467504 0.182439 0.688405 0.292993
O29   O     O_R   0.462812 0.170475 0.617485 -0.402824
O30   O     O_R   0.351107 0.154632 0.718789 -0.389667
C74   C     C_3   0.599959 0.223663 0.813528 -0.924113
H53   H     H_    0.494945 0.254365 0.835410 0.266416
H54   H     H_    0.586890 0.167784 0.822420 0.270289
H55   H     H_    0.710204 0.251377 0.845006 0.211002
C75   C     C_3   0.907547 0.359240 0.164874 -0.777963
H56   H     H_    0.006297 0.331498 0.185012 0.274957
H57   H     H_    0.801349 0.369545 0.197945 0.283434
H58   H     H_    0.868064 0.319934 0.112374 0.203863
N4    N     N_R   0.524580 0.647207 0.896887 0.247471
O31   O     O_R   0.473419 0.704263 0.877877 -0.380798
O32   O     O_R   0.672261 0.629169 0.885332 -0.403641
N5    N     N_R   0.640102 0.647649 0.039335 0.269660
O33   O     O_R   0.664286 0.715677 0.037483 -0.277877
O34   O     O_R   0.760903 0.612828 0.056889 -0.433085
C76   C     C_3   0.263417 0.693106 0.279078 -0.954946
H59   H     H_    0.299445 0.751923 0.300509 0.278001
H60   H     H_    0.313217 0.661273 0.315781 0.208710
H61   H     H_    0.313023 0.674308 0.224443 0.259324
C77   C     C_3   0.247547 0.955632 0.348705 -0.892632
H62   H     H_    0.135552 0.984956 0.362578 0.229594
H63   H     H_    0.336661 0.988154 0.325982 0.273073
H64   H     H_    0.213775 0.906820 0.303299 0.271417
C78   C     C_3   0.042661 0.766453 0.189721 -0.640253
H65   H     H_    0.998092 0.809570 0.234825 0.243095
H66   H     H_    0.173678 0.777469 0.185319 0.259947
H67   H     H_    0.979562 0.769264 0.137519 0.284729

loop_
_geom_bond_atom_site_label_1
_geom_bond_atom_site_label_2
_geom_bond_distance
_ccdc_geom_bond_type
P7    O22   1.744596 S    
C10   H19   1.099179 S    
C52   C53   1.417656 A    
C59   C60   1.428707 A    
C74   H54   1.110882 S    
C14   H29   1.108566 S    
C34   C75   1.489759 S    
C28   C29   1.401977 A    
P8    O23   1.542397 D    
O6    C10   1.408443 S    
C20   C21   1.395795 A    
C29   C30   1.431153 A    
C3    C78   1.530935 S    
C41   C43   1.410276 A    
C68   C69   1.393964 A    
P7    C57   1.872881 S    
C49   C50   1.415548 A    
C9    H17   1.108712 S    
Ba1   O16   2.797056 S    
C15   H31   1.106031 S    
C45   C46   1.401338 A    
C5    H9    1.111176 S    
C73   H50   1.109473 S    
C51   C52   1.401290 A    
O1    Ba1   2.852517 S    
P3    C70   1.849718 S    
O7    Ba1   2.856970 S    
C8    H14   1.106883 S    
C2    H3    1.112622 S    
C76   H60   1.102940 S    
C26   C37   1.411017 A    
C18   C19   1.412943 A    
C6    H10   1.113268 S    
C49   C51   1.394812 A    
C35   C36   1.416114 A    
C1    N2    1.461992 S    
C66   C67   1.429152 A    
C31   C32   1.429957 A    
C37   C38   1.423494 A    
P1    O1    1.523212 D    
C74   H53   1.106256 S    
O2    Ba1   2.948424 S    
C53   C58   1.419848 A    
C25   C26   1.422377 A    
C77   H64   1.109526 S    
C12   H24   1.106567 S    
P8    C27   1.860380 S    
C42   C43   1.412968 A    
O12   Ba2   2.853170 S    
P4    Ba2   3.428519 S    
P5    O18   1.540225 D    
C70   C71   1.397934 A    
N4    O32   1.301724 A    
C4    C5    1.522803 S    
C54   C65   1.419360 A    
P3    O11   1.765573 S    
C36   C37   1.410012 A    
N2    O28   1.301286 A    
C53   C54   1.429333 A    
C13   H27   1.115425 S    
C1    C10   1.540324 S    
P2    O20   1.568104 S    
C1    H2    1.107753 S    
C2    C3    1.542680 S    
O3    Ba1   2.773822 S    
C12   H25   1.112164 S    
C50   C54   1.416943 A    
C21   C22   1.410992 A    
C6    N1    1.463302 S    
C4    O15   1.397921 S    
O13   Ba2   2.949341 S    
C11   H21   1.111810 S    
C31   C38   1.417602 A    
C35   H38   1.073905 S    
N3    O30   1.301895 A    
C14   H30   1.109930 S    
C62   H43   1.079550 S    
Ba2   O21   2.857201 S    
H1    C10   1.101207 S    
O14   P8    1.732835 S    
C68   C70   1.407053 A    
N5    O34   1.299755 A    
C25   C30   1.420240 A    
P4    C29   1.882440 S    
C9    H18   1.110815 S    
C73   H51   1.100581 S    
C75   H57   1.098814 S    
C16   N3    1.467985 S    
C11   H22   1.116313 S    
O17   Ba2   2.775641 S    
C59   C66   1.424805 A    
O16   P7    1.760098 S    
C78   H65   1.110306 S    
C7    H13   1.092686 S    
C71   H46   1.081671 S    
O4    P6    1.545668 D    
C61   C62   1.401527 A    
C63   C64   1.375343 A    
C67   C69   1.385811 A    
C76   H61   1.106502 S    
C9    H16   1.112363 S    
C19   C20   1.388351 A    
C64   H49   1.076699 S    
C39   N4    1.434770 S    
C5    H7    1.110586 S    
C75   H56   1.097145 S    
C42   C44   1.417777 A    
C39   C40   1.415306 A    
Ba1   O13   2.792361 S    
P1    O2    1.565186 S    
C7    H12   1.113242 S    
N1    O26   1.315517 A    
P4    O12   1.523427 D    
C78   H66   1.111974 S    
C76   H59   1.108269 S    
C12   H23   1.112869 S    
C11   O22   1.405458 S    
C73   H52   1.105769 S    
P2    O10   1.749037 S    
N2    O27   1.302507 A    
P3    O9    1.544824 D    
C15   H32   1.114250 S    
P6    C44   1.860436 S    
C3    H4    1.101159 S    
C13   C14   1.534614 S    
P1    Ba1   3.427948 S    
O11   C2    1.412796 S    
P1    C46   1.912391 S    
C17   C18   1.401665 A    
P4    O13   1.565215 S    
C48   C62   1.392733 A    
C47   C48   1.412912 A    
N4    O31   1.299649 A    
C20   H35   1.084430 S    
C30   C35   1.409378 A    
O5    C6    1.404373 S    
P3    O8    1.727125 S    
C48   H48   1.077337 S    
N3    O29   1.299132 A    
C74   H55   1.109390 S    
C4    H6    1.110255 S    
P5    C55   1.866177 S    
C38   C41   1.410002 A    
C5    H8    1.107117 S    
C17   C22   1.416446 A    
O8    Ba1   2.774984 S    
C57   C58   1.407781 A    
C19   H34   1.082949 S    
C63   H44   1.069229 S    
C24   C25   1.419605 A    
C18   C34   1.409020 A    
N5    O33   1.301860 A    
C55   C56   1.405107 A    
C49   H47   1.077785 S    
C15   O24   1.399899 S    
C60   C68   1.413028 A    
N1    O25   1.316885 A    
C11   C12   1.532978 S    
C40   C41   1.420410 A    
O3    P6    1.735578 S    
C4    H5    1.104834 S    
C8    C9    1.523500 S    
P8    O24   1.752205 S    
C23   H37   1.081375 S    
C21   C23   1.393927 A    
C32   C42   1.414947 A    
Ba2   O20   2.796464 S    
C60   C61   1.420698 A    
C51   H42   1.081036 S    
C58   C63   1.390238 A    
C52   C55   1.416963 A    
C32   C33   1.435092 A    
C36   C39   1.414075 A    
C17   C31   1.406423 A    
C7    H11   1.115109 S    
C14   C73   1.527283 S    
C8    H15   1.111433 S    
C56   C57   1.400649 A    
C78   H67   1.111136 S    
C77   H62   1.111495 S    
C61   C72   1.425080 A    
C64   C65   1.404121 A    
O10   C8    1.398720 S    
C28   H36   1.081764 S    
C6    C7    1.533371 S    
P2    O7    1.523045 D    
O2    Ba2   2.793004 S    
C23   C24   1.404300 A    
C40   N5    1.440180 S    
C43   H39   1.072814 S    
Ba1   Ba2   4.585694 S    
C2    C76   1.519052 S    
O16   Ba2   2.947844 S    
C16   C74   1.537404 S    
O14   Ba2   2.773166 S    
P5    O17   1.739578 S    
C33   C34   1.427920 A    
C75   H58   1.108846 S    
P7    O21   1.570918 D    
C1    H20   1.109652 S    
C71   C72   1.397897 A    
C22   C26   1.406235 A    
C27   C28   1.402446 A    
C3    H26   1.110522 S    
C77   H63   1.108928 S    
O19   C13   1.400421 S    
C69   H45   1.075000 S    
C45   H40   1.081981 S    
P5    O19   1.753083 S    
Ba1   O20   2.948690 S    
P2    Ba1   3.430583 S    
P2    C72   1.868366 S    
H33   C16   1.112496 S    
P1    O5    1.771548 S    
C47   C50   1.428800 A    
C15   C16   1.542138 S    
C65   C66   1.421847 A    
C13   H28   1.109202 S    
C33   C46   1.456712 A    
O6    P6    1.755447 S    
C47   C59   1.422721 A    
C56   H41   1.081971 S    
P4    O15   1.751807 S    
C44   C45   1.403095 A    
C24   C27   1.409354 A    
C67   C77   1.516994 S    
