data_mof_unit_34399.cif
_audit_creation_date              2012-12-11T16:09:22-0500
_audit_creation_method            fapswitch 2.2
_symmetry_space_group_name_H-M    P1
_symmetry_Int_Tables_number       1
_space_group_crystal_system       triclinic
_cell_length_a                    6.95381
_cell_length_b                    21.364172
_cell_length_c                    23.61882
_cell_angle_alpha                 90.032076
_cell_angle_beta                  90.053158
_cell_angle_gamma                 90.018904
_cell_volume                      3508.86616494

loop_
_atom_site_label
_atom_site_type_symbol
_atom_type_description
_atom_site_fract_x
_atom_site_fract_y
_atom_site_fract_z
_atom_type_partial_charge
O1    O     O_R   0.494270 0.443530 0.442350 -0.535427
O2    O     O_R   0.824060 0.436290 0.557250 -0.536499
O3    O     O_R   0.994370 0.556470 0.557650 -0.536016
C1    C     C_R   0.655320 0.421156 0.576610 0.722715
O4    O     O_R   0.823990 0.436120 0.442760 -0.533759
O5    O     O_R   0.994300 0.556300 0.442340 -0.534908
C2    C     C_R   0.655132 0.420941 0.423336 0.726459
O6    O     O_R   0.494350 0.443700 0.557660 -0.534947
O7    O     O_3   0.660800 0.539430 0.500000 -0.368973
V1    V     V_3+5 0.935650 0.492690 0.500000 1.439036
O8    O     O_R   0.324020 0.563710 0.442750 -0.538696
C3    C     C_R   0.155189 0.578859 0.423296 0.729819
O9    O     O_R   0.324090 0.563880 0.557240 -0.538562
C4    C     C_R   0.155390 0.579007 0.576622 0.722392
V2    V     V_3+5 0.435660 0.507310 0.500000 1.429376
O10   O     O_3   0.160640 0.460570 0.500000 -0.365292
C5    C     C_3   0.049523 0.720028 0.797149 -0.149005
C6    C     C_3   0.237265 0.704167 0.763999 -0.180362
H1    H     H_    0.999173 0.696094 0.836114 0.128346
C7    C     C_1   0.145893 0.624579 0.622092 -0.188439
C8    C     C_1   0.073586 0.874565 0.877207 -0.183903
C9    C     C_3   0.935920 0.723153 0.740303 -0.158511
C10   C     C_3   0.123110 0.707890 0.707662 0.110821
C11   C     C_3   0.981096 0.794525 0.735641 -0.170239
C12   C     C_3   0.094960 0.790750 0.792015 0.118074
C13   C     C_3   0.167190 0.777959 0.703570 0.194081
C14   C     C_3   0.278276 0.774900 0.759182 0.193290
C15   C     C_1   0.136430 0.662280 0.660507 -0.023023
C16   C     C_1   0.082622 0.836681 0.838935 -0.013021
H2    H     H_    0.879077 0.832083 0.723361 0.125138
H3    H     H_    0.794119 0.700852 0.732547 0.125202
C17   C     C_3   0.249646 0.811342 0.251149 -0.331708
C18   C     C_3   0.902207 0.782234 0.237077 -0.343404
C19   C     C_3   0.917252 0.733598 0.285991 -0.379682
H4    H     H_    0.215521 0.788921 0.341041 0.149201
H5    H     H_    0.790807 0.766697 0.206249 0.141750
H6    H     H_    0.854448 0.828063 0.254505 0.151942
H7    H     H_    0.873511 0.756082 0.326503 0.156789
H8    H     H_    0.814699 0.694563 0.278087 0.137289
C20   C     C_1   0.145522 0.624354 0.377610 -0.186124
C21   C     C_3   0.098534 0.790116 0.206648 0.241938
C22   C     C_3   0.259744 0.764493 0.301507 -0.327560
C23   C     C_3   0.125275 0.707514 0.291081 0.242981
C24   C     C_3   0.175904 0.676247 0.232781 0.086454
C25   C     C_3   0.160824 0.725162 0.183755 -0.303375
C26   C     C_1   0.136676 0.661912 0.338953 -0.095322
C27   C     C_1   0.084261 0.836592 0.159625 -0.083518
C28   C     C_1   0.074176 0.874614 0.121365 -0.184529
H9    H     H_    0.054401 0.708491 0.151899 0.122785
H10   H     H_    0.067797 0.638856 0.224426 0.127602
C29   C     C_3   0.424783 0.292841 0.735449 -0.404153
C30   C     C_3   0.659042 0.221433 0.683050 0.412793
C31   C     C_3   0.667429 0.174162 0.735056 -0.055482
H11   H     H_    0.820681 0.160729 0.741760 0.096198
C32   C     C_1   0.573981 0.123738 0.877239 -0.192787
C33   C     C_3   0.627191 0.290327 0.706743 0.168843
C34   C     C_3   0.404366 0.240605 0.780765 -0.361409
C35   C     C_3   0.600457 0.207249 0.791322 0.154432
C36   C     C_3   0.755310 0.258262 0.805625 0.071276
C37   C     C_3   0.782410 0.304281 0.754007 -0.019869
C38   C     C_1   0.584669 0.161418 0.838843 -0.005539
C39   C     C_1   0.637500 0.337145 0.659857 0.034100
C40   C     C_1   0.645860 0.375302 0.621798 -0.183776
H12   H     H_    0.926964 0.294439 0.736410 0.106989
H13   H     H_    0.398061 0.338890 0.755534 0.154523
C41   C     C_3   0.415847 0.283209 0.271977 -0.429837
C42   C     C_3   0.746149 0.313576 0.239862 0.070648
C43   C     C_3   0.744484 0.262797 0.191680 -0.010730
H14   H     H_    0.344749 0.263605 0.183160 0.162470
C44   C     C_1   0.574226 0.124081 0.121388 -0.185758
C45   C     C_3   0.627006 0.291027 0.292021 0.180567
C46   C     C_3   0.401857 0.238018 0.220378 -0.417700
C47   C     C_3   0.601351 0.208060 0.207309 0.195934
C48   C     C_3   0.675860 0.174991 0.263599 0.410376
C49   C     C_3   0.699342 0.225695 0.311740 -0.369509
C50   C     C_1   0.585115 0.161929 0.159775 -0.034483
C51   C     C_1   0.637121 0.337293 0.339450 0.002611
C52   C     C_1   0.645494 0.375201 0.377846 -0.177588
H15   H     H_    0.850769 0.229112 0.326425 0.133691
H16   H     H_    0.292674 0.201360 0.228637 0.150378
O11   O     O_R   0.724990 0.055630 0.941600 -0.535421
O12   O     O_R   0.395220 0.063160 0.056480 -0.537682
O13   O     O_R   0.225040 0.942970 0.056870 -0.535403
C53   C     C_R   0.564081 0.078359 0.075910 0.728400
O14   O     O_R   0.395270 0.063000 0.941990 -0.538210
O15   O     O_R   0.225080 0.942800 0.941570 -0.534200
C54   C     C_R   0.564042 0.078157 0.922644 0.723839
O16   O     O_R   0.724940 0.055790 0.056910 -0.532514
O17   O     O_3   0.558580 0.959880 0.999250 -0.367347
V3    V     V_3+5 0.283680 0.006590 0.999220 1.430989
O18   O     O_R   0.895380 0.935350 0.941950 -0.537174
C55   C     C_R   0.064102 0.920250 0.922579 0.721245
O19   O     O_R   0.895330 0.935520 0.056440 -0.537724
C56   C     C_R   0.064177 0.920402 0.075916 0.728812
V4    V     V_3+5 0.783690 0.991900 0.999180 1.434129
O20   O     O_3   0.058660 0.038680 0.999200 -0.366993
H17   H     H_    0.344148 0.667787 0.775634 0.124624
H18   H     H_    0.300762 0.729752 0.161259 0.157535
N1    N     N_3   0.366198 0.646414 0.232245 -0.678135
H19   H     H_    0.473830 0.679523 0.239635 0.231235
H20   H     H_    0.373791 0.612506 0.264039 0.234140
H21   H     H_    0.393797 0.814916 0.230950 0.139348
H22   H     H_    0.410645 0.749148 0.308313 0.137221
H23   H     H_    0.293127 0.206609 0.766942 0.130687
H24   H     H_    0.307856 0.288601 0.703589 0.162584
N2    N     N_3   0.840455 0.218410 0.650534 -0.658062
H25   H     H_    0.851901 0.174454 0.631304 0.239412
H26   H     H_    0.960753 0.221528 0.676795 0.177460
N3    N     N_3   0.500722 0.205780 0.643571 -0.623362
H27   H     H_    0.372729 0.196853 0.665135 0.222812
H28   H     H_    0.532621 0.164586 0.621558 0.254047
N4    N     N_3   0.564504 0.115322 0.723231 -0.675480
H29   H     H_    0.619490 0.080024 0.749303 0.232659
H30   H     H_    0.418592 0.119391 0.732778 0.231496
N5    N     N_3   0.790071 0.370387 0.771603 -0.669965
H31   H     H_    0.653334 0.388792 0.778399 0.234456
H32   H     H_    0.853423 0.396823 0.739355 0.229514
N6    N     N_3   0.710374 0.290352 0.859098 -0.641533
H33   H     H_    0.595118 0.321123 0.853826 0.250713
H34   H     H_    0.829850 0.316817 0.871451 0.257021
H35   H     H_    0.348128 0.261089 0.820718 0.168914
N7    N     N_3   0.465048 0.803596 0.769182 -0.663755
H36   H     H_    0.556435 0.787766 0.737223 0.218309
H37   H     H_    0.449304 0.851795 0.763282 0.221173
H38   H     H_    0.894918 0.233612 0.812286 0.085925
H39   H     H_    0.355824 0.329623 0.260024 0.168090
N8    N     N_3   0.942690 0.330782 0.256015 -0.682412
H40   H     H_    0.010410 0.350514 0.220750 0.241043
H41   H     H_    0.019277 0.290487 0.266501 0.221076
H42   H     H_    0.675706 0.357011 0.223912 0.154619
N9    N     N_3   0.702733 0.292576 0.136896 -0.679808
H43   H     H_    0.709908 0.259507 0.104351 0.243056
H44   H     H_    0.566248 0.312821 0.136533 0.235641
H45   H     H_    0.890782 0.242730 0.187198 0.144235
H46   H     H_    0.617541 0.211527 0.350155 0.156807
N10   N     N_3   0.539653 0.126552 0.283144 -0.662032
H47   H     H_    0.412918 0.146084 0.298973 0.217606
H48   H     H_    0.504223 0.096091 0.250104 0.239757
N11   N     N_3   0.232880 0.809545 0.652510 -0.662456
H49   H     H_    0.258850 0.856282 0.663122 0.223745
H50   H     H_    0.365270 0.789972 0.641381 0.225052
H51   H     H_    0.326957 0.264739 0.307389 0.165414
N12   N     N_3   0.861129 0.143600 0.253108 -0.664691
H52   H     H_    0.892719 0.114460 0.287481 0.251387
H53   H     H_    0.973337 0.175933 0.251594 0.183639
H54   H     H_    0.212225 0.858698 0.267394 0.148603

loop_
_geom_bond_atom_site_label_1
_geom_bond_atom_site_label_2
_ccdc_geom_bond_type
C45   C49   S    
C48   N12   S    
C3    C20   S    
O19   C56   A    
C31   C35   S    
C43   N9    S    
C47   C48   S    
V4    O20   S    
C1    O6    A    
C22   H22   S    
N4    H30   S    
C31   H11   S    
C30   C31   S    
C20   C26   T    
C1    C40   S    
C13   C14   S    
C28   C56   S    
C9    C11   S    
C11   C13   S    
C25   H18   S    
N3    H28   S    
O5    C3    A    
O11   V4    S    
C24   N1    S    
C49   H46   S    
C17   H54   S    
N2    H25   S    
N5    H31   S    
C18   H5    S    
C29   C33   S    
C29   H13   S    
C10   C13   S    
C34   H23   S    
H4    C22   S    
N6    H33   S    
O8    V2    S    
C19   H8    S    
C41   C46   S    
C27   C28   T    
N5    H32   S    
C48   N10   S    
C17   C21   S    
C29   C34   S    
C6    H17   S    
C44   C53   S    
O7    V1    S    
C35   C38   S    
O16   V4    S    
C30   N2    S    
C36   C37   S    
O19   V4    S    
O1    C2    A    
O9    C4    A    
N4    H29   S    
C14   N7    S    
C5    C6    S    
N6    H34   S    
O14   C54   A    
C12   C16   S    
O14   V3    S    
C9    H3    S    
C19   C23   S    
C30   C33   S    
C42   C43   S    
O8    C3    A    
C4    C7    S    
C11   C12   S    
N10   H48   S    
C13   N11   S    
C48   C49   S    
O18   C55   A    
O4    C2    A    
C46   C47   S    
C7    C15   T    
C43   C47   S    
C51   C52   T    
O13   C56   A    
C8    C16   T    
C18   H6    S    
C41   H39   S    
O17   V4    S    
H14   C46   S    
O2    C1    A    
C23   C24   S    
N8    H41   S    
C39   C40   T    
C42   N8    S    
C41   C45   S    
C25   H9    S    
C29   H24   S    
C18   C19   S    
C21   C27   S    
C10   C15   S    
O11   C54   A    
O3    C4    A    
C2    C52   S    
O1    V2    S    
C31   N4    S    
N1    H20   S    
O6    V2    S    
O12   C53   A    
O9    V2    S    
O15   V3    S    
C47   C50   S    
C33   C39   S    
C42   H42   S    
C12   C14   S    
C22   C23   S    
N7    H37   S    
N9    H43   S    
O2    V1    S    
C45   C51   S    
C24   C25   S    
C24   H10   S    
N12   H53   S    
O13   V3    S    
C17   C22   S    
C19   H7    S    
C6    C14   S    
C53   O16   A    
N10   H47   S    
N9    H44   S    
O5    V1    S    
N11   H49   S    
V3    O20   S    
C41   H51   S    
C17   H21   S    
C36   H38   S    
C5    C9    S    
O12   V3    S    
N1    H19   S    
C37   H12   S    
C5    C12   S    
C43   H45   S    
N12   H52   S    
C35   C36   S    
C18   C21   S    
O4    V1    S    
C46   H16   S    
O3    V1    S    
O15   C55   A    
N3    H27   S    
C44   C50   T    
N11   H50   S    
C34   C35   S    
N2    H26   S    
C30   N3    S    
C6    C10   S    
V2    O10   S    
C32   C38   T    
C5    H1    S    
C42   C45   S    
C32   C54   S    
C23   C26   S    
C11   H2    S    
C34   H35   S    
C33   C37   S    
C36   N6    S    
O18   V4    S    
N7    H36   S    
C21   C25   S    
C9    C10   S    
C37   N5    S    
V1    O10   S    
O17   V3    S    
C49   H15   S    
N8    H40   S    
O7    V2    S    
C8    C55   S    
