data_mof_unit_41937.cif
_audit_creation_date              2012-12-11T16:28:33-0500
_audit_creation_method            fapswitch 2.2
_symmetry_space_group_name_H-M    P1
_symmetry_Int_Tables_number       1
_space_group_crystal_system       triclinic
_cell_length_a                    16.468692
_cell_length_b                    7.246833
_cell_length_c                    15.285058
_cell_angle_alpha                 89.993075
_cell_angle_beta                  94.67805
_cell_angle_gamma                 89.957664
_cell_volume                      1818.13089818

loop_
_atom_site_label
_atom_site_type_symbol
_atom_type_description
_atom_site_fract_x
_atom_site_fract_y
_atom_site_fract_z
_atom_type_partial_charge
O1    O     O_R   0.663460 0.361760 0.165970 -0.531979
O2    O     O_R   0.336540 0.638240 0.834030 -0.531977
O3    O     O_R   0.836540 0.861760 0.334030 -0.532133
O4    O     O_R   0.163460 0.138240 0.665970 -0.532136
O5    O     O_R   0.827100 0.689870 0.163730 -0.534641
O6    O     O_R   0.172900 0.310130 0.836270 -0.534641
O7    O     O_R   0.672900 0.189870 0.336270 -0.533746
O8    O     O_R   0.327100 0.810130 0.663730 -0.533745
H1    H     H_    0.211242 0.086101 0.504324 0.120467
H2    H     H_    0.788757 0.913906 0.495678 0.120472
H3    H     H_    0.288717 0.584663 0.994764 0.119120
H4    H     H_    0.711282 0.415344 0.005236 0.119118
C1    C     C_R   0.853304 0.522849 0.143612 0.710977
C2    C     C_R   0.146696 0.477150 0.856388 0.710975
C3    C     C_R   0.646624 0.022917 0.356305 0.711345
C4    C     C_R   0.353376 0.977083 0.643694 0.711344
O9    O     O_R   0.663490 0.691370 0.155500 -0.535540
O10   O     O_R   0.336510 0.308630 0.844500 -0.535540
O11   O     O_R   0.836510 0.191370 0.344500 -0.535666
O12   O     O_R   0.163490 0.808630 0.655500 -0.535665
O13   O     O_R   0.671770 0.863320 0.325740 -0.532436
O14   O     O_R   0.328230 0.136680 0.674260 -0.532435
O15   O     O_R   0.828230 0.363320 0.174260 -0.532888
O16   O     O_R   0.171770 0.636680 0.825740 -0.532887
C5    C     C_R   0.635531 0.523067 0.134478 0.677050
C6    C     C_R   0.364469 0.476933 0.865522 0.677053
C7    C     C_R   0.864156 0.022895 0.365873 0.677141
C8    C     C_R   0.135844 0.977105 0.634127 0.677140
O17   O     O_3   0.752910 0.528800 0.305860 -0.373597
O18   O     O_3   0.247090 0.471200 0.694140 -0.373597
O19   O     O_3   0.747090 0.028800 0.194140 -0.374439
O20   O     O_3   0.252910 0.971200 0.805860 -0.374438
V1    V     V_3+5 0.749460 0.803010 0.239640 1.428946
V2    V     V_3+5 0.250540 0.196990 0.760360 1.428939
V3    V     V_3+5 0.750540 0.303010 0.260360 1.430027
V4    V     V_3+5 0.249460 0.696990 0.739640 1.430028
C9    C     C_1   0.468955 0.994897 0.530259 0.034790
C10   C     C_1   0.531043 0.005102 0.469738 0.034787
C11   C     C_1   0.031125 0.494993 0.969831 0.025963
C12   C     C_1   0.968874 0.505005 0.030169 0.025969
H5    H     H_    0.766648 0.809964 0.641652 0.123147
H6    H     H_    0.233351 0.190062 0.358358 0.123102
H7    H     H_    0.734786 0.312319 0.861183 0.109774
H8    H     H_    0.265218 0.687719 0.138816 0.109795
C13   C     C_R   0.028928 0.117854 0.328407 -0.202129
C14   C     C_R   0.971072 0.882154 0.671594 -0.202181
C15   C     C_R   0.470212 0.618581 0.171293 -0.189079
C16   C     C_R   0.529790 0.381442 0.828704 -0.189057
C17   C     C_R   0.107798 0.159443 0.306964 0.461895
C18   C     C_R   0.892202 0.840572 0.693037 0.461880
C19   C     C_R   0.391269 0.660542 0.192901 0.471572
C20   C     C_R   0.608733 0.339489 0.807093 0.471601
C21   C     C_R   0.172369 0.150805 0.372407 -0.230376
C22   C     C_R   0.827630 0.849209 0.627596 -0.230339
C23   C     C_R   0.326826 0.650296 0.126599 -0.242184
C24   C     C_R   0.673176 0.349728 0.873398 -0.242205
C25   C     C_R   0.158866 0.093269 0.456900 -0.201327
C26   C     C_R   0.841133 0.906737 0.543102 -0.201355
C27   C     C_R   0.340938 0.592631 0.042357 -0.194757
C28   C     C_R   0.659062 0.407378 0.957642 -0.194751
C29   C     C_R   0.079834 0.046812 0.479406 0.075702
C30   C     C_R   0.920166 0.953190 0.520594 0.075704
C31   C     C_R   0.420080 0.546714 0.020246 0.077877
C32   C     C_R   0.579920 0.453290 0.979753 0.077879
C33   C     C_R   0.013421 0.059924 0.413964 -0.003090
C34   C     C_R   0.986579 0.940078 0.586036 -0.003074
C35   C     C_R   0.486173 0.560321 0.085903 -0.007642
C36   C     C_R   0.513828 0.439686 0.914096 -0.007649
C37   C     C_R   0.066538 0.986917 0.565433 -0.133066
C38   C     C_R   0.933462 0.013083 0.434568 -0.133068
C39   C     C_R   0.433702 0.486569 0.934347 -0.133149
C40   C     C_R   0.566298 0.513432 0.065653 -0.133147
C41   C     C_1   0.416191 0.986360 0.581732 -0.185426
C42   C     C_1   0.583807 0.013640 0.418266 -0.185431
C43   C     C_1   0.083953 0.486511 0.918434 -0.184727
C44   C     C_1   0.916047 0.513488 0.081566 -0.184708
H9    H     H_    0.980209 0.129858 0.276749 0.127936
H10   H     H_    0.019790 0.870154 0.723252 0.127933
H11   H     H_    0.518939 0.630560 0.222945 0.128270
H12   H     H_    0.481063 0.369472 0.777051 0.128268
O21   O     O_3   0.118885 0.222978 0.223264 -0.556869
C45   C     C_3   0.172081 0.103674 0.182158 0.071513
H13   H     H_    0.151938 0.957174 0.185862 0.111398
H14   H     H_    0.235564 0.116903 0.212358 0.125870
C46   C     C_3   0.172241 0.155861 0.085769 -0.667405
H15   H     H_    0.192711 0.300972 0.079537 0.215679
H16   H     H_    0.214405 0.063912 0.052960 0.178216
H17   H     H_    0.109995 0.140897 0.052725 0.222316
O22   O     O_3   0.881107 0.777054 0.776737 -0.556862
C47   C     C_3   0.827987 0.896508 0.817864 0.071434
H18   H     H_    0.764498 0.883524 0.787653 0.125860
H19   H     H_    0.848232 0.042941 0.814194 0.111424
C48   C     C_3   0.827784 0.844252 0.914240 -0.667375
H20   H     H_    0.890038 0.858982 0.947293 0.222318
H21   H     H_    0.785679 0.936321 0.947064 0.178208
H22   H     H_    0.807216 0.699205 0.920437 0.215687
O23   O     O_3   0.382110 0.722115 0.277963 -0.558121
C49   C     C_3   0.306392 0.670600 0.308148 0.088056
H23   H     H_    0.291251 0.523807 0.292147 0.126784
H24   H     H_    0.257231 0.762938 0.279648 0.111649
C50   C     C_3   0.310364 0.692786 0.407338 -0.675166
H25   H     H_    0.321530 0.839624 0.425121 0.213788
H26   H     H_    0.251675 0.649361 0.431907 0.180239
H27   H     H_    0.360205 0.606428 0.438976 0.224087
O24   O     O_3   0.617889 0.277950 0.722024 -0.558117
C51   C     C_3   0.693642 0.329287 0.691868 0.088055
H28   H     H_    0.742752 0.236827 0.720379 0.111600
H29   H     H_    0.708845 0.476043 0.707883 0.126841
C52   C     C_3   0.689688 0.307121 0.592679 -0.675167
H30   H     H_    0.639901 0.393616 0.561029 0.224081
H31   H     H_    0.748409 0.350388 0.568134 0.180239
H32   H     H_    0.678450 0.160314 0.574883 0.213795

loop_
_geom_bond_atom_site_label_1
_geom_bond_atom_site_label_2
_ccdc_geom_bond_type
C19   O23   S    
C26   C30   A    
C50   H25   S    
C23   C27   A    
C8    C37   S    
O10   C6    A    
C15   H11   S    
O21   C45   S    
C46   H15   S    
C30   C38   A    
C48   H20   S    
C32   C36   A    
H2    C26   S    
C14   C34   A    
C16   C20   A    
C52   H31   S    
H6    C21   S    
C22   C26   A    
C34   C37   A    
O13   V1    S    
C51   H28   S    
O3    V1    S    
C17   O21   S    
C33   C38   A    
C1    O15   A    
C35   C40   A    
O8    V4    S    
C2    O16   A    
C12   C44   T    
O5    V1    S    
O19   V1    S    
C11   C43   T    
O11   C7    A    
O5    C1    A    
O7    C3    A    
O8    C4    A    
O1    C5    A    
C6    C39   S    
O9    V1    S    
H3    C27   S    
C15   C35   A    
O4    C8    A    
C14   C18   A    
O23   C49   S    
O4    V2    S    
C46   H16   S    
O14   V2    S    
C31   C35   A    
C30   C34   A    
C4    C41   S    
H1    C25   S    
C52   H32   S    
C11   C12   S    
C14   H10   S    
C21   C25   A    
C15   C19   A    
O12   C8    A    
O6    V2    S    
O20   V2    S    
C9    C10   S    
O6    C2    A    
C18   O22   S    
C47   H19   S    
C1    C44   S    
C13   C17   A    
O2    C6    A    
C5    C40   S    
O16   V4    S    
C16   C36   A    
O10   V2    S    
C7    C38   S    
H4    C28   S    
C31   C39   A    
C20   O24   S    
C49   H23   S    
C50   H27   S    
C45   H14   S    
C13   C33   A    
C27   C31   A    
C45   C46   S    
O1    V3    S    
C47   C48   S    
C10   C42   T    
C46   H17   S    
O2    V4    S    
C9    C41   T    
C4    O14   A    
O7    V3    S    
C25   C29   A    
C48   H22   S    
C49   C50   S    
O24   C51   S    
O17   V3    S    
C49   H24   S    
C50   H26   S    
O18   V4    S    
C28   C32   A    
C29   C37   A    
C2    C43   S    
C16   H12   S    
O3    C7    A    
O9    C5    A    
C18   C22   A    
O11   V3    S    
C52   H30   S    
H8    C23   S    
C47   H18   S    
C51   H29   S    
C36   C39   A    
C17   C21   A    
C19   C23   A    
C32   C40   A    
O15   V3    S    
H5    C22   S    
O12   V4    S    
C29   C33   A    
H7    C24   S    
C3    O13   A    
C3    C42   S    
C24   C28   A    
C48   H21   S    
C45   H13   S    
C13   H9    S    
O22   C47   S    
C20   C24   A    
C51   C52   S    
