data_mof_unit_58700.cif
_audit_creation_date              2012-10-26T20:19:17-0400
_audit_creation_method            fapswitch 2.2
_symmetry_space_group_name_H-M    P1
_symmetry_Int_Tables_number       1
_space_group_crystal_system       triclinic
_cell_length_a                    15.07908
_cell_length_b                    12.958866
_cell_length_c                    12.015027
_cell_angle_alpha                 100.238995
_cell_angle_beta                  95.22838
_cell_angle_gamma                 96.933786
_cell_volume                      2278.25951512

loop_
_atom_site_label
_atom_site_type_symbol
_atom_type_description
_atom_site_fract_x
_atom_site_fract_y
_atom_site_fract_z
_atom_type_partial_charge
C1    C     C_R   0.503819 0.300155 0.477509 0.602981
C2    C     C_R   0.526187 0.881688 0.643706 0.195196
C3    C     C_R   0.545922 0.143474 0.552344 0.220446
C4    C     C_R   0.461966 0.857849 0.445731 0.235054
C5    C     C_R   0.525524 0.034316 0.550597 -0.012212
C6    C     C_R   0.483913 0.966519 0.448229 -0.019257
C7    C     C_R   0.387077 0.461031 0.030680 -0.065631
C8    C     C_R   0.613196 0.538966 0.968971 -0.081060
C9    C     C_R   0.401835 0.443236 0.142443 0.354655
C10   C     C_R   0.597992 0.557459 0.857477 0.312506
C11   C     C_R   0.550728 0.530954 0.154091 0.345406
C12   C     C_R   0.496476 0.699902 0.522471 0.601147
C13   C     C_R   0.449439 0.468854 0.845859 0.304429
C14   C     C_R   0.541943 0.515808 0.031169 -0.070083
C15   C     C_R   0.458426 0.483671 0.968654 -0.078201
C16   C     C_R   0.328632 0.491347 0.497391 0.649074
C17   C     C_R   0.671422 0.508744 0.502696 0.643768
C18   C     C_R   0.831526 0.603112 0.550730 0.254325
C19   C     C_R   0.168824 0.396116 0.450367 0.256144
C20   C     C_R   0.768981 0.510506 0.506421 0.048866
C21   C     C_R   0.231144 0.488887 0.494337 0.067611
C22   C     C_R   0.798689 0.414440 0.465059 0.224249
C23   C     C_R   0.011455 0.327838 0.368385 0.287889
C24   C     C_R   0.201057 0.583653 0.539611 0.182176
C25   C     C_R   0.890319 0.412490 0.451078 0.033721
C26   C     C_R   0.110011 0.582940 0.558198 -0.016955
C27   C     C_R   0.953743 0.500507 0.505833 -0.107633
C28   C     C_R   0.046495 0.496296 0.501295 -0.089901
C29   C     C_R   0.924532 0.592917 0.564731 0.014840
C30   C     C_R   0.075828 0.405611 0.439565 0.029541
C31   C     C_R   0.919088 0.326990 0.380086 0.255751
C32   C     C_R   0.081425 0.664911 0.634664 0.243173
C33   C     C_R   0.989106 0.671612 0.635691 0.349801
C34   C     C_R   0.493336 0.814573 0.538568 -0.008405
C35   C     C_R   0.509996 0.185987 0.460896 0.002890
C36   C     C_R   0.467839 0.007948 0.348638 0.268147
C37   C     C_R   0.546109 0.991658 0.648761 0.264861
C38   C     C_R   0.475329 0.118264 0.356538 0.189583
Cu1   Cu    Cu3+1 0.506660 0.507730 0.615930 1.202270
Cu2   Cu    Cu3+1 0.493340 0.492270 0.384070 1.229418
H1    H     H_    0.318621 0.450731 0.990470 0.211573
H2    H     H_    0.010447 0.804304 0.748087 0.394730
H3    H     H_    0.369341 0.739456 0.380744 0.342815
H4    H     H_    0.634961 0.265842 0.616126 0.339501
H5    H     H_    0.526115 0.891025 0.807065 0.345305
H6    H     H_    0.398919 0.111195 0.215239 0.367834
H7    H     H_    0.470104 0.975496 0.184491 0.343786
H8    H     H_    0.626436 0.019023 0.789971 0.353119
H9    H     H_    0.445494 0.234015 0.743766 0.379780
H10   H     H_    0.632242 0.802145 0.312094 0.372780
H11   H     H_    0.696202 0.780989 0.943832 0.370106
H12   H     H_    0.681745 0.549798 0.008979 0.218293
H13   H     H_    0.204660 0.242770 0.093241 0.401456
H14   H     H_    0.681317 0.802555 0.516630 0.352683
H15   H     H_    0.318389 0.196021 0.484613 0.373897
H16   H     H_    0.762955 0.266750 0.465221 0.359368
H17   H     H_    0.230070 0.735878 0.555760 0.369763
H18   H     H_    0.883385 0.180667 0.303865 0.353533
H19   H     H_    0.190962 0.696346 0.739786 0.376768
H20   H     H_    0.990609 0.243066 0.214946 0.352910
N1    N     N_R   0.516670 0.519360 0.790130 -0.266952
N2    N     N_R   0.483330 0.480640 0.209870 -0.267700
O1    O     O_R   0.504720 0.354460 0.582000 -0.465722
O2    O     O_2   0.859265 0.793736 0.493479 -0.228600
O3    O     O_3   0.692362 0.727773 0.502325 -0.486778
O4    O     O_2   0.142092 0.206195 0.508933 -0.212977
O5    O     O_2   0.190695 0.206811 0.321053 -0.174808
O6    O     O_3   0.308401 0.271149 0.495332 -0.461135
O7    O     O_3   0.735874 0.324410 0.436546 -0.659491
O8    O     O_3   0.262523 0.675238 0.564804 -0.708587
O9    O     O_3   0.856078 0.247045 0.316343 -0.649292
O10   O     O_3   0.141267 0.734243 0.716222 -0.673901
O11   O     O_3   0.039056 0.261096 0.279535 -0.609507
O12   O     O_R   0.495280 0.645540 0.418000 -0.449003
O13   O     O_3   0.960795 0.746411 0.716319 -0.564247
O14   O     O_3   0.407137 0.795785 0.353490 -0.555828
O15   O     O_3   0.600303 0.207360 0.643726 -0.599267
O16   O     O_3   0.536970 0.838788 0.740583 -0.630293
O17   O     O_3   0.448605 0.160742 0.263530 -0.614623
O18   O     O_3   0.446879 0.939786 0.244491 -0.586201
O19   O     O_3   0.586034 0.057876 0.748402 -0.603315
O20   O     O_2   0.322541 0.299894 0.858970 -0.236096
O21   O     O_2   0.288540 0.397226 0.712091 -0.215177
O22   O     O_3   0.406386 0.264983 0.691535 -0.456395
O23   O     O_R   0.493480 0.341410 0.386200 -0.412381
O24   O     O_2   0.710814 0.605089 0.289126 -0.217470
O25   O     O_2   0.676207 0.700063 0.139839 -0.288236
O26   O     O_3   0.590802 0.735517 0.306507 -0.453906
O27   O     O_2   0.757927 0.569702 0.777942 -0.247394
O28   O     O_2   0.657932 0.695107 0.728538 -0.188921
O29   O     O_3   0.737954 0.727577 0.932268 -0.428409
O30   O     O_2   0.339246 0.308276 0.271998 -0.188952
O31   O     O_2   0.241938 0.436578 0.221847 -0.289112
O32   O     O_3   0.259836 0.276449 0.067903 -0.461791
O33   O     O_R   0.506520 0.658590 0.613800 -0.414199
O34   O     O_R   0.375880 0.506510 0.597910 -0.443842
O35   O     O_R   0.624120 0.493490 0.402090 -0.437659
O36   O     O_R   0.364640 0.493450 0.402110 -0.474612
O37   O     O_R   0.635360 0.506550 0.597890 -0.481931
O38   O     O_2   0.806890 0.791869 0.679298 -0.142641
S1    S     S_3+6 0.798566 0.732419 0.558692 0.125664
S2    S     S_3+6 0.201498 0.266737 0.441634 0.133730
S3    S     S_3+6 0.364298 0.359254 0.775912 0.092729
S4    S     S_3+6 0.634951 0.641611 0.223922 0.093144
S5    S     S_3+6 0.688670 0.637286 0.818498 0.108705
S6    S     S_3+6 0.309596 0.366310 0.181811 0.092802

loop_
_geom_bond_atom_site_label_1
_geom_bond_atom_site_label_2
_ccdc_geom_bond_type
C25   C31   A    
C26   C32   A    
C16   C21   S    
C5    C37   A    
C27   C29   A    
O29   S5    S    
O3    S1    S    
C11   N2    A    
O24   S4    D    
H15   O6    S    
C24   O8    S    
C32   O10   S    
H14   O3    S    
H2    O13   S    
O21   S3    D    
H9    O22   S    
H4    O15   S    
C19   C21   A    
O6    S2    S    
C12   O12   A    
Cu2   O36   S    
H6    O17   S    
C19   S2    S    
H18   O9    S    
C38   O17   S    
C29   C33   A    
H20   O11   S    
C17   C20   S    
Cu2   N2    S    
H8    O19   S    
O4    S2    D    
H11   O29   S    
C33   O13   S    
Cu2   O12   S    
C22   C25   A    
O20   S3    D    
C12   O33   A    
C11   S4    S    
H17   O8    S    
C13   S3    S    
C8    H12   S    
C22   O7    S    
H10   O26   S    
H19   O10   S    
C2    C34   A    
C31   O9    S    
C37   O19   S    
H7    O18   S    
C23   O11   S    
C1    O1    A    
O26   S4    S    
C1    O23   A    
O2    S1    D    
Cu1   N1    S    
C4    C34   A    
C16   O34   A    
C9    N2    A    
C23   C30   A    
C35   C38   A    
C4    C6    A    
C36   O18   S    
Cu1   Cu2   S    
C9    S6    S    
C18   S1    S    
C23   C31   A    
Cu2   O23   S    
C2    O16   S    
O31   S6    D    
Cu1   O37   S    
C3    C35   A    
C18   C29   A    
C17   O37   A    
Cu1   O33   S    
H5    O16   S    
O30   S6    D    
C20   C22   A    
C13   C15   A    
C10   N1    A    
C12   C34   S    
C36   C38   A    
C3    O15   S    
Cu2   O35   S    
C1    C35   S    
H3    O14   S    
C7    C9    A    
O32   S6    S    
C8    C14   A    
H13   O32   S    
O28   S5    D    
C24   C26   A    
C3    C5    A    
C25   C27   A    
Cu1   O1    S    
C26   C28   A    
C32   C33   A    
C28   C30   A    
C2    C37   A    
C16   O36   A    
C5    C6    A    
C7    C15   A    
O38   S1    D    
C11   C14   A    
C6    C36   A    
C18   C20   A    
C7    H1    S    
Cu1   O34   S    
C4    O14   S    
O25   S4    D    
C13   N1    A    
C8    C10   A    
H16   O7    S    
C21   C24   A    
O27   S5    D    
C27   C28   A    
O22   S3    S    
C14   C15   A    
C10   S5    S    
C19   C30   A    
C17   O35   A    
O5    S2    D    
