data_mof_unit_18937.cif
_audit_creation_date              2012-12-11T15:17:49-0500
_audit_creation_method            fapswitch 2.2
_symmetry_space_group_name_H-M    P1
_symmetry_Int_Tables_number       1
_space_group_crystal_system       triclinic
_cell_length_a                    15.68896
_cell_length_b                    15.717235
_cell_length_c                    34.353962
_cell_angle_alpha                 89.904214
_cell_angle_beta                  89.994803
_cell_angle_gamma                 119.778082
_cell_volume                      7352.6474555

loop_
_atom_site_label
_atom_site_type_symbol
_atom_type_description
_atom_site_fract_x
_atom_site_fract_y
_atom_site_fract_z
_atom_type_partial_charge
C1    C     C_R   0.576894 0.442490 0.554310 0.543692
C2    C     C_R   0.557520 0.134916 0.554491 0.545323
C3    C     C_R   0.865362 0.422802 0.554426 0.543377
C4    C     C_R   0.441842 0.577787 0.054973 0.544024
C5    C     C_R   0.135917 0.558253 0.054978 0.545445
C6    C     C_R   0.422199 0.864059 0.054964 0.556066
C7    C     C_R   0.977088 0.500578 0.712590 0.346310
C8    C     C_R   0.495836 0.482700 0.711405 0.346170
C9    C     C_R   0.471043 0.921034 0.697809 0.342397
C10   C     C_R   0.485558 0.948194 0.216542 0.347543
C11   C     C_R   0.462511 0.514943 0.216610 0.347550
C12   C     C_R   0.052462 0.537553 0.216610 0.347463
C13   C     C_R   0.020682 0.442913 0.850386 -0.136263
C14   C     C_R   0.557582 0.576424 0.850430 -0.140228
C15   C     C_R   0.344450 0.818310 0.833732 -0.127758
C16   C     C_R   0.434295 0.004761 0.353538 -0.140308
C17   C     C_R   0.570031 0.566450 0.353511 -0.140364
C18   C     C_R   0.996221 0.429510 0.353535 -0.140593
C19   C     C_R   0.057585 0.454042 0.887785 -0.138482
C20   C     C_R   0.547841 0.601037 0.888259 -0.142812
C21   C     C_R   0.330299 0.805617 0.873775 -0.142850
C22   C     C_R   0.449086 0.048580 0.389747 -0.140746
C23   C     C_R   0.599254 0.551302 0.389691 -0.140524
C24   C     C_R   0.951966 0.400366 0.389720 -0.140542
C25   C     C_R   0.049895 0.603038 0.895207 -0.127220
C26   C     C_R   0.392842 0.450397 0.894209 -0.114481
C27   C     C_R   0.503342 0.863164 0.882355 -0.108405
C28   C     C_R   0.597830 0.040344 0.397722 -0.119684
C29   C     C_R   0.442626 0.403604 0.397912 -0.119618
C30   C     C_R   0.960612 0.557144 0.397857 -0.119771
C31   C     C_R   0.010316 0.591744 0.857614 0.015817
C32   C     C_R   0.402034 0.423537 0.856159 0.017709
C33   C     C_R   0.519711 0.878984 0.842169 0.014037
C34   C     C_R   0.582823 0.993447 0.361416 0.020453
C35   C     C_R   0.410569 0.418983 0.361636 0.020421
C36   C     C_R   0.007936 0.589111 0.361574 0.020473
C37   C     C_R   0.001497 0.513602 0.833912 0.041561
C38   C     C_R   0.482875 0.490879 0.832961 0.042679
C39   C     C_R   0.438485 0.855507 0.817181 0.043105
C40   C     C_R   0.503341 0.982257 0.337640 0.046127
C41   C     C_R   0.478590 0.498017 0.337746 0.046217
C42   C     C_R   0.019093 0.521038 0.337731 0.046228
C43   C     C_R   0.077284 0.536706 0.909730 0.006799
C44   C     C_R   0.462982 0.540842 0.909649 0.009648
C45   C     C_R   0.409598 0.828569 0.898409 0.008072
C46   C     C_R   0.533686 0.071801 0.411148 0.007704
C47   C     C_R   0.538149 0.466978 0.411184 0.007991
C48   C     C_R   0.928695 0.461628 0.411178 0.007954
C49   C     C_R   0.577885 0.442630 0.445589 0.550944
C50   C     C_R   0.557508 0.135271 0.445591 0.550778
C51   C     C_R   0.864783 0.422076 0.445591 0.551293
C52   C     C_R   0.442380 0.578138 0.945500 0.542677
C53   C     C_R   0.135808 0.557864 0.945450 0.542034
C54   C     C_R   0.392720 0.810557 0.940506 0.567879
C55   C     C_R   0.922185 0.459677 0.590921 0.022974
C56   C     C_R   0.538943 0.463213 0.590373 0.023503
C57   C     C_R   0.530693 0.065978 0.587724 0.018857
C58   C     C_R   0.455283 0.913953 0.093091 0.022164
C59   C     C_R   0.458732 0.544428 0.093115 0.022870
C60   C     C_R   0.085754 0.541468 0.093118 0.022656
C61   C     C_R   0.969297 0.413369 0.609645 0.012721
C62   C     C_R   0.583525 0.557274 0.608173 0.013092
C63   C     C_R   0.431325 0.001113 0.598788 0.006697
C64   C     C_R   0.405528 0.955565 0.113216 0.011343
C65   C     C_R   0.549864 0.593705 0.113218 0.012331
C66   C     C_R   0.044382 0.450455 0.113312 0.012131
C67   C     C_R   0.987215 0.427860 0.649826 -0.095178
C68   C     C_R   0.568363 0.562601 0.648183 -0.094397
C69   C     C_R   0.413328 0.951431 0.634652 -0.094036
C70   C     C_R   0.415236 0.964881 0.153911 -0.096659
C71   C     C_R   0.549453 0.584246 0.153935 -0.096670
C72   C     C_R   0.035355 0.450834 0.154026 -0.096647
C73   C     C_R   0.969705 0.494935 0.670112 0.020683
C74   C     C_R   0.501869 0.479131 0.669033 0.020664
C75   C     C_R   0.490639 0.960533 0.657950 0.014938
C76   C     C_R   0.480722 0.944087 0.173869 0.019768
C77   C     C_R   0.463379 0.519378 0.173938 0.019778
C78   C     C_R   0.056093 0.536783 0.173938 0.019779
C79   C     C_R   0.939317 0.552245 0.649912 -0.128903
C80   C     C_R   0.446008 0.390472 0.649602 -0.130242
C81   C     C_R   0.587296 0.016091 0.644644 -0.130073
C82   C     C_R   0.540532 0.918106 0.152904 -0.128444
C83   C     C_R   0.377885 0.459824 0.153016 -0.128677
C84   C     C_R   0.081576 0.622211 0.152925 -0.128706
C85   C     C_R   0.914687 0.534048 0.610826 -0.145513
C86   C     C_R   0.465231 0.382212 0.610786 -0.146133
C87   C     C_R   0.607131 0.068900 0.610101 -0.147072
C88   C     C_R   0.527319 0.902246 0.113060 -0.144476
C89   C     C_R   0.375261 0.472835 0.113139 -0.144300
C90   C     C_R   0.097197 0.624851 0.113049 -0.144528
C91   C     C_R   0.984295 0.508099 0.791418 0.338610
C92   C     C_R   0.487969 0.481799 0.790237 0.339316
C93   C     C_R   0.448081 0.873505 0.774569 0.341543
C94   C     C_R   0.495010 0.959658 0.295411 0.338491
C95   C     C_R   0.464240 0.506184 0.295502 0.338518
C96   C     C_R   0.041706 0.535518 0.295496 0.338404
Cr1   Cr    Cr6+3 0.522350 0.263930 0.500020 1.003699
Cr2   Cr    Cr6+3 0.736070 0.258420 0.500020 1.007793
Cr3   Cr    Cr6+3 0.741580 0.477650 0.500020 1.005686
Cr4   Cr    Cr6+3 0.263930 0.522350 0.000020 0.998507
Cr5   Cr    Cr6+3 0.258420 0.736070 0.000020 0.999224
Cr6   Cr    Cr6+3 0.477650 0.741580 0.000020 1.002317
H1    H     H_    0.882665 0.573663 0.597057 0.134382
H2    H     H_    0.426992 0.310096 0.597683 0.133470
H3    H     H_    0.683186 0.115998 0.601854 0.132541
H4    H     H_    0.569089 0.873738 0.098474 0.133813
H5    H     H_    0.305177 0.431367 0.098571 0.134064
H6    H     H_    0.125431 0.694846 0.098405 0.133638
H7    H     H_    0.076654 0.400754 0.898475 0.130996
H8    H     H_    0.604083 0.670574 0.899780 0.128117
H9    H     H_    0.256944 0.776586 0.885518 0.124279
H10   H     H_    0.396911 0.069839 0.399824 0.133477
H11   H     H_    0.672611 0.602919 0.399657 0.133695
H12   H     H_    0.930369 0.326986 0.399722 0.133596
H13   H     H_    0.013288 0.381442 0.833523 0.136261
H14   H     H_    0.621410 0.628424 0.834059 0.132266
H15   H     H_    0.281080 0.799042 0.815555 0.137798
H16   H     H_    0.371304 0.994737 0.336932 0.134413
H17   H     H_    0.622777 0.629112 0.336804 0.134469
H18   H     H_    0.006180 0.376682 0.336854 0.134204
H19   H     H_    0.061380 0.665048 0.912792 0.117706
H20   H     H_    0.328786 0.401758 0.911321 0.122210
H21   H     H_    0.564977 0.879839 0.901262 0.129629
H22   H     H_    0.660992 0.054524 0.415222 0.113070
H23   H     H_    0.393839 0.340719 0.415499 0.113147
H24   H     H_    0.946430 0.606009 0.415410 0.112895
N1    N     N_R   0.955372 0.422382 0.772385 -0.235557
N2    N     N_R   0.574149 0.537448 0.771181 -0.237084
N3    N     N_R   0.383053 0.892172 0.755713 -0.228335
N4    N     N_R   0.409721 0.934244 0.276392 -0.240807
N5    N     N_R   0.523790 0.591092 0.276313 -0.240668
N6    N     N_R   0.067469 0.475993 0.276395 -0.240965
N7    N     N_R   0.951660 0.418595 0.733760 -0.227823
N8    N     N_R   0.578105 0.537814 0.732541 -0.225198
N9    N     N_R   0.394277 0.915458 0.718116 -0.225635
N10   N     N_R   0.404994 0.928546 0.237776 -0.227071
N11   N     N_R   0.522950 0.595483 0.237679 -0.226995
N12   N     N_R   0.072829 0.476982 0.237764 -0.227003
N13   N     N_R   0.005216 0.586274 0.731396 -0.226097
N14   N     N_R   0.409595 0.426918 0.730212 -0.231240
N15   N     N_R   0.534381 0.899344 0.716221 -0.235572
N16   N     N_R   0.570378 0.971650 0.235370 -0.227856
N17   N     N_R   0.401442 0.430526 0.235604 -0.227756
N18   N     N_R   0.028713 0.598601 0.235520 -0.227919
N19   N     N_R   0.010019 0.590099 0.770067 -0.237376
N20   N     N_R   0.405654 0.427703 0.768867 -0.239810
N21   N     N_R   0.522373 0.875033 0.753759 -0.240538
N22   N     N_R   0.575133 0.978305 0.273997 -0.236199
N23   N     N_R   0.403212 0.426103 0.274248 -0.236002
N24   N     N_R   0.022396 0.596687 0.274160 -0.236028
O1    O     O_R   0.498680 0.159540 0.541860 -0.531297
O2    O     O_R   0.840460 0.339140 0.541860 -0.528033
O3    O     O_R   0.660860 0.501320 0.541860 -0.527949
O4    O     O_R   0.159540 0.498680 0.041860 -0.525197
O5    O     O_R   0.339140 0.840460 0.041860 -0.522733
O6    O     O_R   0.501320 0.660860 0.041860 -0.526585
O7    O     O_R   0.532760 0.358060 0.540030 -0.505946
O8    O     O_R   0.641940 0.174700 0.540030 -0.502970
O9    O     O_R   0.825300 0.467240 0.540030 -0.504827
O10   O     O_R   0.358060 0.532760 0.040030 -0.501875
O11   O     O_R   0.174700 0.641940 0.040030 -0.503409
O12   O     O_R   0.467240 0.825300 0.040030 -0.497748
O13   O     O_R   0.498590 0.161190 0.456930 -0.525050
O14   O     O_R   0.838810 0.337400 0.456930 -0.524644
O15   O     O_R   0.662600 0.501410 0.456930 -0.524465
O16   O     O_R   0.161190 0.498590 0.956930 -0.522308
O17   O     O_R   0.337400 0.838810 0.956930 -0.512742
O18   O     O_R   0.501410 0.662600 0.956930 -0.532904
O19   O     O_R   0.532680 0.359580 0.461300 -0.502061
O20   O     O_R   0.640420 0.173100 0.461300 -0.501858
O21   O     O_R   0.826900 0.467320 0.461300 -0.501759
O22   O     O_R   0.359580 0.532680 0.961300 -0.505787
O23   O     O_R   0.173100 0.640420 0.961300 -0.524470
O24   O     O_R   0.467320 0.826900 0.961300 -0.504604
O25   O     O_3   0.666667 0.333333 0.499990 -0.228782
O26   O     O_3   0.333333 0.666667 0.999990 -0.254941
C97   C     C_3   0.000778 0.348624 0.588503 -0.275399
C98   C     C_3   0.110762 0.386065 0.593194 -0.449986
H25   H     H_    0.153874 0.463724 0.583601 0.159835
H26   H     H_    0.129316 0.380059 0.623870 0.156117
H27   H     H_    0.132156 0.341372 0.574972 0.136794
H28   H     H_    0.958474 0.272585 0.599973 0.145166
H29   H     H_    0.988039 0.346531 0.556783 0.174332
C99   C     C_3   0.647061 0.652246 0.586211 -0.275738
C100  C     C_3   0.607697 0.723577 0.589886 -0.449171
H30   H     H_    0.529766 0.687702 0.580415 0.160307
H31   H     H_    0.613430 0.749692 0.620279 0.158024
H32   H     H_    0.651474 0.788513 0.571050 0.137212
H33   H     H_    0.723319 0.687360 0.597625 0.144903
H34   H     H_    0.649370 0.640079 0.554630 0.174186
C101  C     C_3   0.346279 0.986868 0.572847 -0.262652
C102  C     C_3   0.247374 0.894967 0.581024 -0.462468
H35   H     H_    0.255721 0.828804 0.581777 0.158282
H36   H     H_    0.215865 0.902354 0.608910 0.151819
H37   H     H_    0.194809 0.885439 0.557500 0.137593
H38   H     H_    0.336472 0.051946 0.575412 0.166568
H39   H     H_    0.365090 0.980889 0.542146 0.160524
C103  C     C_3   0.342035 0.990146 0.092963 -0.274847
C104  C     C_3   0.377344 0.098264 0.101203 -0.447947
H40   H     H_    0.367259 0.109966 0.132320 0.154715
H41   H     H_    0.456114 0.144022 0.093307 0.161645
H42   H     H_    0.334057 0.122580 0.083516 0.138659
H43   H     H_    0.343770 0.984240 0.060939 0.178470
H44   H     H_    0.264722 0.944771 0.102834 0.143051
C105  C     C_3   0.647664 0.656436 0.092902 -0.275076
C106  C     C_3   0.720416 0.620657 0.101383 -0.449215
H45   H     H_    0.742171 0.630920 0.132496 0.155311
H46   H     H_    0.687583 0.541913 0.093716 0.160646
H47   H     H_    0.787824 0.663373 0.083650 0.137960
H48   H     H_    0.639985 0.654402 0.060870 0.174747
H49   H     H_    0.679429 0.733752 0.102547 0.143860
C107  C     C_3   0.009827 0.352811 0.093102 -0.275267
C108  C     C_3   0.901693 0.280348 0.101657 -0.448582
H50   H     H_    0.890422 0.258549 0.132791 0.155124
H51   H     H_    0.855531 0.313299 0.093977 0.160962
H52   H     H_    0.877339 0.213082 0.083978 0.138937
H53   H     H_    0.015325 0.360496 0.061062 0.175120
H54   H     H_    0.055631 0.320947 0.102782 0.143672
H55   H     H_    0.014678 0.386499 0.665460 0.129757
H56   H     H_    0.608648 0.631996 0.663242 0.130648
H57   H     H_    0.339170 0.906697 0.645275 0.136541
H58   H     H_    0.371927 0.989022 0.170144 0.131081
H59   H     H_    0.616696 0.627280 0.170150 0.130953
H60   H     H_    0.011513 0.383657 0.170310 0.130980
H61   H     H_    0.926997 0.605667 0.665004 0.136776
H62   H     H_    0.393158 0.325512 0.665188 0.135534
H63   H     H_    0.648168 0.023929 0.662171 0.136723
H64   H     H_    0.592975 0.903528 0.167669 0.137102
H65   H     H_    0.311049 0.407820 0.167828 0.137135
H66   H     H_    0.096038 0.688956 0.167663 0.136978
C109  C     C_3   0.975885 0.662004 0.844967 -0.267104
C110  C     C_3   0.062213 0.762520 0.834492 -0.420722
H67   H     H_    0.106234 0.756219 0.810568 0.186203
H68   H     H_    0.034164 0.811475 0.824776 0.144935
H69   H     H_    0.110279 0.796210 0.860182 0.136420
H70   H     H_    0.923956 0.632643 0.820185 0.175009
H71   H     H_    0.933744 0.670813 0.869127 0.131869
C111  C     C_3   0.325041 0.322829 0.842393 -0.266136
C112  C     C_3   0.229119 0.320417 0.832033 -0.415558
H72   H     H_    0.197202 0.335570 0.858190 0.136332
H73   H     H_    0.241646 0.375788 0.809335 0.192375
H74   H     H_    0.175436 0.246707 0.820808 0.141882
H75   H     H_    0.351271 0.297425 0.817435 0.174192
H76   H     H_    0.310144 0.268594 0.865962 0.131218
C113  C     C_3   0.625064 0.924772 0.828277 -0.265104
C114  C     C_3   0.652117 0.846195 0.818886 -0.412777
H77   H     H_    0.649616 0.805847 0.845812 0.134626
H78   H     H_    0.600731 0.793109 0.797265 0.194484
H79   H     H_    0.727753 0.881231 0.806849 0.143860
H80   H     H_    0.639550 0.974433 0.803159 0.177716
H81   H     H_    0.675682 0.972908 0.851363 0.128489
C115  C     C_3   0.652140 0.956521 0.349822 -0.270620
C116  C     C_3   0.597982 0.845049 0.345337 -0.415073
H82   H     H_    0.559958 0.809351 0.372920 0.148366
H83   H     H_    0.543196 0.821000 0.321506 0.183784
H84   H     H_    0.651493 0.820508 0.338350 0.143014
H85   H     H_    0.692889 0.992812 0.322894 0.181033
H86   H     H_    0.709525 0.975579 0.372429 0.124065
C117  C     C_3   0.304481 0.350495 0.350174 -0.270812
C118  C     C_3   0.247470 0.405429 0.345540 -0.414788
H87   H     H_    0.250064 0.443798 0.373022 0.148485
H88   H     H_    0.278050 0.459866 0.321566 0.183835
H89   H     H_    0.169531 0.352502 0.338680 0.143243
H90   H     H_    0.299796 0.309490 0.323337 0.181110
H91   H     H_    0.266280 0.293459 0.372905 0.124023
C119  C     C_3   0.045293 0.695162 0.350054 -0.270855
C120  C     C_3   0.156974 0.751546 0.345458 -0.415066
H92   H     H_    0.192625 0.748527 0.372964 0.148289
H93   H     H_    0.180902 0.720904 0.321514 0.183525
H94   H     H_    0.181837 0.829488 0.338575 0.143410
H95   H     H_    0.009093 0.700217 0.323182 0.181066
H96   H     H_    0.026346 0.733426 0.372740 0.123981

loop_
_geom_bond_atom_site_label_1
_geom_bond_atom_site_label_2
_ccdc_geom_bond_type
C25   C31   A    
C62   C99   S    
C95   N5    A    
C113  H80   S    
C30   H24   S    
C24   H12   S    
Cr1   O25   S    
Cr3   O9    S    
Cr4   O22   S    
C6    C58   S    
Cr5   O23   S    
C112  H72   S    
C84   C90   A    
C91   N19   A    
C54   O17   A    
C16   C22   A    
C25   C43   A    
C98   H25   S    
C2    C57   S    
C53   O23   A    
C7    C73   S    
Cr2   O2    S    
C108  H50   S    
C27   C33   A    
C61   C97   S    
C108  H52   S    
C28   C46   A    
C3    O2    A    
C33   C39   A    
C32   C111  S    
Cr2   O14   S    
C29   C47   A    
C34   C40   A    
C30   C48   A    
C68   H56   S    
C1    C56   S    
C10   N10   A    
C7    N7    A    
C29   H23   S    
C119  H95   S    
C18   C42   A    
C10   N16   A    
C116  H82   S    
C120  H94   S    
C14   H14   S    
Cr3   O3    S    
C100  H31   S    
C65   C105  S    
C107  H53   S    
Cr5   O5    S    
C68   C74   A    
C5    O4    A    
C72   H60   S    
C49   O19   A    
C111  H76   S    
C27   H21   S    
Cr1   O19   S    
C99   C100  S    
C14   C20   A    
Cr4   O16   S    
C59   C89   A    
Cr5   O17   S    
Cr4   O10   S    
C101  H38   S    
C39   C93   S    
N18   N24   A    
C11   C77   S    
C21   H9    S    
N3    N9    A    
N2    N8    A    
C3    C55   S    
C43   C53   S    
C48   C51   S    
C66   C72   A    
C63   C69   A    
C101  H39   S    
Cr1   O13   S    
C31   C109  S    
Cr4   O26   S    
C104  H42   S    
C80   C86   A    
C34   C115  S    
C33   C113  S    
C103  C104  S    
C67   C73   A    
C32   C38   A    
C112  H74   S    
C84   H66   S    
C114  H77   S    
Cr6   O6    S    
C13   C37   A    
C6    O5    A    
C85   H1    S    
C2    O8    A    
C96   N6    A    
C80   H62   S    
C44   C52   S    
C46   C50   S    
C19   H7    S    
C113  H81   S    
C60   C66   A    
C104  H40   S    
C74   C80   A    
C113  C114  S    
C3    O9    A    
C9    C75   S    
C52   O22   A    
C10   C76   S    
C118  H89   S    
C93   N3    A    
C92   N2    A    
C109  H70   S    
C8    C74   S    
C20   C44   A    
C19   C43   A    
C115  H85   S    
C57   C63   A    
C21   C45   A    
C36   C42   A    
C108  H51   S    
C58   C64   A    
C83   C89   A    
C114  H78   S    
C23   C47   A    
C37   C91   S    
N15   N21   A    
C26   C44   A    
C101  C102  S    
C24   C48   A    
C102  H37   S    
C35   C117  S    
C71   H59   S    
C18   C24   A    
C50   O20   A    
C117  H90   S    
C76   C82   A    
C116  H83   S    
C9    N15   A    
C26   C32   A    
C75   C81   A    
C100  H32   S    
C83   H65   S    
C94   N22   A    
C13   H13   S    
C65   C71   A    
C92   N20   A    
C111  H75   S    
C110  H69   S    
C57   C87   A    
C31   C37   A    
Cr1   O7    S    
C55   C85   A    
C12   C78   S    
C64   C70   A    
C49   O15   A    
C117  H91   S    
C16   H16   S    
C14   C38   A    
C88   H4    S    
C61   C67   A    
C56   C86   A    
C87   H3    S    
C8    N8    A    
C15   C21   A    
Cr6   O12   S    
C96   N24   A    
C89   H5    S    
C110  H68   S    
Cr1   O1    S    
Cr3   O25   S    
C51   O14   A    
C112  H73   S    
C17   C23   A    
C1    O7    A    
C1    O3    A    
C109  H71   S    
N16   N22   A    
C15   C39   A    
C81   C87   A    
C91   N1    A    
C16   C40   A    
C20   H8    S    
C9    N9    A    
C118  H88   S    
C22   C46   A    
C45   C54   S    
C22   H10   S    
C103  H44   S    
C42   C96   S    
C67   H55   S    
Cr6   O24   S    
C70   C76   A    
C66   C107  S    
C117  C118  S    
C94   N4    A    
C18   H18   S    
C71   C77   A    
C109  C110  S    
C115  H86   S    
N6    N12   A    
Cr4   O4    S    
C2    O1    A    
C105  C106  S    
C111  C112  S    
N13   N19   A    
C99   H34   S    
Cr6   O18   S    
C81   H63   S    
C5    C60   S    
C4    O6    A    
C50   O13   A    
C106  H45   S    
N5    N11   A    
C36   C119  S    
C6    O12   A    
N4    N10   A    
N14   N20   A    
N1    N7    A    
C77   C83   A    
C40   C94   S    
C118  H87   S    
C73   C79   A    
C58   C88   A    
C86   H2    S    
C4    O10   A    
C116  H84   S    
C98   H26   S    
C120  H92   S    
C28   H22   S    
C95   N23   A    
C60   C90   A    
C47   C49   S    
C25   H19   S    
C64   C103  S    
C29   C35   A    
C12   N12   A    
C30   C36   A    
C8    N14   A    
C15   H15   S    
C102  H35   S    
C54   O24   A    
Cr5   O11   S    
C11   N11   A    
C90   H6    S    
C97   H29   S    
C59   C65   A    
C7    N13   A    
Cr2   O25   S    
C120  H93   S    
C106  H47   S    
C27   C45   A    
C100  H30   S    
C41   C95   S    
C69   C75   A    
C107  H54   S    
C105  H48   S    
C63   C101  S    
C55   C61   A    
C4    C59   S    
C51   O21   A    
C110  H67   S    
C70   H58   S    
C79   C85   A    
C93   N21   A    
C82   H64   S    
C56   C62   A    
C62   C68   A    
C105  H49   S    
C35   C41   A    
C17   C41   A    
C78   C84   A    
C98   H27   S    
C11   N17   A    
C119  C120  S    
C17   H17   S    
C28   C34   A    
Cr2   O20   S    
Cr2   O8    S    
C53   O16   A    
N17   N23   A    
Cr3   O21   S    
C107  C108  S    
C97   C98   S    
C72   C78   A    
C103  H43   S    
C104  H41   S    
C13   C19   A    
C82   C88   A    
C99   H33   S    
C12   N18   A    
C119  H96   S    
C5    O11   A    
C26   H20   S    
C69   H57   S    
C23   H11   S    
C106  H46   S    
Cr6   O26   S    
C79   H61   S    
C52   O18   A    
C97   H28   S    
C38   C92   S    
C102  H36   S    
C115  C116  S    
Cr3   O15   S    
C114  H79   S    
Cr5   O26   S    
