data_mof_unit_50676.cif
_audit_creation_date              2013-03-05T15:42:28-0500
_audit_creation_method            fapswitch 2.2
_symmetry_space_group_name_H-M    P1
_symmetry_Int_Tables_number       1
_space_group_crystal_system       triclinic
_cell_length_a                    7.815197
_cell_length_b                    8.552108
_cell_length_c                    23.442563
_cell_angle_alpha                 92.1208
_cell_angle_beta                  84.497777
_cell_angle_gamma                 93.988741
_cell_volume                      1555.09357973

loop_
_atom_site_label
_atom_site_type_symbol
_atom_site_description
_atom_site_fract_x
_atom_site_fract_y
_atom_site_fract_z
_atom_type_partial_charge
O1    O     O_R   0.389250 0.738570 0.503790 -0.635282
O2    O     O_R   0.610750 0.261430 0.496210 -0.615967
O3    O     O_R   0.678390 0.711620 0.493890 -0.598630
O4    O     O_R   0.321610 0.288380 0.506110 -0.610564
C1    C     C_R   0.545839 0.794641 0.498603 0.967156
C2    C     C_R   0.454175 0.205369 0.501462 0.976653
O5    O     O_R   0.355400 0.513520 0.588790 -0.617614
O6    O     O_R   0.644600 0.486480 0.411210 -0.589897
O7    O     O_R   0.644550 0.486570 0.578900 -0.580416
O8    O     O_R   0.355450 0.513430 0.421100 -0.611761
C3    C     C_R   0.499734 0.497383 0.610437 0.958146
C4    C     C_R   0.500475 0.502506 0.389540 0.953891
Zn1   Zn    Zn3+2 0.306930 0.518000 0.506610 1.016420
Zn2   Zn    Zn3+2 0.693070 0.482000 0.493390 1.051338
C5    C     C_R   0.457997 0.353730 0.118095 0.682688
C6    C     C_R   0.553440 0.623238 0.880216 0.689453
N1    N     N_R   0.488078 0.492707 0.147378 -0.332832
N2    N     N_R   0.483874 0.494813 0.852493 -0.339966
C7    C     C_R   0.518064 0.631290 0.119546 0.664883
C8    C     C_R   0.415944 0.364480 0.880645 0.663003
C9    C     C_R   0.543743 0.630544 0.059545 -0.128158
C10   C     C_R   0.428050 0.354291 0.939826 -0.134773
C11   C     C_R   0.493219 0.491348 0.029409 -0.033696
C12   C     C_R   0.491571 0.490259 0.969564 -0.031742
C13   C     C_R   0.444672 0.353086 0.059173 -0.052270
C14   C     C_R   0.553308 0.625750 0.939629 -0.059101
C15   C     C_R   0.615926 0.762772 0.028825 0.292661
C16   C     C_R   0.376680 0.216037 0.970562 0.314263
C17   C     C_R   0.618525 0.758738 0.969184 -0.111840
C18   C     C_R   0.386504 0.217390 0.029726 -0.101318
O9    O     O_2   0.438257 0.217658 0.146146 -0.458651
O10   O     O_2   0.622172 0.747602 0.850053 -0.440514
O11   O     O_2   0.521649 0.768158 0.150088 -0.439090
O12   O     O_2   0.334668 0.248122 0.851134 -0.415803
H1    H     H_    0.676021 0.859141 0.945822 0.246162
H2    H     H_    0.349516 0.110592 0.052600 0.227436
C19   C     C_R   0.612777 0.410856 0.758484 0.230628
C20   C     C_R   0.645571 0.550860 0.232469 0.236747
C21   C     C_R   0.617191 0.408285 0.698563 0.208654
C22   C     C_R   0.647233 0.560991 0.292358 0.217974
C23   C     C_R   0.497902 0.492330 0.672577 -0.246633
C24   C     C_R   0.500618 0.504895 0.327365 -0.256447
C25   C     C_R   0.374162 0.574642 0.706201 -0.255004
C26   C     C_R   0.352538 0.445525 0.302970 -0.256419
H3    H     H_    0.282591 0.638191 0.685827 0.216347
H4    H     H_    0.240467 0.402829 0.330170 0.217229
C27   C     C_R   0.366233 0.576067 0.765744 0.349601
C28   C     C_R   0.345595 0.441852 0.243966 0.360985
C29   C     C_R   0.487448 0.494560 0.791683 0.013365
C30   C     C_R   0.493139 0.493682 0.208359 0.001904
C31   C     C_2   0.569815 0.958418 0.497810 -0.288354
C32   C     C_2   0.430241 0.041610 0.502385 -0.334302
H5    H     H_    0.701489 0.009914 0.493443 0.184586
H6    H     H_    0.298570 0.990116 0.506773 0.176677
N3    N     N_2   0.950330 0.457950 0.484560 0.007651
N4    N     N_2   0.049670 0.542050 0.515440 0.003070
N5    N     N_R   0.704330 0.893743 0.056264 0.257720
O13   O     O_R   0.816920 0.868658 0.091776 -0.224963
O14   O     O_R   0.703740 0.033408 0.036134 -0.352559
N6    N     N_R   0.323340 0.070888 0.942732 0.244099
O15   O     O_R   0.427164 0.007437 0.903198 -0.279785
O16   O     O_R   0.190161 0.986703 0.964996 -0.299857
N7    N     N_R   0.731647 0.324478 0.785941 0.247725
O17   O     O_R   0.818604 0.391078 0.825907 -0.309824
O18   O     O_R   0.751450 0.177900 0.771678 -0.231768
N8    N     N_R   0.796427 0.601697 0.195943 0.270806
O19   O     O_R   0.838661 0.524610 0.148353 -0.303282
O20   O     O_R   0.883844 0.732233 0.207519 -0.215715
N9    N     N_R   0.741405 0.319521 0.664609 0.245743
O21   O     O_R   0.690523 0.205372 0.630668 -0.364266
O22   O     O_R   0.905034 0.346408 0.670112 -0.332300
N10   N     N_R   0.795850 0.630807 0.317464 0.252672
O23   O     O_R   0.782690 0.754741 0.351094 -0.357753
O24   O     O_R   0.944398 0.570860 0.306858 -0.332457
N11   N     N_R   0.235135 0.660019 0.799045 0.259939
O25   O     O_R   0.174192 0.615411 0.849895 -0.304459
O26   O     O_R   0.165393 0.774333 0.776690 -0.277922
N12   N     N_R   0.187688 0.386934 0.220830 0.263805
O27   O     O_R   0.141656 0.448515 0.175311 -0.295473
O28   O     O_R   0.083233 0.282382 0.247344 -0.296767
N13   N     N_3   0.030186 0.346310 0.449106 -0.308159
H7    H     H_    0.997676 0.363745 0.407734 0.210421
H8    H     H_    0.972659 0.237205 0.461289 0.186350
N14   N     N_3   0.969395 0.652770 0.551236 -0.298810
H9    H     H_    0.998809 0.632536 0.592759 0.212915
H10   H     H_    0.028669 0.762060 0.540094 0.181398

loop_
_geom_bond_atom_site_label_1
_geom_bond_atom_site_label_2
_geom_bond_distance
_ccdc_geom_bond_type
N8    O20   1.301407 A    
N3    N4    1.278917 D    
N7    O18   1.301229 A    
C15   C17   1.395503 A    
O7    Zn2   2.003531 S    
N13   H7    1.044327 S    
C27   C29   1.409529 A    
O5    C3    1.298286 A    
O1    C1    1.279256 A    
C7    C9    1.401489 A    
N14   H10   1.044526 S    
N12   O28   1.301725 A    
N5    O14   1.300872 A    
N6    O16   1.301325 A    
C28   N12   1.437553 S    
O4    Zn1   1.974572 S    
N11   O26   1.301648 A    
C4    C24   1.458342 S    
C19   N7    1.438186 S    
C20   N8    1.440422 S    
C26   H4    1.082909 S    
C11   C12   1.403904 A    
N3    N13   1.384391 S    
Zn1   N4    2.025336 S    
C8    O12   1.348224 S    
C22   C24   1.410274 A    
Zn2   N3    2.025334 S    
C9    C15   1.417489 A    
C10   C16   1.421212 A    
C23   C25   1.399822 A    
O2    C2    1.279151 A    
C24   C26   1.395643 A    
N13   H8    1.044548 S    
C32   H6    1.087859 S    
N4    N14   1.384638 S    
C16   N6    1.435453 S    
C9    C11   1.413483 A    
C6    C14   1.392082 A    
N9    O22   1.301286 A    
C31   C32   1.336939 D    
N8    O19   1.301318 A    
N14   H9    1.044627 S    
N10   O24   1.300165 A    
C15   N5    1.438718 S    
N12   O27   1.298870 A    
N6    O15   1.300603 A    
C31   H5    1.087881 S    
N11   O25   1.301107 A    
C19   C29   1.409830 A    
O6    C4    1.296881 A    
C21   N9    1.435895 S    
C25   H3    1.083744 S    
O3    Zn2   1.974572 S    
O8    C4    1.299806 A    
O4    C2    1.290021 A    
C8    C10   1.405897 A    
O7    C3    1.298095 A    
C7    O11   1.349353 S    
C10   C12   1.417966 A    
O1    Zn1   1.951609 S    
C13   C18   1.399071 A    
C5    N1    1.367779 A    
O6    Zn2   2.000954 S    
C22   N10   1.435450 S    
C12   C14   1.409026 A    
N10   O23   1.301257 A    
O3    C1    1.289959 A    
O8    Zn1   2.003531 S    
N1    C30   1.433578 S    
C5    O9    1.350049 S    
C20   C30   1.416100 A    
C6    O10   1.350207 S    
C17   H1    1.083089 S    
C18   H2    1.084016 S    
C16   C18   1.395999 A    
C27   N11   1.442936 S    
C19   C21   1.401216 A    
C20   C22   1.404666 A    
N5    O13   1.301261 A    
C28   C30   1.412284 A    
N1    C7    1.369133 A    
C3    C23   1.457643 S    
N2    C8    1.365550 A    
C11   C13   1.405990 A    
N9    O21   1.301312 A    
O2    Zn2   1.951610 S    
C5    C13   1.394919 A    
N7    O17   1.301059 A    
O5    Zn1   2.000954 S    
C21   C23   1.411163 A    
C14   C17   1.400743 A    
C6    N2    1.362382 A    
C1    C31   1.400712 S    
C2    C32   1.400658 S    
C25   C27   1.390908 A    
C26   C28   1.388563 A    
N2    C29   1.423046 S    
