data_mof_unit_25092.cif
_audit_creation_date              2012-12-10T19:28:56-0500
_audit_creation_method            fapswitch 2.2
_symmetry_space_group_name_H-M    P1
_symmetry_Int_Tables_number       1
_space_group_crystal_system       triclinic
_cell_length_a                    17.758379
_cell_length_b                    16.442812
_cell_length_c                    10.637612
_cell_angle_alpha                 89.764539
_cell_angle_beta                  89.99703
_cell_angle_gamma                 90.010715
_cell_volume                      3106.13181478

loop_
_atom_site_label
_atom_site_type_symbol
_atom_type_description
_atom_site_fract_x
_atom_site_fract_y
_atom_site_fract_z
_atom_type_partial_charge
C1    C     C_R   0.355259 0.500037 0.499080 0.808925
C2    C     C_R   0.644743 0.500043 0.500915 0.808927
C3    C     C_1   0.966272 0.501784 0.500915 -0.093726
C4    C     C_1   0.033741 0.501797 0.498902 -0.093752
C5    C     C_R   0.551278 0.828655 0.576616 -0.003918
C6    C     C_R   0.448456 0.171285 0.423930 -0.003934
C7    C     C_R   0.448726 0.829031 0.423342 -0.003408
C8    C     C_R   0.551532 0.170909 0.576115 -0.003383
C9    C     C_R   0.549305 0.742283 0.574528 0.041551
C10   C     C_R   0.450487 0.257685 0.425881 0.042637
C11   C     C_R   0.450711 0.742648 0.425431 0.035788
C12   C     C_R   0.549485 0.257319 0.574179 0.036755
C13   C     C_R   0.500001 0.872726 0.499977 0.054010
C14   C     C_R   0.500003 0.127216 0.500007 0.053858
C15   C     C_1   0.500003 0.962742 0.499978 -0.072285
C16   C     C_1   0.500008 0.037195 0.499992 -0.072392
C17   C     C_R   0.499934 0.500200 0.258795 0.792569
C18   C     C_R   0.500062 0.499802 0.741205 0.792582
C19   C     C_3   0.498937 0.577433 0.039924 -0.138204
C20   C     C_3   0.501053 0.422577 0.960077 -0.137990
C21   C     C_3   0.561365 0.539360 0.957765 -0.172666
C22   C     C_3   0.438625 0.460649 0.042235 -0.172005
C23   C     C_3   0.437619 0.537384 0.957695 -0.166429
C24   C     C_3   0.562371 0.462626 0.042304 -0.166804
C25   C     C_3   0.500045 0.499382 0.877835 0.021272
C26   C     C_3   0.499947 0.500626 0.122165 0.021363
C27   C     C_R   0.845895 0.576072 0.496800 0.103907
C28   C     C_R   0.153349 0.426470 0.486193 0.104721
C29   C     C_R   0.154151 0.576011 0.504311 0.103897
C30   C     C_R   0.846632 0.426326 0.512492 0.104579
C31   C     C_R   0.766847 0.574191 0.496473 -0.213811
C32   C     C_R   0.232463 0.427263 0.486943 -0.212541
C33   C     C_R   0.233194 0.574112 0.504664 -0.214158
C34   C     C_R   0.767520 0.427142 0.511823 -0.212719
C35   C     C_R   0.727659 0.500385 0.502923 -0.109539
C36   C     C_R   0.272349 0.500387 0.497051 -0.109184
C37   C     C_R   0.885336 0.501398 0.503316 0.060882
C38   C     C_R   0.114677 0.501432 0.496536 0.060889
Cu1   Cu    Cu3+1 0.500000 0.580420 0.500000 0.922997
Cu2   Cu    Cu3+1 0.500000 0.419580 0.500000 0.924136
H1    H     H_    0.386625 0.567898 0.919835 0.128357
H2    H     H_    0.613367 0.432113 0.080159 0.128843
H3    H     H_    0.498014 0.640860 0.075314 0.133502
H4    H     H_    0.501976 0.359150 0.924686 0.133832
H5    H     H_    0.611511 0.571516 0.919910 0.123295
H6    H     H_    0.388478 0.428496 0.080094 0.122814
H7    H     H_    0.734883 0.629938 0.490528 0.149460
H8    H     H_    0.263914 0.371256 0.479921 0.145833
H9    H     H_    0.265182 0.629774 0.511566 0.149583
H10   H     H_    0.736052 0.371055 0.517929 0.146358
H11   H     H_    0.587066 0.706725 0.632127 0.125884
H12   H     H_    0.412620 0.293235 0.368465 0.124389
H13   H     H_    0.412971 0.707371 0.367808 0.126305
H14   H     H_    0.587315 0.292590 0.631646 0.124789
N1    N     N_R   0.500000 0.701220 0.500000 -0.195501
N2    N     N_R   0.500000 0.298780 0.500000 -0.194939
O1    O     O_R   0.391260 0.567930 0.500000 -0.589872
O2    O     O_R   0.608740 0.432070 0.500000 -0.588978
O3    O     O_R   0.608740 0.567930 0.500000 -0.590030
O4    O     O_R   0.391260 0.432070 0.500000 -0.589091
O5    O     O_R   0.499980 0.567900 0.316850 -0.589095
O6    O     O_R   0.500020 0.432100 0.683150 -0.588853
O7    O     O_R   0.500020 0.567900 0.683150 -0.584903
O8    O     O_R   0.499980 0.432100 0.316850 -0.584630
C39   C     C_3   0.889856 0.655878 0.490090 -0.398662
C40   C     C_3   0.842455 0.734098 0.490159 -0.364783
C41   C     C_3   0.892340 0.809635 0.487485 -0.846971
H15   H     H_    0.929237 0.811032 0.571729 0.253556
H16   H     H_    0.927641 0.810199 0.401299 0.250984
H17   H     H_    0.856504 0.864976 0.487562 0.241782
H18   H     H_    0.805283 0.735567 0.406097 0.219484
H19   H     H_    0.807450 0.736093 0.576604 0.216226
H20   H     H_    0.928483 0.658135 0.572291 0.200258
H21   H     H_    0.924809 0.655299 0.403365 0.197916
C42   C     C_3   0.108482 0.347480 0.475697 -0.398505
C43   C     C_3   0.154617 0.270290 0.449966 -0.367149
C44   C     C_3   0.103775 0.196006 0.436716 -0.848896
H22   H     H_    0.072205 0.185197 0.525343 0.254776
H23   H     H_    0.063338 0.204882 0.358182 0.250697
H24   H     H_    0.138662 0.141553 0.416581 0.243388
H25   H     H_    0.186606 0.278330 0.361049 0.218408
H26   H     H_    0.194395 0.258755 0.528717 0.218802
H27   H     H_    0.076197 0.338690 0.564266 0.198522
H28   H     H_    0.067422 0.354572 0.397475 0.200199
C45   C     C_3   0.110235 0.655737 0.512301 -0.398694
C46   C     C_3   0.157687 0.733934 0.513949 -0.364581
C47   C     C_3   0.107834 0.809432 0.517964 -0.847171
H29   H     H_    0.071026 0.811982 0.433650 0.253626
H30   H     H_    0.072441 0.808829 0.604044 0.250912
H31   H     H_    0.143694 0.864761 0.519098 0.241811
H32   H     H_    0.194745 0.734236 0.598170 0.219059
H33   H     H_    0.192826 0.737120 0.427698 0.216483
H34   H     H_    0.071734 0.659085 0.429990 0.200359
H35   H     H_    0.075149 0.654033 0.598855 0.197778
C48   C     C_3   0.891459 0.347204 0.521705 -0.398682
C49   C     C_3   0.845281 0.269724 0.546239 -0.366861
C50   C     C_3   0.896077 0.195278 0.558408 -0.849044
H36   H     H_    0.927631 0.185466 0.469624 0.254758
H37   H     H_    0.936527 0.203250 0.637054 0.250768
H38   H     H_    0.861155 0.140614 0.577778 0.243202
H39   H     H_    0.813279 0.276730 0.635248 0.218792
H40   H     H_    0.805511 0.259117 0.467302 0.218550
H41   H     H_    0.923723 0.339463 0.432989 0.198373
H42   H     H_    0.932536 0.353353 0.600011 0.200337
C51   C     C_3   0.606834 0.875558 0.658112 -0.403845
C52   C     C_3   0.660537 0.823727 0.738398 -0.375246
C53   C     C_3   0.714626 0.877259 0.812835 -0.840467
H43   H     H_    0.749388 0.914819 0.748004 0.252326
H44   H     H_    0.682805 0.917825 0.876996 0.251175
H45   H     H_    0.752702 0.838328 0.869932 0.241262
H46   H     H_    0.627607 0.785931 0.805656 0.215989
H47   H     H_    0.694224 0.783327 0.676756 0.207421
H48   H     H_    0.641282 0.915052 0.595391 0.205064
H49   H     H_    0.574212 0.915681 0.722039 0.204481
C54   C     C_3   0.392618 0.124332 0.343049 -0.402472
C55   C     C_3   0.337153 0.176201 0.266394 -0.378352
C56   C     C_3   0.281895 0.122819 0.194128 -0.840296
H50   H     H_    0.312629 0.083164 0.127200 0.252051
H51   H     H_    0.248866 0.084320 0.260147 0.250341
H52   H     H_    0.242274 0.161895 0.140301 0.242176
H53   H     H_    0.304608 0.215877 0.330695 0.208510
H54   H     H_    0.368524 0.214676 0.197985 0.215513
H55   H     H_    0.424949 0.085404 0.276990 0.203766
H56   H     H_    0.359451 0.083665 0.405920 0.205793
C57   C     C_3   0.393163 0.876336 0.341852 -0.404711
C58   C     C_3   0.339420 0.824906 0.261643 -0.374285
C59   C     C_3   0.285378 0.878821 0.187124 -0.840238
H57   H     H_    0.250634 0.916080 0.251902 0.252210
H58   H     H_    0.317234 0.919688 0.122932 0.251074
H59   H     H_    0.247283 0.840183 0.130054 0.241322
H60   H     H_    0.372326 0.787422 0.194429 0.214575
H61   H     H_    0.305695 0.784221 0.323337 0.208229
H62   H     H_    0.358739 0.915512 0.404567 0.205312
H63   H     H_    0.425782 0.916785 0.277880 0.204261
C60   C     C_3   0.607380 0.123553 0.656979 -0.403326
C61   C     C_3   0.662718 0.175044 0.733878 -0.377393
C62   C     C_3   0.718025 0.121312 0.806063 -0.840019
H64   H     H_    0.687316 0.081079 0.872722 0.251895
H65   H     H_    0.751215 0.083399 0.739959 0.250399
H66   H     H_    0.757498 0.160120 0.860185 0.242136
H67   H     H_    0.695246 0.215223 0.669772 0.208991
H68   H     H_    0.631236 0.212993 0.802344 0.214298
H69   H     H_    0.575059 0.084149 0.722893 0.203490
H70   H     H_    0.640636 0.083344 0.594070 0.206027

loop_
_geom_bond_atom_site_label_1
_geom_bond_atom_site_label_2
_ccdc_geom_bond_type
C57   H63   S    
C2    C35   S    
C47   H29   S    
C58   C59   S    
Cu2   O4    S    
C49   H40   S    
C53   H44   S    
C48   C49   S    
C9    H11   S    
C10   H12   S    
C50   H36   S    
Cu2   O6    S    
C60   C61   S    
C5    C51   S    
C45   C46   S    
C7    C11   A    
C62   H65   S    
C30   C48   S    
C55   H54   S    
C17   C26   S    
C32   C36   A    
C51   H48   S    
C19   C21   S    
C24   C26   S    
C46   H32   S    
C56   H51   S    
C17   O8    A    
C18   O7    A    
C52   C53   S    
C33   H9    S    
C15   C16   T    
Cu1   O1    S    
C29   C33   A    
C33   C36   A    
C39   H20   S    
C55   C56   S    
C34   C35   A    
C19   C26   S    
C61   H68   S    
C17   O5    A    
C47   H31   S    
C45   H34   S    
Cu1   N1    S    
C20   C24   S    
C48   H41   S    
Cu2   N2    S    
C20   C25   S    
C29   C38   A    
C53   H43   S    
C9    N1    A    
C58   H61   S    
C10   N2    A    
C29   C45   S    
C11   H13   S    
C60   H69   S    
C40   C41   S    
C31   H7    S    
C49   H39   S    
C8    C60   S    
C32   H8    S    
C18   C25   S    
C50   H37   S    
C19   H3    S    
C21   H5    S    
C52   H46   S    
C44   H23   S    
Cu1   O5    S    
C62   H66   S    
C40   H19   S    
C34   H10   S    
Cu2   O2    S    
C55   H53   S    
C30   C34   A    
C27   C31   A    
C41   H15   S    
C51   H49   S    
C28   C32   A    
C54   H55   S    
C43   C44   S    
C1    O4    A    
C43   H26   S    
Cu1   Cu2   S    
C46   C47   S    
C18   O6    A    
C52   H47   S    
C44   H22   S    
C39   H21   S    
C30   C37   A    
C41   H16   S    
C19   C23   S    
C42   C43   S    
C59   H58   S    
C5    C9    A    
C61   H67   S    
C27   C39   S    
C1    O1    A    
C6    C14   A    
C45   H35   S    
C40   H18   S    
C28   C38   A    
C8    C12   A    
Cu1   O3    S    
C49   C50   S    
C7    C57   S    
C24   H2    S    
C12   N2    A    
C60   H70   S    
C22   H6    S    
C4    C38   S    
C20   H4    S    
C13   C15   S    
C57   C58   S    
C53   H45   S    
C31   C35   A    
C56   H52   S    
C3    C4    T    
C50   H38   S    
C11   N1    A    
C48   H42   S    
C62   H64   S    
C44   H24   S    
C57   H62   S    
C21   C25   S    
C8    C14   A    
C54   H56   S    
C2    O3    A    
C5    C13   A    
C20   C22   S    
C61   C62   S    
C23   H1    S    
C43   H25   S    
C6    C10   A    
C2    O2    A    
C59   H57   S    
Cu1   O7    S    
C51   C52   S    
Cu2   O8    S    
C41   H17   S    
C47   H30   S    
C59   H59   S    
C46   H33   S    
C56   H50   S    
C42   H27   S    
C58   H60   S    
C27   C37   A    
C14   C16   S    
C23   C25   S    
C42   H28   S    
C6    C54   S    
C7    C13   A    
C3    C37   S    
C39   C40   S    
C22   C26   S    
C21   C24   S    
C22   C23   S    
C28   C42   S    
C12   H14   S    
C54   C55   S    
C1    C36   S    
