data_mof_unit_7926.cif
_audit_creation_date              2013-03-05T15:45:33-0500
_audit_creation_method            fapswitch 2.2
_symmetry_space_group_name_H-M    P1
_symmetry_Int_Tables_number       1
_space_group_crystal_system       triclinic
_cell_length_a                    27.684701
_cell_length_b                    10.731807
_cell_length_c                    10.022224
_cell_angle_alpha                 90.018105
_cell_angle_beta                  89.320692
_cell_angle_gamma                 90.479698
_cell_volume                      2977.35787904

loop_
_atom_site_label
_atom_site_type_symbol
_atom_site_description
_atom_site_fract_x
_atom_site_fract_y
_atom_site_fract_z
_atom_type_partial_charge
O1    O     O_R   0.499990 0.319060 0.613040 -0.614069
O2    O     O_R   0.500010 0.319100 0.386900 -0.614312
C1    C     C_R   0.499597 0.262632 0.499743 0.935496
O3    O     O_R   0.428750 0.500000 0.613050 -0.607183
O4    O     O_R   0.428760 0.500040 0.386920 -0.623582
C2    C     C_R   0.406028 0.498112 0.500544 0.881808
Zn1   Zn    Zn3+2 0.499990 0.499970 0.650990 0.946608
Zn2   Zn    Zn3+2 0.500010 0.500030 0.349010 0.920335
O5    O     O_R   0.499990 0.680900 0.613100 -0.616983
O6    O     O_R   0.500010 0.680940 0.386960 -0.629543
O7    O     O_R   0.571240 0.499960 0.613080 -0.606876
O8    O     O_R   0.571250 0.500000 0.386950 -0.646187
C3    C     C_R   0.501645 0.737288 0.500023 0.934313
C4    C     C_R   0.593867 0.501697 0.499175 0.869492
C5    C     C_R   0.176795 0.406283 0.590322 0.526161
O9    O     O_2   0.201492 0.318389 0.656740 -0.557563
N1    N     N_R   0.201144 0.499163 0.524519 -0.343347
C6    C     C_R   0.177706 0.590722 0.457328 0.528087
C7    C     C_R   0.275470 0.435871 0.410948 0.154796
C8    C     C_R   0.326037 0.435394 0.402403 0.024345
C9    C     C_R   0.329306 0.554001 0.610196 -0.233427
C10   C     C_R   0.279265 0.554295 0.617400 -0.149485
C11   C     C_R   0.252511 0.495990 0.518045 0.294579
C12   C     C_R   0.101215 0.492575 0.515418 -0.051285
C13   C     C_R   0.126307 0.401289 0.587234 -0.026787
C14   C     C_R   0.100730 0.305663 0.651350 -0.135568
C15   C     C_R   0.127288 0.588997 0.451095 -0.026717
C16   C     C_R   0.353186 0.495992 0.502925 -0.096995
H1    H     H_    0.349433 0.600628 0.687987 0.174003
H2    H     H_    0.261147 0.600423 0.699807 0.154103
H3    H     H_    0.119308 0.233493 0.705652 0.190578
C17   C     C_R   0.646471 0.497372 0.495247 -0.100392
C18   C     C_R   0.973140 0.389424 0.572011 0.044278
C19   C     C_R   0.975109 0.565849 0.413510 0.044480
C20   C     C_R   0.948928 0.475066 0.488538 0.070319
C21   C     C_R   0.945080 0.305382 0.650050 -0.214662
C22   C     C_R   0.895075 0.303577 0.643651 -0.138890
C23   C     C_R   0.871124 0.385431 0.559570 -0.021269
C24   C     C_R   0.897884 0.470716 0.480895 -0.052736
C25   C     C_R   0.873440 0.552775 0.395817 -0.019325
C26   C     C_R   0.822960 0.550154 0.393615 0.498009
N2    N     N_R   0.797919 0.468891 0.473623 -0.353630
C27   C     C_R   0.820657 0.386430 0.554705 0.499526
C28   C     C_R   0.717847 0.404596 0.395254 0.147089
C29   C     C_R   0.667954 0.415450 0.403324 -0.236709
C30   C     C_R   0.675582 0.572336 0.579057 0.073969
C31   C     C_R   0.725705 0.559843 0.570607 -0.156933
C32   C     C_R   0.746647 0.476874 0.480023 0.260202
O10   O     O_2   0.794391 0.307032 0.631403 -0.563670
C33   C     C_R   0.024310 0.391337 0.575783 0.043984
C34   C     C_R   0.050208 0.486862 0.506917 0.072504
C35   C     C_R   0.025736 0.576404 0.428999 0.044505
C36   C     C_R   0.050730 0.300432 0.645751 -0.213478
H4    H     H_    0.645774 0.358453 0.338517 0.169859
H5    H     H_    0.875205 0.238127 0.706170 0.189495
H6    H     H_    0.960462 0.241567 0.720312 0.143315
H7    H     H_    0.034040 0.221700 0.694917 0.143240
O11   O     O_2   0.203277 0.681841 0.395251 -0.557905
C37   C     C_R   0.102702 0.680547 0.381041 -0.136116
H8    H     H_    0.121927 0.757050 0.333198 0.190709
C38   C     C_R   0.949593 0.642711 0.324440 -0.215664
C39   C     C_R   0.899693 0.636383 0.316286 -0.138955
O12   O     O_2   0.798933 0.629192 0.313887 -0.570785
C40   C     C_R   0.052871 0.674789 0.370345 -0.214334
H9    H     H_    0.967172 0.707665 0.257494 0.143944
H10   H     H_    0.881731 0.698338 0.247816 0.189213
H11   H     H_    0.749007 0.616164 0.632953 0.141072
H12   H     H_    0.036626 0.750717 0.317410 0.143896
C41   C     C_2   0.508328 0.933351 0.387550 -0.160728
C42   C     C_2   0.507889 0.868585 0.501070 -0.338954
H13   H     H_    0.506446 0.888068 0.290720 0.173859
H14   H     H_    0.513506 0.910852 0.597877 0.155312
C43   C     C_2   0.510883 0.067618 0.390161 -0.156301
C44   C     C_2   0.497138 0.130727 0.498895 -0.330501
H15   H     H_    0.523019 0.114894 0.299753 0.171905
H16   H     H_    0.482671 0.087188 0.588476 0.150583
C45   C     C_2   0.522490 0.582784 0.924089 -0.146780
N3    N     N_2   0.500520 0.501330 0.852150 -0.204287
H17   H     H_    0.538586 0.661571 0.872346 0.158540
H18   H     H_    0.488874 0.421109 0.899072 0.164307
C46   C     C_2   0.530084 0.567442 0.072810 0.110220
N4    N     N_2   0.500540 0.501360 0.147810 -0.218509
H19   H     H_    0.469826 0.467405 0.103301 0.150608
N5    N     N_3   0.246803 0.375780 0.311173 -0.443563
H20   H     H_    0.255428 0.415747 0.218699 0.210401
H21   H     H_    0.256161 0.281643 0.307788 0.213549
C47   C     C_3   0.655068 0.669646 0.672905 -0.424897
C48   C     C_3   0.637189 0.783479 0.595983 -0.322591
C49   C     C_3   0.616938 0.881701 0.690982 -0.872142
H22   H     H_    0.585508 0.843233 0.747737 0.249679
H23   H     H_    0.645057 0.912676 0.762153 0.269183
H24   H     H_    0.604938 0.963724 0.632963 0.258968
H25   H     H_    0.667683 0.825174 0.537692 0.235297
H26   H     H_    0.608566 0.755580 0.525043 0.209639
H27   H     H_    0.625685 0.628916 0.735074 0.219701
H28   H     H_    0.683188 0.701365 0.744003 0.202899
C50   C     C_3   0.574159 0.627728 0.136202 -0.318596
C51   C     C_3   0.602700 0.721082 0.049293 -0.472685
C52   C     C_3   0.644713 0.778122 0.126323 -0.819741
H29   H     H_    0.631069 0.829787 0.214984 0.253999
H30   H     H_    0.669716 0.704144 0.159503 0.277709
H31   H     H_    0.665017 0.844089 0.060809 0.257691
H32   H     H_    0.617698 0.672775 0.960446 0.234607
H33   H     H_    0.578657 0.797560 0.016980 0.227861
H34   H     H_    0.562786 0.678516 0.226754 0.242625
H35   H     H_    0.599209 0.552046 0.164055 0.221353
N6    N     N_3   0.738679 0.319933 0.300787 -0.454558
H36   H     H_    0.759504 0.255744 0.352808 0.208199
H37   H     H_    0.761699 0.370518 0.237117 0.206576
N7    N     N_3   0.348561 0.369922 0.293738 -0.468355
H38   H     H_    0.373366 0.306607 0.331847 0.199504
H39   H     H_    0.366443 0.434102 0.231859 0.215465

loop_
_geom_bond_atom_site_label_1
_geom_bond_atom_site_label_2
_geom_bond_distance
_ccdc_geom_bond_type
C28   C32   1.401594 A    
C47   C48   1.533459 S    
C26   N2    1.364288 A    
C43   H15   1.086979 S    
C17   C29   1.403787 A    
C20   C24   1.416486 A    
C7    C8    1.401568 A    
C12   C15   1.408650 A    
C50   C51   1.535478 S    
C45   N3    1.286475 D    
Zn1   O7    2.004366 S    
C37   C40   1.385821 A    
N1    C11   1.423480 S    
C44   H16   1.083226 S    
Zn2   N4    2.016406 S    
C40   H12   1.076926 S    
C21   C22   1.386607 A    
N5    H21   1.045490 S    
C23   C24   1.408374 A    
O7    C4    1.295696 A    
N3    H18   1.028725 S    
C5    C13   1.399030 A    
C3    C42   1.418234 S    
C51   H32   1.108413 S    
C18   C21   1.415251 A    
C25   C39   1.394445 A    
C5    N1    1.364372 A    
C19   C20   1.419756 A    
C43   C44   1.336069 D    
C41   H13   1.086796 S    
C1    C44   1.416679 S    
O5    C3    1.285050 A    
N7    H38   1.045631 S    
C30   C31   1.396792 A    
C6    O11   1.350108 S    
C2    C16   1.462827 S    
C52   H29   1.111276 S    
C47   H27   1.105972 S    
N6    H36   1.045353 S    
C41   C43   1.442321 S    
C49   H23   1.110855 S    
C50   H34   1.102553 S    
C12   C34   1.416523 A    
C37   H8    1.083585 S    
C9    C10   1.386423 A    
N6    H37   1.045392 S    
C38   C39   1.385934 A    
O3    Zn1   2.013003 S    
C31   H11   1.083841 S    
C46   N4    1.308809 D    
C45   H17   1.082076 S    
C48   H26   1.110090 S    
C33   C36   1.415279 A    
C39   H10   1.083585 S    
C34   C35   1.419914 A    
N5    H20   1.045573 S    
O3    C2    1.297721 A    
C35   C40   1.414688 A    
C24   C25   1.408778 A    
C36   H7    1.076367 S    
C27   O10   1.349991 S    
C8    C16   1.418512 A    
C33   C34   1.420474 A    
C18   C33   1.417564 A    
C9    H1    1.083557 S    
C19   C38   1.414738 A    
O1    C1    1.286822 A    
C7    C11   1.400933 A    
C22   C23   1.394592 A    
C21   H6    1.076342 S    
C31   C32   1.396001 A    
C45   C46   1.516945 S    
Zn2   O8    2.013005 S    
C47   H28   1.112751 S    
N1    C6    1.364357 A    
N2    C32   1.423418 S    
C12   C13   1.408559 A    
C49   H24   1.110469 S    
Zn1   N3    2.016345 S    
C8    N7    1.435049 S    
C50   H35   1.110261 S    
C25   C26   1.398010 A    
C52   H30   1.111236 S    
C9    C16   1.403581 A    
O8    C4    1.293804 A    
C29   H4    1.084425 S    
C51   C52   1.527278 S    
N2    C27   1.364431 A    
C26   O12   1.350148 S    
C7    N5    1.433712 S    
C14   C36   1.386690 A    
C28   C29   1.388561 A    
C30   C47   1.514741 S    
C28   N6    1.431710 S    
Zn1   O5    1.978609 S    
C48   H25   1.111935 S    
C10   H2    1.082981 S    
O1    Zn1   1.978279 S    
C17   C30   1.416702 A    
O2    Zn2   1.978610 S    
C6    C15   1.397900 A    
C4    C17   1.457530 S    
O6    C3    1.285333 A    
O4    Zn2   2.004363 S    
C19   C35   1.415584 A    
O2    C1    1.283120 A    
C13   C14   1.394609 A    
C23   C27   1.398723 A    
C15   C37   1.394463 A    
O4    C2    1.294634 A    
C46   C50   1.521848 S    
C51   H33   1.111752 S    
C18   C20   1.420575 A    
C41   C42   1.333297 D    
N7    H39   1.044677 S    
C22   H5    1.083596 S    
C38   H9    1.076948 S    
C14   H3    1.083593 S    
C52   H31   1.110486 S    
C48   C49   1.525964 S    
Zn2   O6    1.978277 S    
N4    H19   1.028839 S    
C10   C11   1.393197 A    
C42   H14   1.083233 S    
C49   H22   1.110629 S    
C5    O9    1.349921 S    
