data_mof_unit_35773.cif
_audit_creation_date              2012-12-10T18:36:09-0500
_audit_creation_method            fapswitch 2.2
_symmetry_space_group_name_H-M    P1
_symmetry_Int_Tables_number       1
_space_group_crystal_system       triclinic
_cell_length_a                    15.054883
_cell_length_b                    15.562495
_cell_length_c                    19.235927
_cell_angle_alpha                 90.231439
_cell_angle_beta                  105.001594
_cell_angle_gamma                 82.208996
_cell_volume                      4310.76189835

loop_
_atom_site_label
_atom_site_type_symbol
_atom_type_description
_atom_site_fract_x
_atom_site_fract_y
_atom_site_fract_z
_atom_type_partial_charge
C1    C     C_R   0.441579 0.661514 0.490069 0.958817
C2    C     C_R   0.558424 0.338478 0.510052 0.930837
C3    C     C_R   0.404854 0.752942 0.488776 -0.123786
C4    C     C_R   0.595009 0.247052 0.511014 -0.117281
C5    C     C_R   0.302176 0.867663 0.524542 0.453875
C6    C     C_R   0.696976 0.132537 0.474237 0.447723
C7    C     C_R   0.325551 0.780209 0.512001 -0.262532
C8    C     C_R   0.674000 0.219879 0.487362 -0.246537
C9    C     C_R   0.456082 0.812850 0.471390 -0.123600
C10   C     C_R   0.543543 0.187118 0.528024 -0.135233
C11   C     C_R   0.441698 0.899564 0.490263 0.053513
C12   C     C_R   0.557530 0.100577 0.508608 0.044883
C13   C     C_R   0.363474 0.927180 0.517734 -0.009036
C14   C     C_R   0.635595 0.073044 0.480928 -0.013693
C15   C     C_R   0.506121 0.957544 0.486514 0.107578
C16   C     C_R   0.492964 0.042667 0.512169 0.108218
C17   C     C_R   0.414373 0.067820 0.538922 -0.148983
C18   C     C_R   0.584592 0.932443 0.459610 -0.153703
C19   C     C_R   0.350763 0.012073 0.540400 -0.111556
C20   C     C_R   0.648129 0.988235 0.458029 -0.110905
C21   C     C_R   0.856337 0.605693 0.626525 -0.285324
C22   C     C_R   0.143771 0.393912 0.373680 -0.287312
C23   C     C_R   0.502283 0.498322 0.634272 0.930700
C24   C     C_R   0.497730 0.501524 0.365684 0.937070
C25   C     C_R   0.761700 0.607131 0.596329 0.554856
C26   C     C_R   0.238413 0.392696 0.403782 0.610800
C27   C     C_R   0.793151 0.510526 0.506921 -0.102248
C28   C     C_R   0.206842 0.489513 0.493041 -0.121902
C29   C     C_R   0.887153 0.525490 0.525626 0.010049
C30   C     C_R   0.112897 0.474440 0.474414 0.011249
C31   C     C_R   0.919188 0.564338 0.591862 0.041391
C32   C     C_R   0.080895 0.435402 0.408266 0.030378
C33   C     C_R   0.951021 0.500737 0.483565 0.046039
C34   C     C_R   0.049049 0.499229 0.516481 0.049165
C35   C     C_R   0.078547 0.520058 0.590496 0.177459
C36   C     C_R   0.921557 0.479882 0.409558 0.177505
C37   C     C_R   0.013531 0.560677 0.623949 -0.140658
C38   C     C_R   0.986555 0.439067 0.376175 -0.136500
C39   C     C_R   0.429800 0.540532 0.730826 -0.223512
C40   C     C_R   0.570832 0.456624 0.269823 -0.244471
C41   C     C_R   0.428396 0.540508 0.802442 -0.125989
C42   C     C_R   0.571412 0.452817 0.198028 -0.121982
C43   C     C_R   0.503918 0.497440 0.854744 0.018046
C44   C     C_R   0.494697 0.492482 0.144901 0.002795
C45   C     C_R   0.581345 0.455219 0.834564 -0.223477
C46   C     C_R   0.417001 0.535133 0.164443 -0.210263
C47   C     C_R   0.583393 0.454219 0.762561 0.380758
C48   C     C_R   0.415867 0.540242 0.236524 0.449030
C49   C     C_R   0.506254 0.497426 0.710336 -0.152636
C50   C     C_R   0.494081 0.500346 0.289622 -0.132237
C51   C     C_R   0.496453 0.491846 0.069339 0.331765
C52   C     C_R   0.501443 0.495532 0.930113 0.327062
H1    H     H_    0.371294 0.574994 0.691170 0.164890
H2    H     H_    0.630035 0.424338 0.310141 0.162687
H3    H     H_    0.036710 0.583805 0.678096 0.165510
H4    H     H_    0.963377 0.415861 0.322055 0.165922
H5    H     H_    0.231577 0.535329 0.533135 0.172833
H6    H     H_    0.768375 0.464820 0.466737 0.168885
H7    H     H_    0.881277 0.641761 0.674266 0.198663
H8    H     H_    0.118833 0.357632 0.326070 0.202273
H9    H     H_    0.368012 0.574105 0.816623 0.172326
H10   H     H_    0.632059 0.419036 0.184337 0.172853
H11   H     H_    0.639714 0.421877 0.874892 0.188228
H12   H     H_    0.357581 0.565796 0.123495 0.203641
H13   H     H_    0.293147 0.036166 0.562160 0.221447
H14   H     H_    0.705628 0.964199 0.436120 0.221012
H15   H     H_    0.489108 0.212385 0.552253 0.176804
H16   H     H_    0.510702 0.787456 0.447395 0.171673
H17   H     H_    0.715125 0.267411 0.476094 0.208221
H18   H     H_    0.284465 0.732701 0.523374 0.207905
H19   H     H_    0.399020 0.130369 0.560203 0.169256
H20   H     H_    0.599831 0.869935 0.438215 0.165803
N1    N     N_R   0.574646 0.455082 0.981393 -0.156077
N2    N     N_R   0.423163 0.531989 0.018007 -0.151894
N3    N     N_R   0.572255 0.453356 0.049836 -0.159491
N4    N     N_R   0.425558 0.533727 0.949608 -0.158410
N5    N     N_R   0.731690 0.552730 0.540620 -0.153842
N6    N     N_R   0.268310 0.447270 0.459380 -0.160910
O1    O     O_R   0.383120 0.605620 0.479520 -0.628555
O2    O     O_R   0.616880 0.394380 0.520480 -0.604364
O3    O     O_R   0.531890 0.639510 0.505590 -0.546123
O4    O     O_R   0.468110 0.360490 0.494410 -0.565408
O5    O     O_R   0.425590 0.483060 0.588820 -0.647062
O6    O     O_R   0.574410 0.516940 0.411180 -0.656003
O7    O     O_R   0.574360 0.516950 0.614890 -0.534729
O8    O     O_R   0.425640 0.483050 0.385110 -0.511159
Zn1   Zn    Zn3+2 0.400660 0.477370 0.482600 1.050020
Zn2   Zn    Zn3+2 0.599340 0.522630 0.517400 1.058819
S1    S     S_3+6 0.310551 0.304098 0.378802 0.065513
O9    O     O_2   0.348381 0.243671 0.443310 -0.349253
O10   O     O_2   0.253660 0.255314 0.319875 -0.273968
O11   O     O_3   0.398437 0.332062 0.349299 -0.527056
H21   H     H_    0.440617 0.277217 0.349839 0.369498
S2    S     S_3+6 0.689768 0.695763 0.621440 0.068930
O12   O     O_2   0.747063 0.746081 0.678955 -0.288504
O13   O     O_2   0.649982 0.755567 0.556781 -0.300308
O14   O     O_3   0.602952 0.668033 0.652469 -0.519537
H22   H     H_    0.632648 0.646105 0.702524 0.367498
C53   C     C_3   0.174332 0.491686 0.639268 -0.880798
H23   H     H_    0.169289 0.470859 0.693162 0.254854
H24   H     H_    0.211056 0.434259 0.619098 0.255725
H25   H     H_    0.215186 0.546726 0.646925 0.233062
C54   C     C_3   0.825869 0.508418 0.360721 -0.884916
H26   H     H_    0.831079 0.529387 0.306912 0.255411
H27   H     H_    0.785005 0.453396 0.352893 0.233170
H28   H     H_    0.789110 0.565783 0.380937 0.254729
S3    S     S_3+6 0.680564 0.394387 0.740151 0.051559
O15   O     O_2   0.647865 0.336493 0.678842 -0.275840
O16   O     O_2   0.737760 0.455783 0.717664 -0.308353
O17   O     O_3   0.747276 0.332277 0.810840 -0.497886
H29   H     H_    0.788384 0.371066 0.840038 0.365390
S4    S     S_3+6 0.318242 0.600834 0.257721 0.050106
O18   O     O_2   0.258588 0.653765 0.193085 -0.266478
O19   O     O_2   0.261638 0.539731 0.281295 -0.268729
O20   O     O_3   0.354474 0.667935 0.324589 -0.593052
H30   H     H_    0.296945 0.696956 0.335250 0.391391
S5    S     S_3+6 0.199810 0.897910 0.553340 0.044099
O21   O     O_2   0.226053 0.924887 0.630269 -0.279131
O22   O     O_2   0.140902 0.972703 0.506804 -0.252748
O23   O     O_3   0.138460 0.814250 0.547399 -0.551524
H31   H     H_    0.083569 0.836624 0.564839 0.407276
S6    S     S_3+6 0.798962 0.102432 0.444898 0.044621
O24   O     O_2   0.858077 0.027469 0.491097 -0.246243
O25   O     O_2   0.772163 0.075758 0.367909 -0.289289
O26   O     O_3   0.860336 0.186065 0.450765 -0.547507
H32   H     H_    0.914991 0.163772 0.433006 0.406433

loop_
_geom_bond_atom_site_label_1
_geom_bond_atom_site_label_2
_ccdc_geom_bond_type
N6    Zn1   S    
C15   C18   A    
O5    Zn1   S    
C27   C29   A    
N1    N3    A    
C51   N2    A    
C41   H9    S    
C4    C8    A    
C7    H18   S    
O1    Zn1   S    
O14   H22   S    
C39   C41   A    
C10   H15   S    
C26   S1    S    
C21   C31   A    
C8    H17   S    
C26   N6    A    
C22   C32   A    
C36   C54   S    
C25   N5    A    
C20   H14   S    
C35   C37   A    
C51   N3    A    
C21   H7    S    
C3    C7    A    
S5    O22   D    
C22   H8    S    
C43   C52   S    
C23   C49   S    
C1    O3    A    
O4    Zn1   S    
C29   C33   A    
C33   C36   A    
C34   C35   A    
C23   O5    A    
O17   H29   S    
C11   C15   A    
C12   C16   A    
N5    Zn2   S    
C16   C17   A    
S3    O15   D    
C32   C38   A    
S1    O10   D    
C28   N6    A    
C42   H10   S    
C5    C13   A    
C40   C42   A    
C25   S2    S    
C18   H20   S    
S3    O16   D    
C42   C44   A    
C35   C53   S    
C10   C12   A    
S4    O19   D    
S4    O18   D    
C44   C46   A    
C45   C47   A    
C24   C50   S    
C46   C48   A    
C15   C16   A    
C30   C34   A    
C14   C20   A    
C47   C49   A    
C52   N1    A    
S5    O23   S    
C5    C7    A    
C13   C19   A    
O8    Zn1   S    
C6    C8    A    
S2    O14   S    
C27   N5    A    
C28   H5    S    
C45   H11   S    
C31   C37   A    
C46   H12   S    
C1    C3    S    
C2    C4    S    
C3    C9    A    
C6    C14   A    
C9    C11   A    
C53   H23   S    
C33   C34   A    
C54   H27   S    
S1    O11   S    
S2    O13   D    
C48   C50   A    
C43   C45   A    
N2    N4    A    
C44   C51   S    
C48   S4    S    
C12   C14   A    
C17   H19   S    
C40   H2    S    
C23   O7    A    
O26   H32   S    
C1    O1    A    
S3    O17   S    
C2    O4    A    
C6    S6    S    
C4    C10   A    
O23   H31   S    
O7    Zn2   S    
C21   C25   A    
C53   H24   S    
C41   C43   A    
O6    Zn2   S    
C52   N4    A    
C27   H6    S    
C39   C49   A    
C47   S3    S    
S6    O26   S    
C36   C38   A    
C24   O6    A    
C9    H16   S    
C29   C31   A    
S5    O21   D    
C30   C32   A    
C11   C13   A    
C39   H1    S    
C24   O8    A    
C40   C50   A    
C28   C30   A    
O11   H21   S    
C17   C19   A    
C19   H13   S    
C54   H28   S    
C18   C20   A    
S2    O12   D    
O3    Zn2   S    
C2    O2    A    
C37   H3    S    
C53   H25   S    
C38   H4    S    
O2    Zn2   S    
C22   C26   A    
C5    S5    S    
C54   H26   S    
S6    O24   D    
S1    O9    D    
S6    O25   D    
S4    O20   S    
O20   H30   S    
