data_mof_unit_64941.cif
_audit_creation_date              2012-12-10T17:00:46-0500
_audit_creation_method            fapswitch 2.2
_symmetry_space_group_name_H-M    P1
_symmetry_Int_Tables_number       1
_space_group_crystal_system       triclinic
_cell_length_a                    13.109931
_cell_length_b                    13.145463
_cell_length_c                    19.457879
_cell_angle_alpha                 100.490249
_cell_angle_beta                  80.486648
_cell_angle_gamma                 90.600005
_cell_volume                      3251.23566469

loop_
_atom_site_label
_atom_site_type_symbol
_atom_type_description
_atom_site_fract_x
_atom_site_fract_y
_atom_site_fract_z
_atom_type_partial_charge
C1    C     C_R   0.223241 0.537815 0.526085 0.519784
C2    C     C_2   0.454198 0.542278 0.991369 0.045056
C3    C     C_2   0.503918 0.469334 0.014774 -0.134869
C4    C     C_R   0.776186 0.463972 0.473958 0.556736
C5    C     C_R   0.518522 0.474592 0.232516 0.019372
C6    C     C_2   0.887773 0.455665 0.469459 -0.091744
C7    C     C_2   0.946533 0.536695 0.489604 0.010320
C8    C     C_2   0.112693 0.560965 0.533079 -0.059108
C9    C     C_2   0.057952 0.515218 0.484086 -0.150965
C10   C     C_2   0.542040 0.888211 0.531125 0.444862
C11   C     C_2   0.531380 0.937983 0.478598 -0.037778
C12   C     C_R   0.465165 0.537391 0.914113 -0.058824
C13   C     C_2   0.462907 0.107680 0.464613 0.047606
C14   C     C_2   0.527827 0.051702 0.491741 0.383467
C15   C     C_R   0.468577 0.222381 0.477952 0.531470
C16   C     C_R   0.532913 0.776483 0.521253 0.523856
C17   C     C_R   0.511924 0.484227 0.309294 0.529798
C18   C     C_R   0.490177 0.514571 0.690531 0.592050
C19   C     C_R   0.484987 0.523295 0.767034 0.026405
C20   C     C_R   0.574540 0.515298 0.797845 -0.002000
C21   C     C_R   0.563003 0.521490 0.871382 -0.135223
C22   C     C_2   0.680875 0.505754 0.755963 0.610864
C23   C     C_R   0.377783 0.547318 0.883188 -0.029113
C24   C     C_2   0.903624 0.643678 0.518281 0.605858
C25   C     C_2   0.385471 0.057061 0.421889 0.524095
C26   C     C_2   0.480918 0.281087 0.214442 0.603905
C27   C     C_2   0.385084 0.623631 0.039811 0.584024
C28   C     C_R   0.387366 0.540269 0.810334 0.376292
C29   C     C_R   0.540680 0.560997 0.131485 -0.064829
C30   C     C_R   0.543676 0.562824 0.202660 -0.125372
C31   C     C_R   0.495873 0.380968 0.188865 0.046344
C32   C     C_R   0.491285 0.381240 0.117506 -0.083810
C33   C     C_R   0.510645 0.471378 0.089456 0.042712
F1    F     F_    0.595152 0.099511 0.533029 -0.533445
F2    F     F_    0.544160 0.941476 0.597791 -0.537559
F3    F     F_    0.300475 0.547369 0.781779 -0.587564
H1    H     H_    0.472947 0.311043 0.083352 0.165817
H2    H     H_    0.630826 0.516782 0.895954 0.167268
H3    H     H_    0.779985 0.540543 0.672815 0.361852
H4    H     H_    0.783720 0.735749 0.572651 0.362287
H5    H     H_    0.284603 0.941495 0.405809 0.361922
H6    H     H_    0.413118 0.141811 0.205088 0.371045
H7    H     H_    0.286634 0.665691 0.131938 0.353716
H8    H     H_    0.094191 0.455803 0.440704 0.162407
H9    H     H_    0.076413 0.617742 0.578029 0.160158
H10   H     H_    0.922233 0.378255 0.454179 0.106816
H11   H     H_    0.520062 0.894782 0.427277 0.067277
H12   H     H_    0.562834 0.634335 0.234981 0.143274
H13   H     H_    0.542663 0.404583 0.976865 0.131754
H14   H     H_    0.301645 0.558554 0.915404 0.177474
H15   H     H_    0.559877 0.630096 0.109458 0.142286
O1    O     O_3   0.500000 0.500000 0.500000 -0.489343
O2    O     O_R   0.441420 0.437150 0.344000 -0.504550
O3    O     O_R   0.438960 0.578560 0.667440 -0.473563
O4    O     O_R   0.575450 0.541060 0.341470 -0.549034
O5    O     O_R   0.544160 0.443230 0.647100 -0.505475
O6    O     O_2   0.748560 0.459426 0.774958 -0.473288
O7    O     O_R   0.705046 0.552514 0.696375 -0.657173
O8    O     O_2   0.957871 0.718074 0.509694 -0.476445
O9    O     O_R   0.802953 0.659689 0.556155 -0.672753
O10   O     O_2   0.363778 0.094675 0.372958 -0.455105
O11   O     O_R   0.335600 0.967931 0.438514 -0.704308
O12   O     O_R   0.530110 0.266880 0.518530 -0.466427
O13   O     O_2   0.527453 0.261746 0.260226 -0.483408
O14   O     O_R   0.416327 0.207019 0.183920 -0.668778
O15   O     O_2   0.373314 0.706785 0.022099 -0.478629
O16   O     O_R   0.331166 0.604385 0.104296 -0.674966
O17   O     O_R   0.465470 0.738830 0.563940 -0.499008
O18   O     O_R   0.266890 0.467300 0.476120 -0.540771
O19   O     O_R   0.737530 0.526990 0.441410 -0.503716
O20   O     O_R   0.276880 0.592620 0.567490 -0.512958
O21   O     O_R   0.718700 0.413090 0.514970 -0.502957
O22   O     O_R   0.414920 0.276880 0.447500 -0.498141
O23   O     O_R   0.589510 0.717410 0.470040 -0.560299
Zn1   Zn    Zn3+2 0.571990 0.407410 0.544380 1.066567
Zn2   Zn    Zn3+2 0.407420 0.421690 0.442900 1.011707
Zn3   Zn    Zn3+2 0.598910 0.570150 0.439280 0.988641
Zn4   Zn    Zn3+2 0.421690 0.600750 0.573440 1.056153

loop_
_geom_bond_atom_site_label_1
_geom_bond_atom_site_label_2
_ccdc_geom_bond_type
H4    O9    S    
C1    C8    S    
C11   H11   S    
C19   C20   A    
O1    Zn1   S    
C2    C12   S    
C22   O6    D    
C4    O19   A    
C3    H13   S    
C12   C23   A    
C1    O20   A    
C16   O23   A    
C30   H12   S    
O4    Zn3   S    
C11   C14   S    
C5    C17   S    
C3    C33   S    
C7    C24   S    
C29   C33   A    
O18   Zn2   S    
C18   C19   S    
C26   O13   D    
C8    H9    S    
C21   H2    S    
C8    C9    D    
O23   Zn3   S    
H6    O14   S    
C10   F2    S    
C16   O17   A    
C17   O4    A    
C18   O5    A    
C26   C31   S    
O5    Zn1   S    
C13   C14   D    
O19   Zn3   S    
C13   C25   S    
H5    O11   S    
O21   Zn1   S    
O1    Zn4   S    
O17   Zn4   S    
C4    C6    S    
C23   H14   S    
C23   C28   A    
H3    O7    S    
C12   C21   A    
C1    O18   A    
C14   F1    S    
C29   C30   A    
C31   C32   A    
C24   O9    S    
C25   O10   D    
C32   H1    S    
C19   C28   A    
C2    C27   S    
C15   O22   A    
C20   C22   S    
C13   C15   S    
O22   Zn2   S    
O2    Zn2   S    
O1    Zn3   S    
C17   O2    A    
C4    O21   A    
C5    C30   A    
C29   H15   S    
C7    C9    S    
C9    H8    S    
C6    H10   S    
C26   O14   S    
O1    Zn2   S    
C22   O7    S    
C6    C7    D    
C32   C33   A    
C2    C3    D    
C27   O15   D    
C10   C16   S    
O12   Zn1   S    
C24   O8    D    
C25   O11   S    
C27   O16   S    
C10   C11   D    
C18   O3    A    
C20   C21   A    
C28   F3    S    
H7    O16   S    
C15   O12   A    
C5    C31   A    
O20   Zn4   S    
O3    Zn4   S    
