data_mof_unit_19787.cif
_audit_creation_date              2012-12-11T16:35:20-0500
_audit_creation_method            fapswitch 2.2
_symmetry_space_group_name_H-M    P1
_symmetry_Int_Tables_number       1
_space_group_crystal_system       triclinic
_cell_length_a                    6.9336
_cell_length_b                    17.691279
_cell_length_c                    19.428616
_cell_angle_alpha                 109.064276
_cell_angle_beta                  90.59322
_cell_angle_gamma                 90.824348
_cell_volume                      2251.96602295

loop_
_atom_site_label
_atom_site_type_symbol
_atom_type_description
_atom_site_fract_x
_atom_site_fract_y
_atom_site_fract_z
_atom_type_partial_charge
O1    O     O_R   0.505700 0.440210 0.561730 -0.541528
O2    O     O_R   0.169350 0.406300 0.412660 -0.541306
O3    O     O_R   0.005650 0.559790 0.438270 -0.539845
C1    C     C_R   0.336946 0.383197 0.384606 0.694533
O4    O     O_R   0.175560 0.430650 0.559600 -0.544643
O5    O     O_R   0.011900 0.584320 0.586250 -0.533812
C2    C     C_R   0.344151 0.417022 0.582278 0.693637
O6    O     O_R   0.499450 0.415680 0.413750 -0.532741
O7    O     O_3   0.341370 0.550390 0.508570 -0.365803
V1    V     V_3+5 0.063940 0.490650 0.498410 1.401544
O8    O     O_R   0.682570 0.593700 0.587340 -0.538800
C3    C     C_R   0.852918 0.616530 0.614981 0.700829
O9    O     O_R   0.676370 0.569350 0.440400 -0.542654
C4    C     C_R   0.845098 0.584107 0.418586 0.684912
V2    V     V_3+5 0.564750 0.509350 0.501590 1.408654
O10   O     O_3   0.837190 0.449610 0.491430 -0.369020
C5    C     C_R   0.723373 0.733224 0.321902 -0.138056
H1    H     H_    0.617023 0.778657 0.326085 0.098464
C6    C     C_R   0.713701 0.688466 0.369522 -0.170033
H2    H     H_    0.597407 0.699091 0.408137 0.121140
C7    C     C_R   0.855298 0.632032 0.368507 -0.054116
C8    C     C_R   0.006510 0.621297 0.318668 -0.157988
H3    H     H_    0.117861 0.578295 0.316546 0.118734
C9    C     C_R   0.013147 0.664533 0.269765 -0.162923
H4    H     H_    0.129464 0.654100 0.231151 0.117031
C10   C     C_R   0.870093 0.720184 0.270096 0.096353
C11   C     C_R   0.050243 0.810685 0.217569 -0.196441
H5    H     H_    0.170054 0.810260 0.253676 0.113694
C12   C     C_R   0.067600 0.856646 0.171441 -0.186737
H6    H     H_    0.200087 0.889900 0.172874 0.127239
C13   C     C_R   0.913849 0.861488 0.125778 -0.077501
C14   C     C_R   0.744584 0.816436 0.125004 -0.200093
H7    H     H_    0.626985 0.818139 0.088382 0.121990
C15   C     C_R   0.726340 0.767869 0.169633 0.168659
C16   C     C_R   0.880163 0.766692 0.218392 0.071212
H8    H     H_    0.657628 0.647326 0.933259 0.112386
C17   C     C_R   0.045357 0.897976 0.748216 -0.141314
C18   C     C_R   0.105830 0.906893 0.683097 -0.122565
C19   C     C_R   0.088027 0.843279 0.618379 -0.122288
C20   C     C_R   0.009655 0.770274 0.618298 -0.131909
C21   C     C_R   0.948530 0.759162 0.683700 0.069264
C22   C     C_R   0.966748 0.824306 0.749977 0.067118
C23   C     C_R   0.866957 0.685175 0.683646 -0.183578
C24   C     C_R   0.803524 0.676269 0.749804 0.059925
C25   C     C_R   0.824098 0.741092 0.816202 0.068267
C26   C     C_R   0.904030 0.815241 0.816119 -0.184255
C27   C     C_R   0.726271 0.602481 0.751770 -0.155361
C28   C     C_R   0.676825 0.592257 0.817523 -0.131437
C29   C     C_R   0.696638 0.655568 0.882325 -0.117765
C30   C     C_R   0.768660 0.729337 0.881975 -0.127553
H9    H     H_    0.165852 0.963643 0.682842 0.119877
H10   H     H_    0.134112 0.850644 0.567841 0.113820
H11   H     H_    0.996253 0.723080 0.566335 0.102502
H12   H     H_    0.709084 0.551102 0.703026 0.110859
H13   H     H_    0.624788 0.534565 0.818227 0.116959
H14   H     H_    0.783865 0.776347 0.933990 0.098365
H15   H     H_    0.574284 0.482222 0.192287 0.119526
C31   C     C_R   0.195087 0.220937 0.366727 -0.178943
C32   C     C_R   0.152082 0.142804 0.364625 0.158125
C33   C     C_R   0.232896 0.078938 0.310592 -0.146413
C34   C     C_R   0.354218 0.092456 0.258111 0.096086
C35   C     C_R   0.361957 0.170198 0.250836 0.024598
C36   C     C_R   0.300397 0.236202 0.310729 0.015332
C37   C     C_R   0.429692 0.183839 0.186661 -0.186447
C38   C     C_R   0.465521 0.263563 0.188104 0.074560
C39   C     C_R   0.430287 0.329114 0.252504 0.076278
C40   C     C_R   0.348048 0.315610 0.314216 -0.169020
C41   C     C_R   0.536748 0.279717 0.126220 -0.143237
C42   C     C_R   0.576226 0.357864 0.128158 -0.119638
C43   C     C_R   0.544234 0.421615 0.191165 -0.127012
C44   C     C_R   0.471084 0.407799 0.252571 -0.143160
H16   H     H_    0.139320 0.269214 0.411458 0.134439
H17   H     H_    0.211707 0.018908 0.312501 0.124748
H18   H     H_    0.563939 0.232373 0.075799 0.109332
H19   H     H_    0.443610 0.459634 0.299490 0.104037
C45   C     C_R   0.504914 0.261136 0.664569 -0.147142
H20   H     H_    0.611667 0.214721 0.652732 0.114275
C46   C     C_R   0.491556 0.308676 0.619658 -0.211134
H21   H     H_    0.588544 0.297690 0.574196 0.130269
C47   C     C_R   0.353305 0.368891 0.632209 -0.072989
C48   C     C_R   0.229143 0.382234 0.692718 0.143396
C49   C     C_R   0.242684 0.332942 0.736613 -0.171677
H22   H     H_    0.150528 0.343926 0.783451 0.106788
C50   C     C_R   0.379755 0.272351 0.723242 0.055733
C51   C     C_R   0.225420 0.194371 0.796162 -0.150541
C52   C     C_R   0.236859 0.149692 0.843594 -0.167711
H23   H     H_    0.104014 0.128972 0.860865 0.119064
C53   C     C_R   0.416838 0.132016 0.868276 -0.053927
C54   C     C_R   0.585252 0.159523 0.843407 -0.164526
H24   H     H_    0.726308 0.146880 0.860966 0.117556
C55   C     C_R   0.573661 0.204046 0.795633 -0.144598
H25   H     H_    0.705733 0.225447 0.778438 0.099419
C56   C     C_R   0.393479 0.222431 0.771801 0.101125
O11   O     O_R   0.273230 0.084330 0.086440 -0.529909
O12   O     O_R   0.596660 0.069390 0.940470 -0.544146
O13   O     O_R   0.760270 0.915710 0.913690 -0.534660
C57   C     C_R   0.427589 0.084049 0.918510 0.687721
O14   O     O_R   0.603330 0.093680 0.087390 -0.543619
O15   O     O_R   0.766990 0.940160 0.061660 -0.542978
C58   C     C_R   0.436203 0.116291 0.115960 0.691057
O16   O     O_R   0.266510 0.059870 0.938470 -0.541329
O17   O     O_3   0.431050 0.949630 0.991510 -0.367740
V3    V     V_3+5 0.708490 0.009340 0.001580 1.398945
O18   O     O_R   0.096270 0.930570 0.059390 -0.543459
C59   C     C_R   0.927016 0.914110 0.079814 0.695312
O19   O     O_R   0.089600 0.906290 0.912460 -0.537739
C60   C     C_R   0.919065 0.883627 0.884851 0.699413
V4    V     V_3+5 0.207670 0.990600 0.998190 1.411071
O20   O     O_3   0.935250 0.050360 0.008480 -0.367254
H26   H     H_    0.060220 0.949616 0.796881 0.105009
C61   C     C_3   0.027619 0.128024 0.422399 -0.376473
C62   C     C_3   0.129918 0.155266 0.496719 -0.739449
H27   H     H_    0.269008 0.124012 0.493729 0.229340
H28   H     H_    0.157784 0.220873 0.515519 0.222932
H29   H     H_    0.037529 0.140908 0.537302 0.214909
H30   H     H_    0.890292 0.160638 0.425881 0.180140
H31   H     H_    0.989670 0.063363 0.407970 0.176302
C63   C     C_3   0.498211 0.028385 0.220494 -0.333909
C64   C     C_3   0.587236 0.987680 0.271616 -0.785243
H32   H     H_    0.627833 0.032700 0.324926 0.231039
H33   H     H_    0.485403 0.942652 0.280110 0.215199
H34   H     H_    0.720036 0.956454 0.247581 0.231550
H35   H     H_    0.429574 0.983051 0.172593 0.173460
H36   H     H_    0.622213 0.056076 0.201481 0.188192
H37   H     H_    0.631657 0.369006 0.080405 0.116268
C65   C     C_3   0.093406 0.452194 0.716166 -0.382741
C66   C     C_3   0.206237 0.530489 0.750624 -0.715520
H38   H     H_    0.285700 0.528136 0.799693 0.220222
H39   H     H_    0.309154 0.541779 0.711576 0.217100
H40   H     H_    0.106821 0.581304 0.768005 0.228767
H41   H     H_    0.002344 0.455378 0.670085 0.191790
H42   H     H_    0.990730 0.445002 0.757285 0.174303
H43   H     H_    0.084526 0.206514 0.778047 0.100677
C67   C     C_3   0.545669 0.715951 0.160924 -0.375450
C68   C     C_3   0.588190 0.627741 0.123087 -0.751214
H44   H     H_    0.451983 0.591954 0.115466 0.212980
H45   H     H_    0.651415 0.619162 0.068807 0.223179
H46   H     H_    0.689684 0.605314 0.156132 0.231094
H47   H     H_    0.477702 0.724019 0.214028 0.170280
H48   H     H_    0.435016 0.733611 0.127512 0.182106

loop_
_geom_bond_atom_site_label_1
_geom_bond_atom_site_label_2
_ccdc_geom_bond_type
C68   H46   S    
O15   V3    S    
C65   C66   S    
C48   C65   S    
C11   C12   A    
C21   C23   A    
C21   C22   A    
C61   C62   S    
C67   H47   S    
C1    O6    A    
C45   C50   A    
C62   H28   S    
C48   C49   A    
C68   H44   S    
C51   C52   A    
O11   V4    S    
C17   C18   A    
C5    C10   A    
C65   H41   S    
C4    C7    S    
C6    C7    A    
C45   C46   A    
C3    C23   S    
C42   C43   A    
O5    C3    A    
C18   C19   A    
C52   C53   A    
O19   C60   A    
C15   C67   S    
C41   H18   S    
V2    O10   S    
C33   H17   S    
V4    O20   S    
C15   C16   A    
C22   C26   A    
C17   C22   A    
C63   C64   S    
O18   C59   A    
C35   C37   A    
O8    V2    S    
C27   C28   A    
C41   C42   A    
C32   C61   S    
O17   V4    S    
C61   H30   S    
O1    V2    S    
C65   H42   S    
H15   C43   S    
C54   C55   A    
O7    V1    S    
C53   C57   S    
C24   C27   A    
C63   H35   S    
O16   V4    S    
C19   H10   S    
C28   H13   S    
C42   H37   S    
C32   C33   A    
O9    C4    A    
C13   C59   S    
C34   C35   A    
C51   C56   A    
C62   H27   S    
O12   V3    S    
C64   H33   S    
O15   C59   A    
C36   C40   A    
C44   H19   S    
C9    H4    S    
C55   H25   S    
O4    C2    A    
C52   H23   S    
C18   H9    S    
C11   C16   A    
C31   C32   A    
C25   C26   A    
C30   H14   S    
C33   C34   A    
C14   C15   A    
O2    C1    A    
C23   C24   A    
C66   H39   S    
C12   H6    S    
C55   C56   A    
C39   C44   A    
O11   C58   A    
C64   H32   S    
C38   C41   A    
C26   C60   S    
C35   C36   A    
C5    H1    S    
C63   H36   S    
C45   H20   S    
C17   H26   S    
C43   C44   A    
O3    C4    A    
C27   H12   S    
C28   C29   A    
O13   C60   A    
C49   H22   S    
O6    V2    S    
C49   C50   A    
O9    V2    S    
C8    C9    A    
C66   H38   S    
O2    V1    S    
O18   V4    S    
C24   C25   A    
C64   H34   S    
C31   C36   A    
C68   H45   S    
C20   C21   A    
C34   C63   S    
O1    C2    A    
C13   C14   A    
C9    C10   A    
C47   C48   A    
O5    V1    S    
C1    C40   S    
O8    C3    A    
O12   C57   A    
C67   C68   S    
O14   C58   A    
V3    O20   S    
C61   H31   S    
C14   H7    S    
C6    H2    S    
O7    V2    S    
C66   H40   S    
O4    V1    S    
C12   C13   A    
O3    V1    S    
V1    O10   S    
C37   C38   A    
C67   H48   S    
C46   H21   S    
C31   H16   S    
O19   V4    S    
C25   C30   A    
C5    C6    A    
C39   C40   A    
C46   C47   A    
C50   C56   S    
C38   C39   A    
O17   V3    S    
C20   H11   S    
C19   C20   A    
C10   C16   S    
C37   C58   S    
C53   C54   A    
C29   C30   A    
O13   V3    S    
C11   H5    S    
C8    H3    S    
C54   H24   S    
C7    C8    A    
C62   H29   S    
C57   O16   A    
H8    C29   S    
O14   V3    S    
C51   H43   S    
C2    C47   S    
