data_mof_unit_56982.cif
_audit_creation_date              2012-12-10T16:37:39-0500
_audit_creation_method            fapswitch 2.2
_symmetry_space_group_name_H-M    P1
_symmetry_Int_Tables_number       1
_space_group_crystal_system       triclinic
_cell_length_a                    10.889236
_cell_length_b                    10.906156
_cell_length_c                    15.376241
_cell_angle_alpha                 96.494497
_cell_angle_beta                  74.626059
_cell_angle_gamma                 98.396771
_cell_volume                      1736.55408355

loop_
_atom_site_label
_atom_site_type_symbol
_atom_type_description
_atom_site_fract_x
_atom_site_fract_y
_atom_site_fract_z
_atom_type_partial_charge
C1    C     C_R   0.158893 0.478904 0.520313 0.543297
C2    C     C_R   0.514041 0.490914 0.115486 0.239896
C3    C     C_R   0.647268 0.328266 0.111319 0.207953
C4    C     C_R   0.842628 0.520881 0.479864 0.548958
C5    C     C_R   0.404278 0.562160 0.844029 0.022981
C6    C     C_2   0.981079 0.526698 0.471350 0.267437
C7    C     C_2   0.022766 0.470769 0.530188 0.298639
C8    C     C_2   0.536453 0.966107 0.469072 0.227726
C9    C     C_2   0.456611 0.036740 0.530103 0.244756
C10   C     C_R   0.468156 0.168387 0.521037 0.533031
C11   C     C_R   0.529080 0.833644 0.479723 0.542353
C12   C     C_R   0.290264 0.666454 0.985502 0.251984
C13   C     C_R   0.555485 0.445500 0.258088 0.529696
C14   C     C_R   0.442217 0.550938 0.743005 0.538641
C15   C     C_R   0.635687 0.286901 0.023693 0.259541
C16   C     C_R   0.577086 0.423742 0.159810 -0.021673
C17   C     C_R   0.343478 0.665450 0.890691 0.205407
C18   C     C_R   0.321358 0.579806 0.034727 0.344120
C19   C     C_R   0.413280 0.498778 0.989606 -0.000022
C20   C     C_R   0.430838 0.473424 0.895413 -0.127318
C21   C     C_R   0.486979 0.439760 0.032996 0.039989
C22   C     C_R   0.546253 0.333906 0.987397 -0.054354
C23   C     C_R   0.517962 0.283217 0.904808 0.252947
C24   C     C_R   0.467538 0.356747 0.857659 -0.056634
H1    H     H_    0.450254 0.318069 0.793590 0.190266
H2    H     H_    0.187201 0.419235 0.243719 0.392093
H3    H     H_    0.161363 0.774008 0.988537 0.355346
H4    H     H_    0.025363 0.622657 0.365213 0.380859
H5    H     H_    0.709812 0.295248 0.296729 0.363399
H6    H     H_    0.990388 0.375997 0.635492 0.325114
H7    H     H_    0.810126 0.925250 0.333584 0.370924
H8    H     H_    0.321912 0.054813 0.641190 0.337470
H9    H     H_    0.439844 0.001629 0.770786 0.400207
H10   H     H_    0.752377 0.240127 0.911513 0.357102
H11   H     H_    0.530583 0.642228 0.195596 0.362864
H12   H     H_    0.325681 0.838367 0.883462 0.371016
O1    O     O_3   0.500000 0.500000 0.500000 -0.498629
O2    O     O_R   0.463530 0.379110 0.309170 -0.502524
O3    O     O_R   0.388210 0.611730 0.699360 -0.470197
O4    O     O_R   0.624720 0.532760 0.292120 -0.506878
O5    O     O_R   0.523540 0.476390 0.699360 -0.562073
O6    O     O_2   0.740848 0.134657 0.152907 -0.125531
O7    O     O_2   0.894752 0.303001 0.083647 -0.160557
O8    O     O_3   0.781080 0.338844 0.252464 -0.466875
O9    O     O_3   0.939349 0.409349 0.600839 -0.667058
O10   O     O_2   0.571820 0.077959 0.317603 -0.223200
O11   O     O_2   0.734275 0.136670 0.403233 -0.301612
O12   O     O_R   0.537910 0.240570 0.564270 -0.514001
O13   O     O_3   0.737008 0.925304 0.306595 -0.420563
O14   O     O_3   0.370094 0.987723 0.605039 -0.669629
O15   O     O_2   0.657608 0.119539 0.792095 -0.262290
O16   O     O_2   0.520864 0.044291 0.935242 -0.178994
O17   O     O_3   0.412251 0.076438 0.809784 -0.522497
O18   O     O_3   0.720953 0.208877 0.972513 -0.546552
O19   O     O_3   0.485559 0.609653 0.148188 -0.619410
O20   O     O_3   0.333567 0.761449 0.842470 -0.642488
O21   O     O_2   0.236887 0.659670 0.209475 -0.177687
O22   O     O_2   0.080134 0.538772 0.135960 -0.184611
O23   O     O_R   0.438950 0.782540 0.540270 -0.474321
O24   O     O_3   0.240261 0.419684 0.180501 -0.490235
O25   O     O_3   0.204766 0.748173 0.031312 -0.590128
O26   O     O_3   0.070484 0.588773 0.403485 -0.692263
O27   O     O_R   0.222350 0.398740 0.468260 -0.528856
O28   O     O_R   0.800790 0.578160 0.427210 -0.540271
O29   O     O_R   0.212140 0.566330 0.564260 -0.527030
O30   O     O_R   0.764730 0.456770 0.540270 -0.463844
O31   O     O_R   0.412790 0.208310 0.468260 -0.514952
O32   O     O_R   0.610350 0.768590 0.427210 -0.521218
S1    S     S_3+6 0.767885 0.273467 0.150390 0.160783
S2    S     S_3+6 0.647200 0.030138 0.372653 0.057811
S3    S     S_3+6 0.531184 0.126589 0.860886 0.055193
S4    S     S_3+6 0.216512 0.551243 0.143090 0.139847
Zn1   Zn    Zn3+2 0.580150 0.419820 0.574680 1.016646
Zn2   Zn    Zn3+2 0.401380 0.373730 0.437510 1.024207
Zn3   Zn    Zn3+2 0.631680 0.593260 0.413140 1.031167
Zn4   Zn    Zn3+2 0.386790 0.613180 0.574670 1.035309

loop_
_geom_bond_atom_site_label_1
_geom_bond_atom_site_label_2
_ccdc_geom_bond_type
O1    Zn2   S    
H6    O9    S    
C19   C20   A    
C5    C20   A    
C10   O31   A    
O32   Zn3   S    
O29   Zn4   S    
C7    O9    S    
C19   C21   A    
C2    O19   S    
C5    C17   A    
O24   S4    S    
C18   C19   A    
C13   O4    A    
H3    O25   S    
C14   O3    A    
C15   C22   A    
C20   C24   A    
C8    C9    D    
C12   C17   A    
C1    O29   A    
C23   C24   A    
C2    C16   A    
C9    C10   S    
O1    Zn3   S    
O7    S1    D    
C21   C22   A    
C18   S4    S    
O15   S3    D    
H7    O13   S    
C11   O23   A    
C1    O27   A    
H9    O17   S    
H11   O19   S    
C15   O18   S    
C23   S3    S    
C24   H1    S    
C4    C6    S    
O30   Zn1   S    
O6    S1    D    
O11   S2    D    
H12   O20   S    
C2    C21   A    
C13   O2    A    
O8    S1    S    
O31   Zn2   S    
O3    Zn4   S    
C17   O20   S    
H8    O14   S    
C5    C14   S    
C14   O5    A    
O1    Zn4   S    
H10   O18   S    
O13   S2    S    
H5    O8    S    
C10   O12   A    
O17   S3    S    
C3    C15   A    
C11   O32   A    
O2    Zn2   S    
O1    Zn1   S    
C3    S1    S    
C1    C7    S    
O12   Zn1   S    
C9    O14   S    
C6    C7    D    
O27   Zn2   S    
C4    O28   A    
C8    S2    S    
O4    Zn3   S    
C6    O26   S    
O16   S3    D    
C4    O30   A    
C12   O25   S    
O22   S4    D    
C8    C11   S    
O28   Zn3   S    
O21   S4    D    
O10   S2    D    
O5    Zn1   S    
C13   C16   S    
C12   C18   A    
C22   C23   A    
H2    O24   S    
O23   Zn4   S    
C3    C16   A    
H4    O26   S    
