data_mof_unit_37928.cif
_audit_creation_date              2012-12-11T17:36:08-0500
_audit_creation_method            fapswitch 2.2
_symmetry_space_group_name_H-M    P1
_symmetry_Int_Tables_number       1
_space_group_crystal_system       triclinic
_cell_length_a                    25.844479
_cell_length_b                    6.909076
_cell_length_c                    21.700042
_cell_angle_alpha                 89.998032
_cell_angle_beta                  96.007344
_cell_angle_gamma                 89.999364
_cell_volume                      3853.5129277

loop_
_atom_site_label
_atom_site_type_symbol
_atom_type_description
_atom_site_fract_x
_atom_site_fract_y
_atom_site_fract_z
_atom_type_partial_charge
O1    O     O_R   0.208650 0.594520 0.175450 -0.533933
O2    O     O_R   0.791350 0.405480 0.824550 -0.533933
O3    O     O_R   0.291350 0.094520 0.324550 -0.533932
O4    O     O_R   0.708650 0.905480 0.675450 -0.533932
O5    O     O_R   0.192980 0.260780 0.300160 -0.538595
O6    O     O_R   0.807020 0.739220 0.699840 -0.538595
O7    O     O_R   0.307020 0.760780 0.199840 -0.538595
O8    O     O_R   0.692980 0.239220 0.800160 -0.538594
C1    C     C_R   0.179064 0.432812 0.318670 0.703828
C2    C     C_R   0.820936 0.567188 0.681330 0.703828
C3    C     C_R   0.320936 0.932814 0.181330 0.703835
C4    C     C_R   0.679064 0.067186 0.818670 0.703834
O9    O     O_R   0.202550 0.264660 0.174420 -0.538212
O10   O     O_R   0.797450 0.735340 0.825580 -0.538212
O11   O     O_R   0.297450 0.764660 0.325580 -0.538216
O12   O     O_R   0.702550 0.235340 0.674420 -0.538216
O13   O     O_R   0.300990 0.096480 0.197920 -0.539906
O14   O     O_R   0.699010 0.903520 0.802080 -0.539905
O15   O     O_R   0.199010 0.596480 0.302080 -0.539904
O16   O     O_R   0.800990 0.403520 0.697920 -0.539904
C5    C     C_R   0.191115 0.433330 0.151130 0.699536
C6    C     C_R   0.808885 0.566670 0.848870 0.699535
C7    C     C_R   0.308885 0.933322 0.348870 0.699536
C8    C     C_R   0.691115 0.066678 0.651130 0.699536
O17   O     O_3   0.282290 0.427760 0.257860 -0.365396
O18   O     O_3   0.717710 0.572240 0.742140 -0.365396
O19   O     O_3   0.217710 0.927760 0.242140 -0.365394
O20   O     O_3   0.782290 0.072240 0.757860 -0.365394
V1    V     V_3+5 0.244010 0.152080 0.248540 1.439460
V2    V     V_3+5 0.755990 0.847920 0.751460 1.439460
V3    V     V_3+5 0.255990 0.652080 0.251460 1.439459
V4    V     V_3+5 0.744010 0.347920 0.748540 1.439459
C9    C     C_R   0.657511 0.061025 0.591909 -0.052288
C10   C     C_R   0.342489 0.938975 0.408091 -0.052289
C11   C     C_R   0.842488 0.560988 0.908091 -0.052278
C12   C     C_R   0.157512 0.439012 0.091909 -0.052278
C13   C     C_R   0.646836 0.121672 0.481681 -0.074301
C14   C     C_R   0.353164 0.878328 0.518319 -0.074301
C15   C     C_R   0.853148 0.621375 0.018331 -0.074291
C16   C     C_R   0.146852 0.378625 0.981669 -0.074291
C17   C     C_R   0.678409 0.113138 0.537603 -0.181171
C18   C     C_R   0.321591 0.886862 0.462397 -0.181171
C19   C     C_R   0.821579 0.612918 0.962405 -0.181194
C20   C     C_R   0.178421 0.387082 0.037595 -0.181194
C21   C     C_R   0.604185 0.017969 0.590026 -0.166062
C22   C     C_R   0.395815 0.982031 0.409973 -0.166062
C23   C     C_R   0.895820 0.518036 0.909968 -0.166059
C24   C     C_R   0.104180 0.481964 0.090032 -0.166059
C25   C     C_R   0.570646 0.028803 0.533536 0.048819
C26   C     C_R   0.429354 0.971197 0.466464 0.048819
C27   C     C_R   0.929353 0.528780 0.966464 0.048816
C28   C     C_R   0.070647 0.471220 0.033536 0.048816
C29   C     C_R   0.593314 0.081458 0.479033 -0.009081
C30   C     C_R   0.406685 0.918542 0.520966 -0.009081
C31   C     C_R   0.906675 0.581253 0.020975 -0.009088
C32   C     C_R   0.093325 0.418747 0.979025 -0.009088
C33   C     C_R   0.515598 0.991845 0.529286 -0.036679
C34   C     C_R   0.484402 0.008155 0.470714 -0.036679
C35   C     C_R   0.984405 0.491898 0.970711 -0.036685
C36   C     C_R   0.015595 0.508102 0.029289 -0.036685
C37   C     C_R   0.509303 0.060293 0.418312 -0.226772
C38   C     C_R   0.490697 0.939707 0.581688 -0.226772
C39   C     C_R   0.990685 0.560064 0.081700 -0.226781
C40   C     C_R   0.009315 0.439935 0.918300 -0.226781
C41   C     C_R   0.562433 0.095725 0.422355 0.613673
C42   C     C_R   0.437567 0.904274 0.577645 0.613673
C43   C     C_R   0.937551 0.595423 0.077659 0.613677
C44   C     C_R   0.062449 0.404577 0.922341 0.613677
H1    H     H_    0.409775 0.018786 0.366415 0.097223
H2    H     H_    0.590225 0.981214 0.633585 0.097223
H3    H     H_    0.090214 0.518586 0.133597 0.097210
H4    H     H_    0.909786 0.481414 0.866403 0.097210
H5    H     H_    0.280663 0.851373 0.461384 0.128807
H6    H     H_    0.719337 0.148627 0.538616 0.128807
H7    H     H_    0.219354 0.351680 0.038603 0.128812
H8    H     H_    0.780646 0.648320 0.961397 0.128812
H9    H     H_    0.664450 0.162621 0.440433 0.194805
H10   H     H_    0.335549 0.837379 0.559566 0.194805
H11   H     H_    0.835526 0.662182 0.059586 0.194810
H12   H     H_    0.164474 0.337817 0.940414 0.194810
H13   H     H_    0.488710 0.075759 0.372863 0.157045
H14   H     H_    0.511290 0.924241 0.627137 0.157045
H15   H     H_    0.011272 0.575443 0.127154 0.157049
H16   H     H_    0.988727 0.424557 0.872846 0.157049
C45   C     C_R   0.437824 0.811266 0.094197 -0.093280
C46   C     C_R   0.562176 0.188733 0.905803 -0.093280
C47   C     C_R   0.062176 0.311268 0.405804 -0.093274
C48   C     C_R   0.937824 0.688732 0.594196 -0.093274
H17   H     H_    0.465281 0.693707 0.091846 0.179771
H18   H     H_    0.534719 0.306293 0.908154 0.179771
H19   H     H_    0.034718 0.193713 0.408155 0.179769
H20   H     H_    0.965282 0.806287 0.591845 0.179769
C49   C     C_R   0.398258 0.794261 0.133650 -0.139502
C50   C     C_R   0.601742 0.205739 0.866350 -0.139502
C51   C     C_R   0.101741 0.294263 0.366351 -0.139499
C52   C     C_R   0.898259 0.705737 0.633649 -0.139499
H21   H     H_    0.396058 0.663634 0.160836 0.142582
H22   H     H_    0.603942 0.336366 0.839163 0.142582
H23   H     H_    0.103940 0.163641 0.339164 0.142580
H24   H     H_    0.896059 0.836359 0.660835 0.142580
C53   C     C_R   0.362610 0.945943 0.138706 -0.109684
C54   C     C_R   0.637390 0.054057 0.861294 -0.109684
C55   C     C_R   0.137390 0.445938 0.361294 -0.109683
C56   C     C_R   0.862610 0.554061 0.638706 -0.109683
C57   C     C_R   0.367090 0.113283 0.102461 -0.180191
C58   C     C_R   0.632910 0.886717 0.897539 -0.180191
C59   C     C_R   0.132911 0.613272 0.397539 -0.180192
C60   C     C_R   0.867089 0.386728 0.602461 -0.180192
H25   H     H_    0.339912 0.231773 0.104762 0.149072
H26   H     H_    0.660088 0.768227 0.895238 0.149072
H27   H     H_    0.160090 0.731758 0.395238 0.149074
H28   H     H_    0.839910 0.268242 0.604762 0.149074
C61   C     C_R   0.405929 0.129049 0.062104 0.291368
C62   C     C_R   0.594071 0.870951 0.937896 0.291368
C63   C     C_R   0.094072 0.629039 0.437896 0.291367
C64   C     C_R   0.905928 0.370961 0.562104 0.291367
C65   C     C_R   0.441927 0.978054 0.058036 0.043105
C66   C     C_R   0.558073 0.021946 0.941964 0.043105
C67   C     C_R   0.058073 0.478050 0.441964 0.043104
C68   C     C_R   0.941927 0.521949 0.558036 0.043104
C69   C     C_1   0.482942 0.993063 0.017118 0.094664
C70   C     C_1   0.517058 0.006937 0.982882 0.094664
C71   C     C_1   0.017058 0.493062 0.482882 0.094664
C72   C     C_1   0.982942 0.506938 0.517118 0.094664
F1    F     F_    0.583736 0.145900 0.369959 -0.658928
F2    F     F_    0.416264 0.854100 0.630041 -0.658928
F3    F     F_    0.916239 0.645425 0.130064 -0.658921
F4    F     F_    0.083761 0.354575 0.869936 -0.658921
Br1   Br    Br    0.408043 0.358518 0.012663 -0.539778
Br2   Br    Br    0.591957 0.641482 0.987337 -0.539778
Br3   Br    Br    0.091960 0.858500 0.487336 -0.539774
Br4   Br    Br    0.908040 0.141500 0.512664 -0.539774

loop_
_geom_bond_atom_site_label_1
_geom_bond_atom_site_label_2
_ccdc_geom_bond_type
O17   V3    S    
C48   C52   A    
O1    C5    A    
C47   H19   S    
O19   V1    S    
C9    C21   A    
O3    C7    A    
C10   C18   A    
C11   C23   A    
C25   C33   A    
C71   C72   T    
C5    C12   S    
C63   Br3   S    
O7    C3    A    
C6    C11   S    
O5    C1    A    
C26   C30   A    
C60   H28   S    
C61   Br1   S    
C58   C62   A    
C36   C39   A    
C40   C44   A    
C57   C61   A    
C14   C18   A    
C58   H26   S    
O4    C8    A    
C51   H23   S    
C50   H22   S    
O1    V3    S    
O13   V1    S    
O2    V4    S    
C66   C70   S    
O3    V1    S    
C65   C69   S    
C40   H16   S    
C22   H1    S    
C46   C50   A    
C17   H6    S    
C45   C49   A    
C1    O15   A    
C15   C31   A    
C48   H20   S    
C2    O16   A    
C16   C32   A    
C64   Br4   S    
O2    C6    A    
C16   H12   S    
C54   C58   A    
C10   C22   A    
C21   C25   A    
C48   C68   A    
C11   C19   A    
C44   F4    S    
C16   C20   A    
C1    C55   S    
C13   C29   A    
C34   C37   A    
O11   C7    A    
C38   H14   S    
O15   V3    S    
C35   C36   A    
O12   C8    A    
O17   V1    S    
C62   Br2   S    
C47   C67   A    
O10   V2    S    
C51   C55   A    
O5    V1    S    
C53   C57   A    
C39   C43   A    
O7    V3    S    
C38   C42   A    
O19   V3    S    
C26   C34   A    
C33   C38   A    
C46   C66   A    
C46   H18   S    
C49   C53   A    
C45   H17   S    
O18   V4    S    
C15   C19   A    
C14   H10   S    
C32   C44   A    
C13   H9    S    
C64   C68   A    
C39   H15   S    
C41   F1    S    
C20   H7    S    
C4    C54   S    
C43   F3    S    
C31   C43   A    
C14   C30   A    
O20   V4    S    
O8    C4    A    
C7    C10   S    
C35   C40   A    
O9    C5    A    
C3    C53   S    
C45   C65   A    
C59   C63   A    
C69   C70   T    
C62   C66   A    
C61   C65   A    
O6    V2    S    
O18   V2    S    
C63   C67   A    
C52   C56   A    
O14   V2    S    
C12   C20   A    
C27   C35   A    
C24   H3    S    
C49   H21   S    
C56   C60   A    
C29   C41   A    
O16   V4    S    
O9    V1    S    
C19   H8    S    
C57   H25   S    
C47   C51   A    
C3    O13   A    
C18   H5    S    
C21   H2    S    
C59   H27   S    
O6    C2    A    
C23   C27   A    
O11   V3    S    
C30   C42   A    
C67   C71   S    
O12   V4    S    
C22   C26   A    
C8    C9    S    
C9    C17   A    
O10   C6    A    
C2    C56   S    
C37   H13   S    
C60   C64   A    
C33   C34   A    
O8    V4    S    
C25   C29   A    
C52   H24   S    
O20   V2    S    
C12   C24   A    
C27   C31   A    
C37   C41   A    
C13   C17   A    
C23   H4    S    
C68   C72   S    
C42   F2    S    
C24   C28   A    
C50   C54   A    
C28   C36   A    
C4    O14   A    
C55   C59   A    
O4    V2    S    
C28   C32   A    
C15   H11   S    
