data_mof_unit_20074.cif
_audit_creation_date              2012-12-10T18:12:07-0500
_audit_creation_method            fapswitch 2.2
_symmetry_space_group_name_H-M    P1
_symmetry_Int_Tables_number       1
_space_group_crystal_system       triclinic
_cell_length_a                    28.495591
_cell_length_b                    18.362723
_cell_length_c                    18.355933
_cell_angle_alpha                 89.869632
_cell_angle_beta                  130.301417
_cell_angle_gamma                 90.12833
_cell_volume                      7325.14919237

loop_
_atom_site_label
_atom_site_type_symbol
_atom_type_description
_atom_site_fract_x
_atom_site_fract_y
_atom_site_fract_z
_atom_type_partial_charge
C1    C     C_R   0.499939 0.000061 0.360043 0.841877
C2    C     C_R   0.500078 0.999901 0.639976 0.837445
C3    C     C_R   0.999939 0.500058 0.360044 0.842711
C4    C     C_R   0.000099 0.499897 0.639996 0.837929
C5    C     C_R   0.813678 0.003918 0.813408 -0.096835
C6    C     C_R   0.185787 0.001888 0.186442 -0.075154
C7    C     C_R   0.313752 0.503597 0.813475 -0.094705
C8    C     C_R   0.685766 0.501951 0.186402 -0.075054
C9    C     C_R   0.779723 0.035998 0.721897 0.045609
C10   C     C_R   0.219357 0.051892 0.262777 0.043787
C11   C     C_R   0.279820 0.538045 0.723408 0.043881
C12   C     C_R   0.719342 0.552081 0.262593 0.043754
C13   C     C_R   0.715682 0.033048 0.659498 -0.222829
C14   C     C_R   0.283361 0.050644 0.324438 -0.225885
C15   C     C_R   0.215781 0.535523 0.661173 -0.222155
C16   C     C_R   0.783347 0.550799 0.324231 -0.225404
C17   C     C_R   0.685337 0.000032 0.687427 -0.060151
C18   C     C_R   0.314070 0.999618 0.312025 -0.075865
C19   C     C_R   0.185404 0.499901 0.687508 -0.062554
C20   C     C_R   0.814045 0.499584 0.312004 -0.075548
C21   C     C_R   0.718809 0.970134 0.779418 0.054164
C22   C     C_R   0.280416 0.949935 0.235251 0.056092
C23   C     C_R   0.218913 0.466782 0.777789 0.054256
C24   C     C_R   0.780363 0.449746 0.235372 0.056170
C25   C     C_R   0.807171 0.049700 0.618395 -0.249784
C26   C     C_R   0.163510 0.092482 0.318153 -0.184921
C27   C     C_R   0.308395 0.554648 0.621772 -0.242849
C28   C     C_R   0.663232 0.592924 0.317471 -0.185298
C29   C     C_R   0.832153 0.089728 0.585171 0.415833
C30   C     C_R   0.131548 0.145591 0.325460 0.414717
C31   C     C_R   0.332466 0.596692 0.588596 0.412545
C32   C     C_R   0.631290 0.646166 0.324647 0.414753
C33   C     C_R   0.855772 0.160553 0.621208 -0.120576
C34   C     C_R   0.128426 0.217904 0.295932 -0.114026
C35   C     C_R   0.354143 0.668078 0.624096 -0.121959
C36   C     C_R   0.628502 0.718496 0.295453 -0.114330
C37   C     C_R   0.859222 0.187278 0.697209 -0.087475
C38   C     C_R   0.158267 0.236033 0.259363 -0.095729
C39   C     C_R   0.356487 0.693658 0.699449 -0.090490
C40   C     C_R   0.658562 0.736498 0.259207 -0.096807
C41   C     C_R   0.835549 0.145017 0.730904 -0.209891
C42   C     C_R   0.186887 0.180564 0.247696 -0.244876
C43   C     C_R   0.333758 0.649446 0.733185 -0.214995
C44   C     C_R   0.687157 0.680904 0.247651 -0.244470
C45   C     C_R   0.618778 0.999983 0.620401 0.803254
C46   C     C_R   0.381013 0.999876 0.379616 0.797454
C47   C     C_R   0.118801 0.499958 0.620438 0.803332
C48   C     C_R   0.881004 0.499869 0.379599 0.798133
C49   C     C_R   0.808899 0.077012 0.690999 0.063539
C50   C     C_R   0.188962 0.109036 0.275840 0.015340
C51   C     C_R   0.309001 0.580744 0.693742 0.061348
C52   C     C_R   0.688958 0.609362 0.275538 0.014877
C53   C     C_1   0.500031 0.000217 0.282607 -0.154968
C54   C     C_1   0.499939 0.999678 0.717367 -0.161886
C55   C     C_1   0.000032 0.500199 0.282608 -0.155422
C56   C     C_1   0.999983 0.499652 0.717410 -0.161604
C57   C     C_1   0.500118 0.000303 0.217388 -0.136389
C58   C     C_1   0.499843 0.999637 0.782576 -0.137524
C59   C     C_1   0.000120 0.500266 0.217389 -0.137200
C60   C     C_1   0.999875 0.499585 0.782607 -0.134611
C61   C     C_R   0.000085 0.139943 0.000041 0.841559
C62   C     C_R   0.500079 0.639943 0.000030 0.843186
C63   C     C_R   0.880874 0.002146 0.880698 0.805599
C64   C     C_R   0.118947 0.001427 0.119131 0.816436
C65   C     C_R   0.380898 0.502079 0.880723 0.806625
C66   C     C_R   0.618939 0.501476 0.119122 0.816953
C67   C     C_R   0.000032 0.860124 0.000098 0.856449
C68   C     C_R   0.500033 0.360123 0.000099 0.856374
C69   C     C_R   0.500029 0.139720 0.000064 0.834665
C70   C     C_R   0.000029 0.639721 0.000067 0.831266
C71   C     C_R   0.500053 0.000136 0.139786 0.862448
C72   C     C_R   0.499944 0.999785 0.860209 0.819276
C73   C     C_R   0.000054 0.500104 0.139786 0.861013
C74   C     C_R   0.999948 0.499729 0.860213 0.823900
C75   C     C_R   0.499994 0.860268 0.000056 0.863520
C76   C     C_R   0.999994 0.360268 0.000051 0.867566
C77   C     C_1   0.000099 0.217456 0.000043 -0.178454
C78   C     C_1   0.500088 0.717456 0.000005 -0.181763
C79   C     C_R   0.637391 0.843236 0.829544 0.449936
C80   C     C_R   0.358743 0.781471 0.240363 0.463252
C81   C     C_R   0.137966 0.330543 0.819140 0.448037
C82   C     C_R   0.860942 0.281877 0.244927 0.463854
C83   C     C_1   0.500038 0.782744 0.000041 -0.102714
C84   C     C_1   0.000043 0.282745 0.000076 -0.100682
C85   C     C_1   0.000074 0.782579 0.000249 -0.175016
C86   C     C_1   0.500077 0.282578 0.000250 -0.174874
C87   C     C_1   0.500084 0.217267 0.000219 -0.158200
C88   C     C_1   0.000081 0.717268 0.000219 -0.158582
C89   C     C_R   0.663934 0.871389 0.792429 -0.139774
C90   C     C_R   0.329758 0.830030 0.258788 -0.149388
C91   C     C_R   0.164722 0.363144 0.784516 -0.135176
C92   C     C_R   0.831212 0.330415 0.261928 -0.149045
C93   C     C_R   0.688677 0.941876 0.815569 -0.072307
C94   C     C_R   0.310587 0.898654 0.215059 -0.055403
C95   C     C_R   0.188758 0.433937 0.811777 -0.066895
C96   C     C_R   0.810522 0.398009 0.215595 -0.056203
C97   C     C_R   0.688588 0.984256 0.878744 -0.249920
C98   C     C_R   0.319466 0.918411 0.151009 -0.218273
C99   C     C_R   0.187837 0.472072 0.876758 -0.258763
C100  C     C_R   0.818265 0.416461 0.149880 -0.216916
C101  C     C_R   0.664743 0.956407 0.919784 0.459821
C102  C     C_R   0.347371 0.870380 0.130095 0.467498
C103  C     C_R   0.163683 0.439649 0.915222 0.457443
C104  C     C_R   0.846792 0.368313 0.130174 0.467544
C105  C     C_R   0.638035 0.886710 0.893927 -0.351702
C106  C     C_R   0.369492 0.802867 0.178410 -0.356691
C107  C     C_R   0.137745 0.369764 0.885363 -0.347547
C108  C     C_R   0.870626 0.302033 0.181376 -0.356373
C109  C     C_R   0.782799 0.972193 0.841540 -0.226120
C110  C     C_R   0.216405 0.952018 0.172620 -0.228420
C111  C     C_R   0.282914 0.469107 0.840101 -0.227217
C112  C     C_R   0.716358 0.451933 0.172693 -0.227967
Cu1   Cu    Cu3+1 0.500000 0.927480 0.500000 1.030760
Cu2   Cu    Cu3+1 0.000000 0.427480 0.500000 1.028959
Cu3   Cu    Cu3+1 0.500000 0.072500 0.500000 0.966611
Cu4   Cu    Cu3+1 0.000000 0.572500 0.500000 0.965937
Cu5   Cu    Cu3+1 0.999980 0.000040 0.072510 0.910356
Cu6   Cu    Cu3+1 0.000020 0.000040 0.927490 0.945119
Cu7   Cu    Cu3+1 0.499980 0.500040 0.072510 0.909639
Cu8   Cu    Cu3+1 0.500020 0.500040 0.927490 0.943635
Cu9   Cu    Cu3+1 0.561800 0.999990 0.061810 0.981786
Cu10  Cu    Cu3+1 0.438200 0.999990 0.938190 0.993151
Cu11  Cu    Cu3+1 0.061800 0.499990 0.061810 0.986955
Cu12  Cu    Cu3+1 0.938200 0.499990 0.938190 0.994275
H1    H     H_    0.619166 0.867143 0.925852 0.145170
H2    H     H_    0.395215 0.767542 0.168363 0.132680
H3    H     H_    0.119157 0.346617 0.916214 0.146823
H4    H     H_    0.896967 0.266691 0.172601 0.132383
H5    H     H_    0.837459 0.165251 0.788238 0.148368
H6    H     H_    0.209019 0.193132 0.218466 0.183423
H7    H     H_    0.334684 0.668790 0.789883 0.150987
H8    H     H_    0.709463 0.693378 0.218680 0.184405
H9    H     H_    0.665543 0.837902 0.745554 0.176035
H10   H     H_    0.322695 0.814502 0.308076 0.169559
H11   H     H_    0.167005 0.332916 0.736250 0.175982
H12   H     H_    0.825033 0.315850 0.312505 0.168290
H13   H     H_    0.708402 0.038432 0.897927 0.162395
H14   H     H_    0.304156 0.971246 0.116510 0.166939
H15   H     H_    0.207202 0.526379 0.899308 0.161238
H16   H     H_    0.801780 0.468495 0.113389 0.168058
H17   H     H_    0.808557 0.948635 0.912236 0.164208
H18   H     H_    0.190291 0.914342 0.113017 0.152699
H19   H     H_    0.308741 0.443327 0.909575 0.162445
H20   H     H_    0.690222 0.414137 0.113228 0.153111
H21   H     H_    0.689229 0.057592 0.589170 0.151671
H22   H     H_    0.309355 0.089277 0.382930 0.161702
H23   H     H_    0.189364 0.562069 0.592034 0.153383
H24   H     H_    0.809352 0.589536 0.382596 0.161445
H25   H     H_    0.785413 0.997596 0.586484 0.153114
H26   H     H_    0.166667 0.037557 0.342701 0.161159
H27   H     H_    0.288029 0.502004 0.590027 0.154419
H28   H     H_    0.666148 0.537990 0.341804 0.161051
O1    O     O_R   0.500010 0.938760 0.394210 -0.559346
O2    O     O_R   0.499990 0.938760 0.605790 -0.580710
O3    O     O_R   0.000010 0.438760 0.394210 -0.559332
O4    O     O_R   0.999990 0.438760 0.605790 -0.581258
O5    O     O_R   0.552180 0.999990 0.157990 -0.577636
O6    O     O_R   0.447820 0.999990 0.842010 -0.579969
O7    O     O_R   0.052180 0.499990 0.157990 -0.577990
O8    O     O_R   0.947820 0.499990 0.842010 -0.579281
O9    O     O_R   0.447790 0.000000 0.053610 -0.571637
O10   O     O_R   0.552210 0.000000 0.946390 -0.547948
O11   O     O_R   0.947790 0.500000 0.053610 -0.572542
O12   O     O_R   0.052210 0.500000 0.946390 -0.542354
O13   O     O_R   0.552190 0.894190 0.052180 -0.557224
O14   O     O_R   0.447810 0.894190 0.947820 -0.577800
O15   O     O_R   0.052190 0.394190 0.052180 -0.557631
O16   O     O_R   0.947810 0.394190 0.947820 -0.578085
O17   O     O_R   0.499990 0.061230 0.394210 -0.588780
O18   O     O_R   0.500010 0.061230 0.605790 -0.583453
O19   O     O_R   0.999990 0.561230 0.394210 -0.588254
O20   O     O_R   0.000010 0.561230 0.605790 -0.584750
O21   O     O_R   0.590180 0.938760 0.590180 -0.576126
O22   O     O_R   0.409820 0.938760 0.409820 -0.579964
O23   O     O_R   0.090180 0.438760 0.590180 -0.576086
O24   O     O_R   0.909820 0.438760 0.409820 -0.581228
O25   O     O_R   0.590160 0.061230 0.590180 -0.588673
O26   O     O_R   0.409840 0.061230 0.409820 -0.592507
O27   O     O_R   0.090160 0.561230 0.590180 -0.589250
O28   O     O_R   0.909840 0.561230 0.409820 -0.592126
O29   O     O_R   0.999970 0.105830 0.061210 -0.610671
O30   O     O_R   0.000030 0.105830 0.938790 -0.579781
O31   O     O_R   0.499970 0.605830 0.061210 -0.610729
O32   O     O_R   0.500030 0.605830 0.938790 -0.581897
O33   O     O_R   0.909810 0.000030 0.971060 -0.599297
O34   O     O_R   0.090190 0.000030 0.028940 -0.586056
O35   O     O_R   0.409810 0.500030 0.971060 -0.599304
O36   O     O_R   0.590190 0.500030 0.028940 -0.585674
O37   O     O_R   0.909820 0.000000 0.848600 -0.579946
O38   O     O_R   0.090180 0.000000 0.151400 -0.601089
O39   O     O_R   0.409820 0.500000 0.848600 -0.580329
O40   O     O_R   0.590180 0.500000 0.151400 -0.601431
O41   O     O_R   0.000000 0.894230 0.061260 -0.581292
O42   O     O_R   0.000000 0.894230 0.938740 -0.583433
O43   O     O_R   0.500000 0.394230 0.061260 -0.581939
O44   O     O_R   0.500000 0.394230 0.938740 -0.582591
O45   O     O_R   0.552180 0.105790 0.052210 -0.590377
O46   O     O_R   0.447820 0.105790 0.947790 -0.581275
O47   O     O_R   0.052180 0.605790 0.052210 -0.587748
O48   O     O_R   0.947820 0.605790 0.947790 -0.581560
C113  C     C_2   0.872910 0.207015 0.574902 0.914022
O49   O     O_2   0.895778 0.179693 0.543547 -0.574708
O50   O     O_R   0.860983 0.281841 0.564140 -0.743729
H29   H     H_    0.874419 0.307335 0.531210 0.335514
C114  C     C_2   0.090278 0.271590 0.297523 0.916956
O51   O     O_2   0.093421 0.275644 0.367070 -0.537420
O52   O     O_R   0.048950 0.315653 0.217782 -0.779555
H30   H     H_    0.023529 0.347524 0.225677 0.326318
C115  C     C_2   0.370280 0.716180 0.577699 0.918738
O53   O     O_2   0.395274 0.690863 0.548816 -0.576470
O54   O     O_R   0.355053 0.790148 0.564085 -0.741927
H31   H     H_    0.368152 0.816941 0.531416 0.335335
C116  C     C_2   0.590447 0.772337 0.297028 0.917052
O55   O     O_2   0.593588 0.776494 0.366567 -0.538018
O56   O     O_R   0.549182 0.816400 0.217268 -0.777988
H32   H     H_    0.523722 0.848268 0.225080 0.326760
C117  C     C_2   0.888636 0.257873 0.744954 0.907543
O57   O     O_2   0.867621 0.295322 0.772906 -0.602630
O58   O     O_R   0.941457 0.280623 0.760899 -0.785130
H33   H     H_    0.957368 0.329359 0.794681 0.317073
C118  C     C_2   0.163715 0.312290 0.237964 0.897935
O59   O     O_2   0.172232 0.324071 0.181663 -0.627943
O60   O     O_R   0.161990 0.370659 0.284994 -0.735584
H34   H     H_    0.167392 0.419498 0.265329 0.334804
C119  C     C_2   0.383441 0.765274 0.746018 0.906357
O61   O     O_2   0.361524 0.800454 0.774170 -0.602754
O62   O     O_R   0.434914 0.791711 0.760408 -0.787836
H35   H     H_    0.449036 0.840907 0.793151 0.319027
C120  C     C_2   0.664196 0.812730 0.237938 0.899306
O63   O     O_2   0.672828 0.824440 0.181758 -0.629599
O64   O     O_R   0.662476 0.871158 0.284905 -0.736169
H36   H     H_    0.667977 0.919958 0.265281 0.336896
O65   O     O_3   0.616547 0.771472 0.806268 -0.580540
C121  C     C_3   0.568547 0.757369 0.808034 0.080150
H37   H     H_    0.532573 0.800503 0.769273 0.183306
H38   H     H_    0.587122 0.752541 0.882932 0.154012
C122  C     C_3   0.538709 0.684889 0.759154 -0.682687
H39   H     H_    0.573204 0.640442 0.797439 0.231912
H40   H     H_    0.500694 0.673069 0.759684 0.213684
H41   H     H_    0.520024 0.686865 0.684134 0.270415
O66   O     O_3   0.379950 0.715943 0.289553 -0.554804
C123  C     C_3   0.358088 0.657026 0.225430 0.064024
H42   H     H_    0.386425 0.650786 0.203896 0.140657
H43   H     H_    0.308766 0.663924 0.160398 0.133848
C124  C     C_3   0.363442 0.587349 0.275234 -0.785241
H44   H     H_    0.333654 0.590903 0.294331 0.261698
H45   H     H_    0.348697 0.540110 0.227062 0.191576
H46   H     H_    0.411833 0.578927 0.341294 0.258412
O67   O     O_3   0.117790 0.258849 0.791572 -0.581599
C125  C     C_3   0.069978 0.240677 0.792459 0.077921
H47   H     H_    0.033482 0.283259 0.755978 0.187361
H48   H     H_    0.088635 0.232454 0.867011 0.154473
C126  C     C_3   0.040975 0.169143 0.739690 -0.683130
H49   H     H_    0.076073 0.125219 0.775172 0.232069
H50   H     H_    0.003426 0.154005 0.740188 0.210156
H51   H     H_    0.021813 0.174649 0.664634 0.271186
O68   O     O_3   0.884134 0.217820 0.297191 -0.554361
C127  C     C_3   0.862246 0.157208 0.235570 0.061668
H52   H     H_    0.889419 0.150161 0.212079 0.141150
H53   H     H_    0.812472 0.162528 0.171575 0.132502
C128  C     C_3   0.869839 0.089072 0.289517 -0.778973
H54   H     H_    0.841556 0.093795 0.311256 0.267739
H55   H     H_    0.854653 0.040521 0.243116 0.191164
H56   H     H_    0.918815 0.082017 0.354380 0.258785
O69   O     O_3   0.665440 0.999360 0.982162 -0.559006
C129  C     C_3   0.710380 0.972302 0.075840 0.072067
H57   H     H_    0.756589 0.971260 0.095877 0.122452
H58   H     H_    0.698343 0.916559 0.083040 0.179695
C130  C     C_3   0.713926 0.021771 0.145595 -0.725009
H59   H     H_    0.669031 0.022628 0.129208 0.266740
H60   H     H_    0.749570 0.001300 0.219550 0.184572
H61   H     H_    0.725993 0.078042 0.140622 0.234788
O70   O     O_3   0.355137 0.893667 0.066416 -0.571316
C131  C     C_3   0.343408 0.837281 0.004025 0.039397
H62   H     H_    0.310326 0.795505 0.991477 0.122131
H63   H     H_    0.387492 0.810303 0.033699 0.165256
C132  C     C_3   0.315250 0.870032 0.907290 -0.679364
H64   H     H_    0.345143 0.913939 0.915543 0.279587
H65   H     H_    0.309674 0.827168 0.859640 0.223510
H66   H     H_    0.269385 0.893365 0.874022 0.221940
O71   O     O_3   0.163909 0.477673 0.980211 -0.557724
C133  C     C_3   0.213629 0.452760 0.072913 0.072677
H67   H     H_    0.258188 0.462209 0.089068 0.120159
H68   H     H_    0.208808 0.393711 0.080992 0.174418
C134  C     C_3   0.214828 0.494437 0.145594 -0.705433
H69   H     H_    0.171849 0.484126 0.133417 0.266442
H70   H     H_    0.254529 0.476170 0.218844 0.182490
H71   H     H_    0.219246 0.553757 0.139269 0.231501
O72   O     O_3   0.853525 0.390705 0.064979 -0.571145
C135  C     C_3   0.845736 0.332630 0.007433 0.038034
H72   H     H_    0.813999 0.289355 0.996063 0.124063
H73   H     H_    0.891349 0.308234 0.040800 0.164618
C136  C     C_3   0.818004 0.362137 0.909423 -0.681789
H74   H     H_    0.845694 0.408512 0.916514 0.279476
H75   H     H_    0.816766 0.318581 0.866332 0.220909
H76   H     H_    0.770347 0.381341 0.871831 0.222759
O73   O     O_3   0.827936 0.063224 0.510475 -0.553594
C137  C     C_3   0.863638 0.999230 0.539892 0.105901
H77   H     H_    0.838814 0.952029 0.539138 0.143141
H78   H     H_    0.909518 0.005087 0.612705 0.131048
C138  C     C_3   0.874580 0.983370 0.470677 -0.755164
H79   H     H_    0.901106 0.028615 0.472190 0.265487
H80   H     H_    0.901214 0.932136 0.491613 0.194268
H81   H     H_    0.829932 0.977266 0.397095 0.242442
O74   O     O_3   0.104385 0.126900 0.363720 -0.553529
C139  C     C_3   0.047087 0.093656 0.291683 0.093784
H82   H     H_    0.053099 0.042487 0.266018 0.149350
H83   H     H_    0.016248 0.131405 0.230186 0.142075
C140  C     C_3   0.016080 0.074476 0.332273 -0.775426
H84   H     H_    0.008261 0.124668 0.356777 0.277804
H85   H     H_    0.971147 0.047746 0.276390 0.185118
H86   H     H_    0.045525 0.036545 0.393591 0.254214
O75   O     O_3   0.328731 0.571475 0.513936 -0.553725
C141  C     C_3   0.368683 0.511418 0.545530 0.109072
H87   H     H_    0.348835 0.462020 0.551788 0.138675
H88   H     H_    0.415134 0.522543 0.615646 0.134177
C142  C     C_3   0.376795 0.495956 0.472924 -0.752043
H89   H     H_    0.398389 0.543633 0.467431 0.269105
H90   H     H_    0.406942 0.447757 0.495745 0.192914
H91   H     H_    0.331431 0.484812 0.401868 0.241676
O76   O     O_3   0.603737 0.627570 0.362325 -0.554109
C143  C     C_3   0.546318 0.594800 0.289741 0.093074
H92   H     H_    0.552250 0.543482 0.264220 0.149986
H93   H     H_    0.515912 0.632706 0.228265 0.143138
C144  C     C_3   0.514658 0.576116 0.329419 -0.773760
H94   H     H_    0.506523 0.626506 0.353192 0.277908
H95   H     H_    0.469820 0.549339 0.273215 0.184944
H96   H     H_    0.543787 0.538361 0.391034 0.254062

loop_
_geom_bond_atom_site_label_1
_geom_bond_atom_site_label_2
_ccdc_geom_bond_type
C99   C103  A    
C65   O35   A    
C55   C59   T    
C135  C136  S    
C22   C94   S    
C143  H93   S    
O60   H34   S    
Cu6   O34   S    
C138  H79   S    
C60   C74   S    
C133  H67   S    
Cu8   O44   S    
Cu10  O9    S    
C98   H14   S    
C37   C41   A    
C66   O36   A    
C26   C50   A    
C90   H10   S    
C95   C99   A    
C143  C144  S    
C125  H48   S    
C29   C33   A    
C100  C104  A    
C131  H62   S    
C9    C13   A    
C29   O73   S    
C62   O31   A    
Cu12  O16   S    
C11   C15   A    
C12   C16   A    
C123  H43   S    
C46   O22   A    
C59   C73   S    
C125  C126  S    
Cu2   O24   S    
C124  H44   S    
C4    C56   S    
C121  H38   S    
Cu8   O36   S    
C41   C49   A    
Cu6   O30   S    
C25   C29   A    
C71   O5    A    
C67   C85   S    
C123  C124  S    
C27   C31   A    
C28   C32   A    
C141  H87   S    
C98   C102  A    
C17   C21   A    
Cu4   O19   S    
C121  C122  S    
C142  H91   S    
C19   C23   A    
O56   H32   S    
C120  O63   D    
C45   O21   A    
O62   H35   S    
C16   C20   A    
C139  H82   S    
Cu10  O6    S    
C75   O13   A    
C57   C71   S    
Cu3   O25   S    
C130  H60   S    
C137  H77   S    
C126  H50   S    
C138  H81   S    
Cu12  O48   S    
C70   O48   A    
C71   O9    A    
C44   H8    S    
C105  H1    S    
C24   C96   S    
C107  H3    S    
C73   O11   A    
C74   O12   A    
C21   C93   S    
Cu12  O8    S    
C43   H7    S    
C23   C95   S    
C76   O16   A    
C68   O43   A    
Cu7   O43   S    
Cu5   O41   S    
C134  H70   S    
O76   C143  S    
C124  H46   S    
C103  C107  A    
C64   O34   A    
Cu1   Cu3   S    
C24   C112  A    
C13   H21   S    
C43   C51   A    
Cu11  Cu12  S    
C5    C63   S    
O67   C125  S    
C118  O59   D    
Cu11  O7    S    
C32   C36   A    
C38   C118  S    
Cu11  O47   S    
C17   C45   S    
C128  H54   S    
Cu6   O37   S    
C19   C47   S    
C80   C106  A    
C92   C96   A    
C80   O66   S    
C25   H25   S    
O68   C127  S    
C144  H95   S    
C1    C53   S    
C3    C55   S    
C65   O39   A    
C61   C77   S    
C66   O40   A    
C82   C108  A    
O65   C121  S    
C111  H19   S    
Cu12  O11   S    
C44   C52   A    
C2    O2    A    
C132  H64   S    
C113  O50   S    
C99   H15   S    
Cu3   O18   S    
C97   H13   S    
C27   C51   A    
O72   C135  S    
C140  H85   S    
C34   C114  S    
C89   H9    S    
C30   C34   A    
C9    C49   S    
Cu7   O40   S    
C10   C14   A    
Cu8   O39   S    
C77   C84   T    
C22   C110  A    
C117  O57   D    
C108  H4    S    
C5    C9    A    
C136  H74   S    
C8    C12   A    
C115  O53   D    
Cu7   O31   S    
Cu10  O46   S    
Cu8   O32   S    
C129  H58   S    
C42   C50   A    
C26   C30   A    
C69   O46   A    
C130  H61   S    
C93   C97   A    
C48   O28   A    
C85   C88   T    
C104  O72   S    
C4    O20   A    
C18   C22   A    
C62   C78   S    
C129  C130  S    
C128  H56   S    
Cu2   Cu4   S    
C23   C111  A    
C73   O7    A    
C133  H68   S    
C74   O8    A    
C132  H65   S    
C127  H52   S    
Cu5   Cu6   S    
C96   C100  A    
C119  O62   S    
C131  H63   S    
C89   C93   A    
Cu7   O35   S    
C79   C89   A    
C62   O32   A    
C40   C44   A    
C133  C134  S    
C132  H66   S    
C72   O10   A    
C109  H17   S    
C40   C120  S    
C47   O23   A    
Cu1   O22   S    
C48   O24   A    
C81   C107  A    
C131  C132  S    
C37   C117  S    
Cu1   O2    S    
C76   C84   S    
C116  O55   D    
C15   C19   A    
C136  H76   S    
C8    C112  A    
C94   C98   A    
C141  H88   S    
C82   C92   A    
Cu4   O20   S    
C135  H72   S    
C113  O49   D    
C6    C64   S    
C142  H90   S    
C14   C18   A    
C78   C83   T    
C63   O33   A    
C139  H83   S    
C67   O42   A    
C69   C87   S    
C141  C142  S    
C116  O56   S    
C143  H92   S    
C130  H59   S    
C92   H12   S    
C137  H78   S    
C18   C46   S    
C12   C52   S    
C90   C94   A    
C138  H80   S    
C139  C140  S    
O52   H30   S    
C26   H26   S    
C79   O65   S    
C2    C54   S    
C81   O67   S    
O58   H33   S    
C53   C57   T    
C86   C87   T    
C125  H47   S    
C140  H84   S    
C33   C37   A    
C56   C60   T    
C137  C138  S    
C35   C39   A    
C134  H69   S    
C7    C65   S    
C21   C109  A    
O54   H31   S    
C3    O3    A    
C123  H42   S    
C61   O30   A    
C68   O44   A    
C1    O1    A    
Cu9   Cu10  S    
C20   C48   S    
C2    O18   A    
Cu2   O23   S    
C4    O4    A    
C124  H45   S    
C31   C35   A    
C121  H37   S    
C10   C50   S    
Cu2   O3    S    
C104  C108  A    
Cu9   O13   S    
C101  O69   S    
C27   H27   S    
C6    C10   A    
Cu7   Cu8   S    
C38   C42   A    
C13   C17   A    
C106  H2    S    
C61   O29   A    
C126  H51   S    
C120  O64   S    
Cu5   O33   S    
C15   H23   S    
Cu11  O12   S    
C75   C83   S    
O75   C141  S    
C126  H49   S    
C5    C109  A    
Cu9   O10   S    
C7    C111  A    
C75   O14   A    
C102  O70   S    
C144  H94   S    
Cu6   O42   S    
C25   C49   A    
C39   C119  S    
Cu3   O26   S    
C81   C91   A    
C91   H11   S    
C136  H75   S    
O74   C139  S    
Cu4   O27   S    
O50   H29   S    
C8    C66   S    
C70   O47   A    
Cu10  O14   S    
C68   C86   S    
O73   C137  S    
C46   O26   A    
Cu3   O17   S    
C70   C88   S    
C114  O51   D    
C7    C11   A    
C30   O74   S    
O66   C123  S    
C134  H71   S    
Cu5   O29   S    
C72   O6    A    
C79   C105  A    
C76   O15   A    
C1    O17   A    
C110  H18   S    
C47   O27   A    
C100  H16   S    
C20   C24   A    
O69   C129  S    
C45   O25   A    
Cu11  O15   S    
C31   O75   S    
Cu9   O5    S    
C82   O68   S    
C69   O45   A    
C6    C110  A    
C101  C105  A    
C36   C40   A    
Cu5   O38   S    
C128  H55   S    
C39   C43   A    
O71   C133  S    
C63   O37   A    
C91   C95   A    
C32   O76   S    
C144  H96   S    
C127  H53   S    
C36   C116  S    
C58   C72   S    
C119  O61   D    
C42   H6    S    
Cu9   O45   S    
C28   H28   S    
C122  H40   S    
C122  H41   S    
C127  C128  S    
Cu1   O21   S    
C54   C58   T    
C140  H86   S    
C34   C38   A    
Cu2   O4    S    
Cu1   O1    S    
C64   O38   A    
C117  O58   S    
C14   H22   S    
C16   H24   S    
C112  H20   S    
Cu4   O28   S    
C35   C115  S    
C118  O60   S    
C41   H5    S    
C28   C52   A    
C3    O19   A    
C33   C113  S    
C115  O54   S    
C102  C106  A    
C135  H73   S    
C80   C90   A    
C142  H89   S    
C122  H39   S    
C11   C51   S    
C129  H57   S    
O64   H36   S    
C67   O41   A    
C114  O52   S    
C103  O71   S    
C97   C101  A    
O70   C131  S    
