data_mof_unit_63163.cif
_audit_creation_date              2012-10-26T20:44:35-0400
_audit_creation_method            fapswitch 2.2
_symmetry_space_group_name_H-M    P1
_symmetry_Int_Tables_number       1
_space_group_crystal_system       triclinic
_cell_length_a                    13.139562
_cell_length_b                    14.429753
_cell_length_c                    17.296813
_cell_angle_alpha                 90.01732
_cell_angle_beta                  85.541924
_cell_angle_gamma                 90.043724
_cell_volume                      3269.56350032

loop_
_atom_site_label
_atom_site_type_symbol
_atom_type_description
_atom_site_fract_x
_atom_site_fract_y
_atom_site_fract_z
_atom_type_partial_charge
C1    C     C_R   0.500027 0.671292 0.499982 0.575659
C2    C     C_1   0.173617 0.500007 0.500014 0.194079
C3    C     C_1   0.949317 0.499996 0.499996 0.013803
C4    C     C_1   0.050683 0.500004 0.500004 0.013803
C5    C     C_R   0.486909 0.499680 0.652095 0.620574
C6    C     C_R   0.513091 0.500320 0.347905 0.620574
C7    C     C_R   0.477565 0.493425 0.736570 -0.016731
C8    C     C_R   0.522435 0.506575 0.263430 -0.016731
C9    C     C_R   0.538511 0.429873 0.774066 0.190676
C10   C     C_R   0.461489 0.570127 0.225934 0.190676
C11   C     C_R   0.529570 0.423777 0.854360 -0.101699
C12   C     C_R   0.499973 0.328708 0.500018 0.575658
C13   C     C_R   0.470431 0.576223 0.145640 -0.101699
C14   C     C_R   0.460780 0.480298 0.898044 -0.064762
C15   C     C_R   0.539220 0.519701 0.101956 -0.064762
C16   C     C_R   0.398165 0.542809 0.861559 0.275115
C17   C     C_R   0.601833 0.457189 0.138441 0.275115
C18   C     C_R   0.406297 0.549394 0.780458 0.218458
C19   C     C_R   0.593701 0.450605 0.219542 0.218458
C20   C     C_2   0.462104 0.478663 0.982523 -0.001606
C21   C     C_2   0.537895 0.521336 0.017477 -0.001607
C22   C     C_1   0.618914 0.571448 0.973783 0.288567
C23   C     C_1   0.500056 0.772865 0.499976 0.022019
C24   C     C_1   0.381085 0.428551 0.026217 0.288568
C25   C     C_1   0.499944 0.227135 0.500024 0.022019
C26   C     C_1   0.500039 0.857682 0.499979 0.015931
C27   C     C_1   0.499960 0.142318 0.500021 0.015931
C28   C     C_1   0.500012 0.957591 0.499993 0.051403
C29   C     C_1   0.499988 0.042409 0.500007 0.051403
C30   C     C_1   0.826383 0.499993 0.499986 0.194080
Cl1   Cl    Cl    0.624914 0.354315 0.722714 -0.515949
Cl2   Cl    Cl    0.375089 0.645688 0.277286 -0.515949
Cl3   Cl    Cl    0.668944 0.368384 0.265151 -0.456093
Cl4   Cl    Cl    0.331054 0.631613 0.734849 -0.456093
Cl5   Cl    Cl    0.312980 0.615473 0.917622 -0.433318
Cl6   Cl    Cl    0.687017 0.384524 0.082378 -0.433318
Cu1   Cu    Cu3+1 0.407320 0.500000 0.500010 1.117994
Cu2   Cu    Cu3+1 0.592680 0.500000 0.499990 1.117994
H1    H     H_    0.422384 0.624175 0.116828 0.203715
H2    H     H_    0.577617 0.375826 0.883172 0.203716
N1    N     N_1   0.731930 0.500000 0.499980 -0.144368
N2    N     N_1   0.268070 0.500000 0.500020 -0.144368
N3    N     N_1   0.683582 0.611420 0.938871 -0.187984
N4    N     N_1   0.316417 0.388579 0.061129 -0.187984
O1    O     O_R   0.421720 0.623950 0.500010 -0.450774
O2    O     O_R   0.578280 0.376050 0.499990 -0.450774
O3    O     O_R   0.578280 0.623950 0.499990 -0.495409
O4    O     O_R   0.421720 0.376050 0.500010 -0.495409
O5    O     O_R   0.412660 0.500000 0.613600 -0.463816
O6    O     O_R   0.587340 0.500000 0.386400 -0.463817
O7    O     O_R   0.569190 0.500000 0.613590 -0.455483
O8    O     O_R   0.430810 0.500000 0.386410 -0.455484

loop_
_geom_bond_atom_site_label_1
_geom_bond_atom_site_label_2
_ccdc_geom_bond_type
C3    C30   S    
C2    C4    S    
C5    C7    S    
C30   N1    T    
Cu1   Cu2   S    
Cu2   O6    S    
C17   Cl6   S    
C10   Cl2   S    
Cu2   O2    S    
C25   C27   T    
Cu1   O5    S    
C26   C28   S    
C22   N3    T    
C12   C25   S    
C12   O4    A    
C7    C18   A    
C5    O5    A    
C13   C15   A    
C21   C22   S    
C6    O6    A    
Cu1   O4    S    
C9    C11   A    
C1    O1    A    
Cu2   O3    S    
C2    N2    T    
C12   O2    A    
C28   C29   T    
C17   C19   A    
C1    C23   S    
C7    C9    A    
C18   Cl4   S    
C16   Cl5   S    
C11   H2    S    
C24   N4    T    
C11   C14   A    
C14   C16   A    
C13   H1    S    
C8    C19   A    
C27   C29   S    
C9    Cl1   S    
Cu1   O1    S    
C3    C4    T    
C14   C20   S    
C15   C21   S    
C20   C21   D    
Cu2   N1    S    
C16   C18   A    
C19   Cl3   S    
C23   C26   T    
Cu1   N2    S    
C15   C17   A    
Cu1   O8    S    
C1    O3    A    
C6    C8    S    
Cu2   O7    S    
C6    O8    A    
C8    C10   A    
C5    O7    A    
C20   C24   S    
C10   C13   A    
