data_mof_unit_8228.cif
_audit_creation_date              2012-12-11T14:29:48-0500
_audit_creation_method            fapswitch 2.2
_symmetry_space_group_name_H-M    P1
_symmetry_Int_Tables_number       1
_space_group_crystal_system       triclinic
_cell_length_a                    6.944673
_cell_length_b                    15.093421
_cell_length_c                    16.090761
_cell_angle_alpha                 90.346595
_cell_angle_beta                  90.145681
_cell_angle_gamma                 89.7773
_cell_volume                      1686.56648759

loop_
_atom_site_label
_atom_site_type_symbol
_atom_type_description
_atom_site_fract_x
_atom_site_fract_y
_atom_site_fract_z
_atom_type_partial_charge
O1    O     O_R   0.494400 0.416610 0.413880 -0.547247
O2    O     O_R   0.823920 0.406790 0.585520 -0.532148
O3    O     O_R   0.994250 0.583390 0.586120 -0.528300
C1    C     C_R   0.656291 0.390957 0.617480 0.729837
O4    O     O_R   0.824110 0.405730 0.414490 -0.544579
O5    O     O_R   0.994440 0.582310 0.413870 -0.540633
C2    C     C_R   0.654881 0.385034 0.385225 0.731424
O6    O     O_R   0.494210 0.417690 0.586130 -0.535108
O7    O     O_3   0.660810 0.557940 0.500000 -0.353149
V1    V     V_3+5 0.935650 0.489250 0.500000 1.465878
O8    O     O_R   0.324160 0.593210 0.414480 -0.532469
C3    C     C_R   0.155199 0.617369 0.389137 0.619203
O9    O     O_R   0.323970 0.594270 0.585510 -0.539598
C4    C     C_R   0.153357 0.616040 0.614172 0.709585
V2    V     V_3+5 0.435660 0.510750 0.500000 1.467002
O10   O     O_3   0.160630 0.442060 0.500000 -0.366251
H1    H     H_    0.008371 0.911779 0.509105 0.128530
C5    C     C_R   0.144277 0.558145 0.794265 -0.140291
C6    C     C_R   0.123625 0.531591 0.877306 0.434189
C7    C     C_R   0.065837 0.593707 0.936233 -0.264188
C8    C     C_R   0.042116 0.682289 0.915559 -0.121741
C9    C     C_R   0.098753 0.714073 0.836144 0.036576
C10   C     C_R   0.131739 0.649945 0.771067 -0.033853
C11   C     C_R   0.112846 0.806826 0.818777 -0.132418
C12   C     C_R   0.109771 0.834173 0.734703 0.017775
C13   C     C_R   0.094128 0.770328 0.669337 0.039563
C14   C     C_R   0.133056 0.679414 0.685970 -0.151951
C15   C     C_R   0.104451 0.925241 0.714539 -0.234640
C16   C     C_R   0.071502 0.952878 0.633232 0.438602
C17   C     C_R   0.042871 0.890466 0.571241 -0.242351
C18   C     C_R   0.037696 0.801346 0.589361 -0.124788
H2    H     H_    0.017387 0.570568 0.996387 0.126391
H3    H     H_    0.118360 0.975801 0.761946 0.104309
C19   C     C_2   0.998417 0.709764 0.281721 -0.200803
C20   C     C_2   0.152487 0.693244 0.331049 0.305360
H4    H     H_    0.867333 0.672270 0.291505 0.117068
C21   C     C_2   0.986769 0.780200 0.216920 -0.230652
C22   C     C_2   0.132630 0.805704 0.166628 0.288376
H5    H     H_    0.845475 0.809720 0.207838 0.130282
C23   C     C_2   0.777701 0.227046 0.795231 -0.120025
C24   C     C_2   0.616193 0.179934 0.815009 0.215067
C25   C     C_2   0.790184 0.286451 0.721530 -0.141620
C26   C     C_2   0.645410 0.337796 0.693979 -0.279644
H6    H     H_    0.926568 0.288177 0.689153 0.156338
H7    H     H_    0.513389 0.342762 0.728939 0.186595
C27   C     C_2   0.778329 0.217269 0.207204 -0.134683
C28   C     C_2   0.613513 0.183379 0.175745 -0.308819
H8    H     H_    0.914923 0.193493 0.182875 0.137963
H9    H     H_    0.475189 0.207090 0.197623 0.127926
C29   C     C_2   0.789939 0.286393 0.274267 -0.152762
C30   C     C_2   0.637877 0.318801 0.316969 -0.308112
H10   H     H_    0.933246 0.309487 0.290378 0.136657
H11   H     H_    0.493459 0.296833 0.302254 0.131147
O11   O     O_R   0.770210 0.079270 0.910680 -0.554683
O12   O     O_R   0.440150 0.091160 0.082270 -0.548991
O13   O     O_R   0.269970 0.914530 0.082860 -0.524136
C31   C     C_R   0.608933 0.113887 0.109914 0.728811
O14   O     O_R   0.440480 0.090100 0.911240 -0.518784
O15   O     O_R   0.270310 0.913460 0.910610 -0.540395
C32   C     C_R   0.609654 0.113266 0.884015 0.636391
O16   O     O_R   0.769870 0.080340 0.082930 -0.540828
O17   O     O_3   0.603660 0.938980 0.996790 -0.351242
V3    V     V_3+5 0.328750 0.007610 0.996740 1.479086
O18   O     O_R   0.940600 0.902510 0.911180 -0.531804
C33   C     C_R   0.109421 0.876041 0.886792 0.685143
O19   O     O_R   0.940270 0.903570 0.082200 -0.543074
C34   C     C_R   0.110681 0.880121 0.108133 0.633742
V4    V     V_3+5 0.828770 0.986010 0.996670 1.473642
O20   O     O_3   0.103730 0.054750 0.996710 -0.366268
O21   O     O_3   0.320958 0.741184 0.322441 -0.542955
C35   C     C_3   0.351712 0.798720 0.390683 0.159281
H12   H     H_    0.507351 0.795261 0.406192 0.162393
H13   H     H_    0.272740 0.780048 0.448045 0.065903
C36   C     C_3   0.301272 0.893825 0.365755 -0.303121
H14   H     H_    0.351712 0.906356 0.301382 0.225722
H15   H     H_    0.142394 0.902649 0.366886 0.170327
C37   C     C_3   0.395869 0.961606 0.423429 -0.875962
H16   H     H_    0.363204 0.947431 0.489388 0.246833
H17   H     H_    0.341762 0.028933 0.408296 0.232682
H18   H     H_    0.554585 0.960210 0.415008 0.238255
O22   O     O_3   0.315751 0.770136 0.173715 -0.533647
C38   C     C_3   0.330043 0.690636 0.127767 0.151502
H19   H     H_    0.332461 0.705672 0.060120 0.109381
H20   H     H_    0.208600 0.644779 0.141117 0.093829
C39   C     C_3   0.518868 0.645300 0.152574 -0.246047
H21   H     H_    0.640608 0.690974 0.141458 0.214492
H22   H     H_    0.516375 0.629906 0.220029 0.209322
C40   C     C_3   0.552932 0.559847 0.104204 -0.896695
H23   H     H_    0.443576 0.510135 0.122108 0.224014
H24   H     H_    0.697782 0.533043 0.119604 0.233547
H25   H     H_    0.545909 0.572073 0.036245 0.249330
C41   C     C_1   0.954278 0.218596 0.842285 0.308002
N1    N     N_1   0.095333 0.212535 0.880218 -0.297853
O23   O     O_3   0.445663 0.198694 0.773584 -0.561560
C42   C     C_3   0.391455 0.127824 0.720906 0.184249
H26   H     H_    0.237372 0.114628 0.732598 0.169580
H27   H     H_    0.470521 0.064511 0.732631 0.028436
C43   C     C_3   0.418344 0.153274 0.629538 -0.338610
H28   H     H_    0.564109 0.179220 0.620731 0.181205
H29   H     H_    0.403103 0.093601 0.589494 0.188437
C44   C     C_3   0.278817 0.224802 0.600505 -0.636735
H30   H     H_    0.308359 0.241641 0.534681 0.193391
H31   H     H_    0.294766 0.284524 0.638898 0.257651
H32   H     H_    0.128553 0.203633 0.606243 0.223344
C45   C     C_1   0.161330 0.486588 0.735397 0.327861
N2    N     N_1   0.171722 0.428140 0.689122 -0.356672
O24   O     O_3   0.111703 0.441747 0.895299 -0.569077
C46   C     C_3   0.244756 0.417078 0.957858 0.070242
H33   H     H_    0.185928 0.357651 0.989157 0.164131
H34   H     H_    0.263348 0.468003 0.007213 0.093861
C47   C     C_3   0.439459 0.392994 0.919214 -0.296515
H35   H     H_    0.414843 0.348151 0.865497 0.243720
H36   H     H_    0.511026 0.454050 0.896673 0.180178
C48   C     C_3   0.571166 0.346026 0.981163 -0.799935
H37   H     H_    0.592218 0.387082 0.037800 0.236126
H38   H     H_    0.713916 0.333921 0.952286 0.241259
H39   H     H_    0.508375 0.281294 0.999055 0.222612
C49   C     C_1   0.902720 0.727979 0.966213 0.272181
N3    N     N_1   0.784576 0.761264 0.006214 -0.333560
O25   O     O_3   0.067989 0.041873 0.615240 -0.594912
C50   C     C_3   0.889543 0.068199 0.580624 0.041656
H40   H     H_    0.846566 0.127770 0.616008 0.136383
H41   H     H_    0.770590 0.019243 0.587942 0.106067
C51   C     C_3   0.913618 0.093153 0.488789 -0.309686
H42   H     H_    0.050523 0.129442 0.479525 0.211191
H43   H     H_    0.918714 0.032958 0.449183 0.178717
C52   C     C_3   0.747706 0.150717 0.458406 -0.853701
H44   H     H_    0.607776 0.118798 0.471316 0.233964
H45   H     H_    0.760181 0.158723 0.390344 0.253128
H46   H     H_    0.752136 0.216915 0.488891 0.230005
C53   C     C_1   0.916854 0.753197 0.532613 0.268945
N4    N     N_1   0.813012 0.719806 0.486007 -0.341525

loop_
_geom_bond_atom_site_label_1
_geom_bond_atom_site_label_2
_ccdc_geom_bond_type
O19   V4    S    
C44   H30   S    
C19   C21   S    
C6    C7    A    
C1    O6    A    
C48   H37   S    
C42   C43   S    
C28   H9    S    
O11   C32   A    
C37   H16   S    
C12   C15   A    
C13   C14   A    
C16   C17   A    
C36   H15   S    
C38   C39   S    
O18   V4    S    
C51   H43   S    
C15   C16   A    
C21   C22   D    
C5    C6    A    
O5    C3    A    
C17   C18   A    
C37   H18   S    
O11   V4    S    
O14   C32   A    
V2    O10   S    
C46   H33   S    
C19   C20   D    
C49   N3    T    
C50   C51   S    
C18   C53   S    
O8    V2    S    
V3    O20   S    
C20   O21   S    
V4    O20   S    
C36   C37   S    
O12   V3    S    
C29   H10   S    
O24   C46   S    
O21   C35   S    
O1    V2    S    
C10   C14   A    
C4    C14   S    
O7    V1    S    
C40   H23   S    
C23   C25   S    
O19   C34   A    
C13   C18   A    
C44   H31   S    
C8    C9    A    
H1    C17   S    
C25   H6    S    
O22   C38   S    
C37   H17   S    
C16   O25   S    
C27   H8    S    
C36   H14   S    
C39   H22   S    
C5    C10   A    
C11   C12   A    
C52   H46   S    
C8    C49   S    
C35   H13   S    
C12   C13   A    
C39   H21   S    
C23   C41   S    
C30   H11   S    
O2    C1    A    
C52   H45   S    
O17   V3    S    
C28   C31   S    
C24   O23   S    
C40   H25   S    
C29   C30   D    
O13   V3    S    
C47   H36   S    
C22   C34   S    
C3    C20   S    
C26   H7    S    
C50   H40   S    
O3    C4    A    
C11   C33   S    
C51   C52   S    
C23   C24   D    
C40   H24   S    
C15   H3    S    
C43   H28   S    
O6    V2    S    
C38   H20   S    
O12   C31   A    
C22   O22   S    
C9    C11   A    
C25   C26   D    
C52   H44   S    
O2    V1    S    
C43   C44   S    
O25   C50   S    
O4    C2    A    
C7    H2    S    
C39   C40   S    
O14   V3    S    
C27   C28   D    
C47   H35   S    
O1    C2    A    
C24   C32   S    
O5    V1    S    
C35   C36   S    
C48   H38   S    
O8    C3    A    
C42   H27   S    
C31   O16   A    
C1    C26   S    
C44   H32   S    
O13   C34   A    
C45   N2    T    
C27   C29   S    
O15   V3    S    
C46   C47   S    
O17   V4    S    
O18   C33   A    
O9    V2    S    
O7    V2    S    
C5    C45   S    
C2    C30   S    
O4    V1    S    
C21   H5    S    
O3    V1    S    
V1    O10   S    
O15   C33   A    
O16   V4    S    
C41   N1    T    
C46   H34   S    
C47   C48   S    
C19   H4    S    
O23   C42   S    
C43   H29   S    
C50   H41   S    
C48   H39   S    
C35   H12   S    
C7    C8    A    
C38   H19   S    
C42   H26   S    
C9    C10   A    
O9    C4    A    
C53   N4    T    
C51   H42   S    
C6    O24   S    
