data_mof_unit_6368.cif
_audit_creation_date              2012-12-11T15:38:17-0500
_audit_creation_method            fapswitch 2.2
_symmetry_space_group_name_H-M    P1
_symmetry_Int_Tables_number       1
_space_group_crystal_system       triclinic
_cell_length_a                    20.556624
_cell_length_b                    7.268319
_cell_length_c                    18.877054
_cell_angle_alpha                 90.509099
_cell_angle_beta                  107.281166
_cell_angle_gamma                 89.394931
_cell_volume                      2692.94150896

loop_
_atom_site_label
_atom_site_type_symbol
_atom_type_description
_atom_site_fract_x
_atom_site_fract_y
_atom_site_fract_z
_atom_type_partial_charge
O1    O     O_R   0.422200 0.494350 0.423850 -0.529898
O2    O     O_R   0.577800 0.994350 0.576150 -0.530473
O3    O     O_R   0.555980 0.819730 0.435060 -0.536582
O4    O     O_R   0.444020 0.319730 0.564940 -0.537722
C1    C     C_R   0.575496 0.654138 0.420531 0.725897
C2    C     C_R   0.424451 0.156361 0.579487 0.725410
O5    O     O_R   0.421370 0.823790 0.415230 -0.533663
O6    O     O_R   0.578630 0.323790 0.584770 -0.533490
O7    O     O_R   0.442220 0.998380 0.556180 -0.532874
O8    O     O_R   0.557780 0.498380 0.443820 -0.533480
C3    C     C_R   0.396328 0.655477 0.394227 0.707456
C4    C     C_R   0.603666 0.155181 0.605792 0.707566
O9    O     O_3   0.507000 0.662200 0.546270 -0.375421
O10   O     O_3   0.493000 0.162200 0.453730 -0.374962
V1    V     V_3+5 0.498700 0.935390 0.491420 1.419959
V2    V     V_3+5 0.501300 0.435390 0.508580 1.420244
C5    C     C_1   0.666343 0.144905 0.668131 -0.188094
C6    C     C_1   0.333627 0.645610 0.331879 -0.187224
C7    C     C_1   0.718918 0.134236 0.719776 0.002763
C8    C     C_1   0.281049 0.634608 0.280254 0.003268
C9    C     C_1   0.780950 0.120859 0.780420 0.003032
C10   C     C_1   0.219020 0.620555 0.219629 0.003818
C11   C     C_1   0.833559 0.110212 0.832019 -0.185455
C12   C     C_1   0.166423 0.609545 0.168032 -0.185151
C13   C     C_3   0.276729 0.216337 0.835451 0.260549
C14   C     C_3   0.735177 0.780424 0.181935 0.260318
C15   C     C_3   0.223231 0.923340 0.764845 0.322154
C16   C     C_3   0.756993 0.436414 0.206006 0.329260
C17   C     C_3   0.267671 0.934880 0.710856 -0.390203
C18   C     C_3   0.720160 0.426455 0.267109 -0.398946
H1    H     H_    0.370994 0.097589 0.817233 0.149880
H2    H     H_    0.632915 0.680859 0.182294 0.146425
H3    H     H_    0.257059 0.853932 0.813530 0.067744
H4    H     H_    0.713788 0.434375 0.154956 0.083142
H5    H     H_    0.312089 0.839265 0.729742 0.119495
H6    H     H_    0.671068 0.352237 0.245246 0.132828
H7    H     H_    0.239520 0.889417 0.653822 0.153526
H8    H     H_    0.751594 0.348179 0.315814 0.148333
C19   C     C_1   0.379121 0.149900 0.625421 -0.191132
C20   C     C_1   0.620877 0.641520 0.374702 -0.191801
C21   C     C_3   0.207393 0.120898 0.791984 0.076316
C22   C     C_3   0.792722 0.628634 0.208083 0.067344
C23   C     C_3   0.329731 0.196851 0.790996 -0.409905
C24   C     C_3   0.678219 0.748715 0.220086 -0.426316
C25   C     C_3   0.293312 0.134522 0.709524 0.185421
C26   C     C_3   0.707061 0.626974 0.290930 0.191551
C27   C     C_3   0.229702 0.259669 0.676673 -0.355377
C28   C     C_3   0.777354 0.704422 0.336037 -0.356699
C29   C     C_3   0.178274 0.246801 0.722789 -0.439216
C30   C     C_3   0.829732 0.681424 0.291463 -0.457168
C31   C     C_1   0.340722 0.143620 0.663396 -0.043873
C32   C     C_1   0.659395 0.631796 0.336860 -0.039396
C33   C     C_1   0.159513 0.114117 0.837593 -0.002963
C34   C     C_1   0.840612 0.625991 0.162313 -0.008704
C35   C     C_1   0.120799 0.108833 0.875194 -0.163674
C36   C     C_1   0.879292 0.617195 0.124685 -0.166332
H9    H     H_    0.168542 0.387643 0.741146 0.192889
H10   H     H_    0.857941 0.812040 0.294773 0.159115
H11   H     H_    0.127800 0.203518 0.687099 0.143876
H12   H     H_    0.868474 0.580619 0.321023 0.153439
H13   H     H_    0.246058 0.405006 0.676031 0.164990
H14   H     H_    0.772004 0.852725 0.348701 0.151056
H15   H     H_    0.265238 0.366680 0.833754 0.133247
H16   H     H_    0.758685 0.911968 0.206924 0.167987
H17   H     H_    0.354807 0.331821 0.790813 0.140925
H18   H     H_    0.660597 0.884442 0.235580 0.151081
H19   H     H_    0.203748 0.218980 0.618200 0.148558
H20   H     H_    0.796616 0.631925 0.390056 0.153081
O11   O     O_R   0.942270 0.764870 0.056240 -0.529720
O12   O     O_R   0.057730 0.264870 0.943760 -0.529082
O13   O     O_R   0.078640 0.431230 0.084780 -0.533841
O14   O     O_R   0.921360 0.931230 0.915220 -0.533096
C37   C     C_R   0.103689 0.599679 0.105733 0.707014
C38   C     C_R   0.896295 0.099968 0.894275 0.710585
O15   O     O_R   0.944030 0.435400 0.064960 -0.537290
O16   O     O_R   0.055970 0.935400 0.935040 -0.534765
O17   O     O_R   0.922190 0.260960 0.923840 -0.530247
O18   O     O_R   0.077810 0.760960 0.076160 -0.530427
C39   C     C_R   0.924830 0.604932 0.079129 0.709153
C40   C     C_R   0.075221 0.102762 0.920815 0.709866
O19   O     O_3   0.993030 0.592980 0.953770 -0.373582
O20   O     O_3   0.006970 0.092980 0.046230 -0.376783
V3    V     V_3+5 0.001290 0.319740 0.008580 1.428355
V4    V     V_3+5 0.998710 0.819740 0.991420 1.435181
O21   O     O_3   0.303327 0.187218 0.913444 -0.549682
C41   C     C_3   0.318698 0.002872 0.935230 0.117909
H21   H     H_    0.349261 0.932490 0.903392 0.099473
H22   H     H_    0.271074 0.926707 0.930745 0.126480
C42   C     C_3   0.360872 0.000084 0.016448 -0.692538
H23   H     H_    0.332027 0.066732 0.051140 0.224327
H24   H     H_    0.372828 0.855708 0.034947 0.175701
H25   H     H_    0.409327 0.074902 0.023992 0.220560
O22   O     O_3   0.711765 0.825841 0.105060 -0.539261
C43   C     C_3   0.682594 0.679910 0.056670 0.125267
H26   H     H_    0.640111 0.614796 0.071873 0.101493
H27   H     H_    0.721936 0.576287 0.054251 0.128554
C44   C     C_3   0.653247 0.756176 0.978787 -0.690184
H28   H     H_    0.694146 0.821124 0.960424 0.224800
H29   H     H_    0.630383 0.643148 0.939612 0.170706
H30   H     H_    0.613188 0.860619 0.977960 0.220943
O23   O     O_3   0.168246 0.796913 0.742559 -0.556894
C45   C     C_3   0.114032 0.851046 0.680571 0.134060
H31   H     H_    0.130841 0.924120 0.637830 0.110524
H32   H     H_    0.077640 0.938183 0.699517 0.127483
C46   C     C_3   0.076179 0.680204 0.643816 -0.762513
H33   H     H_    0.057439 0.602732 0.684223 0.227657
H34   H     H_    0.031971 0.720575 0.596217 0.176013
H35   H     H_    0.110688 0.590019 0.623203 0.219578
O24   O     O_3   0.793380 0.274952 0.195922 -0.546849
C47   C     C_3   0.857224 0.246358 0.249202 0.103314
H36   H     H_    0.850319 0.195425 0.301786 0.104399
H37   H     H_    0.889760 0.368546 0.259049 0.123681
C48   C     C_3   0.897295 0.105357 0.218575 -0.710131
H38   H     H_    0.914899 0.168257 0.174116 0.229108
H39   H     H_    0.942408 0.056782 0.263413 0.161821
H40   H     H_    0.865032 0.986894 0.194103 0.235133

loop_
_geom_bond_atom_site_label_1
_geom_bond_atom_site_label_2
_ccdc_geom_bond_type
C19   C31   T    
C3    C6    S    
O22   C43   S    
C15   C17   S    
C24   H18   S    
O1    C3    A    
O2    C4    A    
O16   V4    S    
C2    O7    A    
C44   H28   S    
C14   C24   S    
C27   C29   S    
O21   C41   S    
C15   H3    S    
O5    C3    A    
C46   H34   S    
O23   C45   S    
C36   C39   S    
H1    C23   S    
C7    C9    S    
C41   H22   S    
C12   C37   S    
C25   C31   S    
C26   C32   S    
C29   H9    S    
C18   H8    S    
C45   C46   S    
C13   H15   S    
C25   C27   S    
C27   H19   S    
C14   H16   S    
C47   H36   S    
C38   O17   A    
C4    C5    S    
C37   O18   A    
C42   H24   S    
O6    C4    A    
C48   H40   S    
C14   O22   S    
C28   C30   S    
C16   H4    S    
O6    V2    S    
C13   C23   S    
C45   H31   S    
C21   C29   S    
C44   H29   S    
C24   C26   S    
O13   V3    S    
C33   C35   T    
C46   H35   S    
C26   C28   S    
O12   C40   A    
C30   H10   S    
O14   C38   A    
C13   C21   S    
O13   C37   A    
C41   H21   S    
O5    V1    S    
C43   C44   S    
C20   C32   T    
C15   O23   S    
C17   C25   S    
O4    V2    S    
C43   H27   S    
O12   V3    S    
C15   C21   S    
C28   H14   S    
C23   H17   S    
C13   O21   S    
H2    C24   S    
O1    V2    S    
C28   H20   S    
C42   H25   S    
C45   H32   S    
O2    V1    S    
C23   C25   S    
C47   C48   S    
C21   C33   S    
O14   V4    S    
C22   C30   S    
O4    C2    A    
C8    C10   S    
C9    C11   T    
C10   C12   T    
O11   C39   A    
C11   C38   S    
O19   V4    S    
O3    V1    S    
C14   C22   S    
C48   H38   S    
C44   H30   S    
C2    C19   S    
C18   C26   S    
O16   C40   A    
O3    C1    A    
C41   C42   S    
C27   H13   S    
C34   C36   T    
C16   O24   S    
C46   H33   S    
C17   H5    S    
C29   H11   S    
C18   H6    S    
C30   H12   S    
C16   C18   S    
O7    V1    S    
C1    O8    A    
O11   V4    S    
O8    V2    S    
O24   C47   S    
C22   C34   S    
C35   C40   S    
O15   V3    S    
C16   C22   S    
C5    C7    T    
C6    C8    T    
C43   H26   S    
C47   H37   S    
O18   V4    S    
O20   V3    S    
O9    V2    S    
C17   H7    S    
O17   V3    S    
O10   V1    S    
C42   H23   S    
C1    C20   S    
O15   C39   A    
C48   H39   S    
