data_mof_unit_65971.cif
_audit_creation_date              2012-12-10T21:09:14-0500
_audit_creation_method            fapswitch 2.2
_symmetry_space_group_name_H-M    P1
_symmetry_Int_Tables_number       1
_space_group_crystal_system       triclinic
_cell_length_a                    10.577541
_cell_length_b                    17.597047
_cell_length_c                    16.776518
_cell_angle_alpha                 89.900042
_cell_angle_beta                  102.872466
_cell_angle_gamma                 90.544455
_cell_volume                      3044.05627398

loop_
_atom_site_label
_atom_site_type_symbol
_atom_type_description
_atom_site_fract_x
_atom_site_fract_y
_atom_site_fract_z
_atom_type_partial_charge
C1    C     C_R   0.500128 0.353274 0.500106 0.985316
C2    C     C_R   0.500037 0.646762 0.499995 0.958247
C3    C     C_R   0.524661 0.886566 0.506124 -0.004311
C4    C     C_R   0.524975 0.113849 0.503736 -0.003767
C5    C     C_1   0.529883 0.966527 0.506439 0.032405
C6    C     C_1   0.530002 0.033948 0.505740 0.033715
C7    C     C_R   0.426008 0.444887 0.821784 0.210615
C8    C     C_R   0.591693 0.546531 0.181372 0.212128
C9    C     C_R   0.428948 0.446178 0.737166 0.509525
C10   C     C_R   0.588481 0.544584 0.265938 0.507708
C11   C     C_R   0.571248 0.552859 0.757969 0.558205
C12   C     C_R   0.413190 0.456289 0.239388 0.560931
C13   C     C_R   0.572242 0.554131 0.842824 0.262661
C14   C     C_R   0.412011 0.455934 0.154520 0.256356
C15   C     C_R   0.498912 0.499878 0.875416 -0.158824
C16   C     C_R   0.501755 0.501427 0.124791 -0.160065
C17   C     C_1   0.500073 0.500955 0.963575 0.141560
C18   C     C_1   0.500462 0.501114 0.036607 0.141216
C19   C     C_R   0.257034 0.497331 0.466651 0.833369
C20   C     C_R   0.742822 0.496814 0.533183 0.843319
C21   C     C_2   0.116961 0.485431 0.448499 0.131160
C22   C     C_2   0.881974 0.482879 0.550291 0.116212
C23   C     C_2   0.066737 0.442482 0.500164 0.585561
C24   C     C_2   0.928895 0.443083 0.495109 0.568561
C25   C     C_R   0.462998 0.849271 0.560332 -0.258605
C26   C     C_R   0.462168 0.149723 0.431977 -0.262325
C27   C     C_R   0.452156 0.770040 0.558425 0.412014
C28   C     C_R   0.451659 0.228838 0.429787 0.405822
C29   C     C_R   0.504851 0.729406 0.501142 -0.242483
C30   C     C_R   0.505809 0.270782 0.501014 -0.236019
C31   C     C_R   0.566107 0.768241 0.446527 0.581122
C32   C     C_R   0.568544 0.233455 0.573075 0.587826
C33   C     C_R   0.575745 0.846753 0.449252 -0.229314
C34   C     C_R   0.577840 0.155008 0.574126 -0.216870
H1    H     H_    0.422477 0.881860 0.603303 0.161785
H2    H     H_    0.420460 0.116105 0.378275 0.162287
H3    H     H_    0.622859 0.876486 0.407016 0.188043
H4    H     H_    0.626006 0.126384 0.629736 0.188729
N1    N     N_R   0.500030 0.500030 0.707240 -0.192290
N2    N     N_R   0.499970 0.499970 0.292760 -0.197233
O1    O     O_R   0.500000 0.389130 0.566570 -0.531956
O2    O     O_R   0.500000 0.610870 0.433430 -0.561835
O3    O     O_R   0.499990 0.389100 0.433480 -0.533545
O4    O     O_R   0.500010 0.610900 0.566520 -0.525531
O5    O     O_R   0.317810 0.500010 0.541690 -0.544952
O6    O     O_R   0.682190 0.499990 0.458310 -0.522854
O7    O     O_R   0.317800 0.499990 0.408610 -0.584297
O8    O     O_R   0.682200 0.500010 0.591390 -0.590792
Zn1   Zn    Zn3+2 0.500010 0.500020 0.588860 1.136526
Zn2   Zn    Zn3+2 0.499990 0.499980 0.411140 1.132003
F1    F     F_    0.850241 0.410914 0.427932 -0.633915
F2    F     F_    0.142661 0.405157 0.564032 -0.620148
O9    O     O_3   0.643772 0.607383 0.894975 -0.714099
H5    H     H_    0.689596 0.641554 0.863590 0.393167
O10   O     O_3   0.324683 0.411944 0.099622 -0.710997
H6    H     H_    0.268432 0.383216 0.129205 0.396046
O11   O     O_3   0.965044 0.511834 0.619392 -0.724810
H7    H     H_    0.913377 0.541881 0.650439 0.372161
O12   O     O_3   0.036496 0.519407 0.381850 -0.717977
H8    H     H_    0.090726 0.551021 0.353317 0.358141
O13   O     O_3   0.388810 0.731700 0.610321 -0.711105
H9    H     H_    0.358398 0.768853 0.646149 0.346058
O14   O     O_3   0.387063 0.265784 0.359984 -0.666670
H10   H     H_    0.355454 0.227829 0.316282 0.351608
F3    F     F_    0.619504 0.730420 0.391908 -0.613850
F4    F     F_    0.623472 0.272781 0.641869 -0.619939
O15   O     O_3   0.351485 0.389504 0.848745 -0.714415
H11   H     H_    0.356636 0.394822 0.908015 0.379874
O16   O     O_3   0.683104 0.592809 0.157347 -0.716954
H12   H     H_    0.675549 0.589246 0.097685 0.378401
O17   O     O_3   0.361407 0.393438 0.682876 -0.614172
H13   H     H_    0.315934 0.356702 0.711629 0.402709
O18   O     O_3   0.673542 0.587234 0.323396 -0.621013
H14   H     H_    0.733809 0.616193 0.297136 0.403173
F5    F     F_    0.642551 0.604311 0.726099 -0.630113
F6    F     F_    0.327151 0.412902 0.268744 -0.598213

loop_
_geom_bond_atom_site_label_1
_geom_bond_atom_site_label_2
_ccdc_geom_bond_type
O4    Zn1   S    
C12   N2    A    
C4    C26   A    
C23   C24   S    
C31   C33   A    
C13   O9    S    
C15   C17   S    
C27   C29   A    
C4    C34   A    
C1    O3    A    
O18   H14   S    
O6    Zn2   S    
C26   C28   A    
C17   C18   T    
O5    Zn1   S    
O10   H6    S    
C24   F1    S    
C28   C30   A    
C14   O10   S    
C23   F2    S    
O12   H8    S    
C29   C31   A    
C16   C18   S    
C11   F5    S    
O9    H5    S    
O15   H11   S    
C11   N1    A    
C11   C13   A    
C8    O16   S    
C20   O8    A    
C2    O2    A    
C2    C29   S    
N2    Zn2   S    
C5    C6    T    
C22   O11   S    
C1    O1    A    
C1    C30   S    
N1    Zn1   S    
O2    Zn2   S    
C21   O12   S    
O7    Zn2   S    
C22   C24   D    
O16   H12   S    
C12   F6    S    
C13   C15   A    
O13   H9    S    
C10   O18   S    
C14   C16   A    
C4    C6    S    
C25   C27   A    
C3    C33   A    
C7    O15   S    
O14   H10   S    
C30   C32   A    
O3    Zn2   S    
C7    C9    A    
C12   C14   A    
C9    N1    A    
C3    C25   A    
O17   H13   S    
C2    O4    A    
C32   F4    S    
C8    C16   A    
C19   O7    A    
O1    Zn1   S    
C31   F3    S    
C26   H2    S    
C28   O14   S    
O8    Zn1   S    
C10   N2    A    
C7    C15   A    
C27   O13   S    
C19   C21   S    
O11   H7    S    
C34   H4    S    
C21   C23   D    
C25   H1    S    
C8    C10   A    
C33   H3    S    
C19   O5    A    
C9    O17   S    
C20   C22   S    
C3    C5    S    
C20   O6    A    
C32   C34   A    
