data_mof_unit_64410.cif
_audit_creation_date              2012-10-26T18:19:42-0400
_audit_creation_method            fapswitch 2.2
_symmetry_space_group_name_H-M    P1
_symmetry_Int_Tables_number       1
_space_group_crystal_system       triclinic
_cell_length_a                    18.368964
_cell_length_b                    30.705749
_cell_length_c                    30.80505
_cell_angle_alpha                 89.986743
_cell_angle_beta                  90.02347
_cell_angle_gamma                 90.095022
_cell_volume                      17375.0327286

loop_
_atom_site_label
_atom_site_type_symbol
_atom_type_description
_atom_site_fract_x
_atom_site_fract_y
_atom_site_fract_z
_atom_type_partial_charge
C1    C     C_R   0.501014 0.690598 0.309213 0.516450
C2    C     C_R   0.446126 0.621858 0.598061 0.005269
C3    C     C_R   0.139735 0.750005 0.250001 0.553466
C4    C     C_R   0.360268 0.249974 0.749975 0.560853
C5    C     C_R   0.360263 0.249986 0.250023 0.560977
C6    C     C_R   0.639730 0.250017 0.750001 0.553317
C7    C     C_R   0.639735 0.250005 0.250001 0.553426
C8    C     C_3   0.608442 0.896803 0.181799 0.739798
C9    C     C_3   0.608371 0.896845 0.818226 0.739792
C10   C     C_3   0.108435 0.396807 0.181803 0.739796
C11   C     C_3   0.108358 0.396852 0.818219 0.739659
C12   C     C_3   0.108433 0.896809 0.681805 0.739818
C13   C     C_R   0.938487 0.115853 0.396475 0.023619
C14   C     C_3   0.108364 0.896848 0.318223 0.739806
C15   C     C_3   0.608132 0.396964 0.681947 0.740156
C16   C     C_3   0.608274 0.396895 0.318179 0.739890
C17   C     C_R   0.499887 0.940536 0.940637 0.561298
C18   C     C_R   0.499904 0.940534 0.059359 0.561351
C19   C     C_R   0.999887 0.440536 0.940637 0.561285
C20   C     C_R   0.999904 0.440534 0.059359 0.561344
C21   C     C_R   0.999887 0.940536 0.440637 0.561278
C22   C     C_R   0.999904 0.940534 0.559360 0.561332
C23   C     C_R   0.499887 0.440537 0.440637 0.561408
C24   C     C_R   0.938487 0.115803 0.603545 0.023683
C25   C     C_R   0.499904 0.440535 0.559359 0.560873
C26   C     C_R   0.500034 0.559280 0.440241 0.547437
C27   C     C_R   0.500166 0.559184 0.559650 0.549594
C28   C     C_R   0.000037 0.059283 0.440237 0.546164
C29   C     C_R   0.000055 0.059288 0.559759 0.546137
C30   C     C_R   0.000037 0.559283 0.940237 0.546167
C31   C     C_R   0.000055 0.559288 0.059759 0.546145
C32   C     C_R   0.500037 0.059283 0.940237 0.546177
C33   C     C_R   0.500055 0.059288 0.059759 0.546150
C34   C     C_R   0.499651 0.809295 0.190733 0.605041
C35   C     C_R   0.938491 0.615858 0.896480 0.023647
C36   C     C_R   0.499646 0.809298 0.809269 0.605170
C37   C     C_R   0.999651 0.309295 0.190733 0.605074
C38   C     C_R   0.999646 0.309298 0.809269 0.605150
C39   C     C_R   0.999651 0.809295 0.690733 0.605244
C40   C     C_R   0.999646 0.809298 0.309269 0.605122
C41   C     C_R   0.499647 0.309296 0.690732 0.604870
C42   C     C_R   0.499645 0.309298 0.309269 0.605059
C43   C     C_1   0.282667 0.749958 0.249936 0.004961
C44   C     C_1   0.282662 0.749989 0.750055 0.003385
C45   C     C_1   0.717327 0.750017 0.250055 0.007889
C46   C     C_R   0.938484 0.615797 0.103551 0.023679
C47   C     C_1   0.717332 0.749981 0.749948 0.007501
C48   C     C_1   0.782667 0.249958 0.249937 0.004856
C49   C     C_1   0.782662 0.249993 0.750060 0.004856
C50   C     C_1   0.217327 0.250017 0.250055 0.007938
C51   C     C_1   0.217332 0.249982 0.749949 0.007750
C52   C     C_1   0.782667 0.749958 0.749937 0.004372
C53   C     C_1   0.782662 0.749993 0.250060 0.004841
C54   C     C_1   0.217328 0.750014 0.750052 0.007093
C55   C     C_1   0.217332 0.749982 0.249948 0.007880
C56   C     C_1   0.282667 0.249958 0.749937 0.004763
C57   C     C_R   0.438489 0.115855 0.896477 0.023613
C58   C     C_1   0.282662 0.249993 0.250060 0.004904
C59   C     C_1   0.717327 0.250017 0.750055 0.007841
C60   C     C_1   0.717332 0.249982 0.249949 0.007794
C61   C     C_R   0.440446 0.648686 0.365948 -0.014000
C62   C     C_R   0.448152 0.653537 0.628276 -0.016972
C63   C     C_R   0.940147 0.148300 0.365539 -0.014112
C64   C     C_R   0.940128 0.148238 0.634484 -0.014097
C65   C     C_R   0.940152 0.648305 0.865544 -0.014128
C66   C     C_R   0.940123 0.648232 0.134490 -0.014109
C67   C     C_R   0.440149 0.148302 0.865541 -0.014116
C68   C     C_R   0.438489 0.115805 0.103543 0.023668
C69   C     C_R   0.440130 0.148240 0.134482 -0.014113
C70   C     C_R   0.503123 0.656675 0.341737 0.017425
C71   C     C_R   0.504351 0.657431 0.658004 0.021965
C72   C     C_R   0.003095 0.156673 0.341717 0.017537
C73   C     C_R   0.003108 0.156673 0.658282 0.017532
C74   C     C_R   0.003096 0.656673 0.841717 0.017584
C75   C     C_R   0.003108 0.656673 0.158282 0.017542
C76   C     C_R   0.503095 0.156673 0.841717 0.017538
C77   C     C_R   0.503109 0.156673 0.158282 0.017542
C78   C     C_R   0.563014 0.627633 0.345631 0.231434
C79   C     C_3   0.394579 0.643156 0.427408 -0.258712
C80   C     C_R   0.562753 0.626978 0.655157 0.231192
C81   C     C_R   0.063383 0.127979 0.345942 0.231250
C82   C     C_R   0.063477 0.128048 0.654019 0.231263
C83   C     C_R   0.063378 0.627974 0.845937 0.231182
C84   C     C_R   0.063482 0.628054 0.154014 0.231270
C85   C     C_R   0.563381 0.127977 0.845941 0.231259
C86   C     C_R   0.563475 0.128047 0.154020 0.231274
C87   C     C_R   0.560622 0.594961 0.377425 -0.074269
C88   C     C_R   0.560562 0.594492 0.622761 -0.073342
C89   C     C_R   0.061020 0.095302 0.377733 -0.074426
C90   C     C_3   0.375411 0.636692 0.579666 -0.249206
C91   C     C_R   0.061134 0.095383 0.622222 -0.074435
C92   C     C_R   0.061015 0.595296 0.877728 -0.074492
C93   C     C_R   0.061140 0.595389 0.122217 -0.074432
C94   C     C_R   0.561018 0.095300 0.877731 -0.074421
C95   C     C_R   0.561132 0.095382 0.122223 -0.074432
C96   C     C_R   0.499981 0.590735 0.404960 -0.036693
C97   C     C_R   0.501438 0.591664 0.593557 -0.030546
C98   C     C_R   0.000017 0.090728 0.404934 -0.037423
C99   C     C_R   0.000067 0.090745 0.595050 -0.037492
C100  C     C_R   0.000016 0.590728 0.904934 -0.037395
C101  C     C_3   0.893351 0.142534 0.426715 -0.257169
C102  C     C_R   0.000068 0.590745 0.095050 -0.037493
C103  C     C_R   0.500017 0.090728 0.904934 -0.037417
C104  C     C_R   0.500067 0.090745 0.095050 -0.037486
C105  C     C_R   0.500844 0.690699 0.690821 0.516043
C106  C     C_3   0.893178 0.142449 0.573332 -0.257083
C107  C     C_3   0.893369 0.642542 0.926724 -0.257149
C108  C     C_3   0.893158 0.642439 0.073343 -0.257065
C109  C     C_3   0.393359 0.142538 0.926719 -0.257171
C110  C     C_3   0.393186 0.142452 0.073328 -0.257086
C111  C     C_3   0.396488 0.678925 0.393323 -0.266848
C112  C     C_3   0.377347 0.672645 0.614564 -0.262512
C113  C     C_3   0.895184 0.178280 0.392607 -0.267067
C114  C     C_3   0.894990 0.178179 0.607442 -0.267156
C115  C     C_3   0.895203 0.678289 0.892617 -0.267033
C116  C     C_R   0.000973 0.190600 0.309209 0.516462
C117  C     C_3   0.894969 0.678169 0.107453 -0.267132
C118  C     C_3   0.395193 0.178284 0.892612 -0.267049
C119  C     C_3   0.394998 0.178183 0.107438 -0.267126
C120  C     C_R   0.546274 0.876867 0.158017 0.020751
C121  C     C_R   0.546212 0.876896 0.841986 0.020735
C122  C     C_R   0.046271 0.376869 0.158018 0.020748
C123  C     C_R   0.046206 0.376899 0.841983 0.020862
C124  C     C_R   0.046270 0.876870 0.658019 0.020722
C125  C     C_R   0.046209 0.876897 0.341985 0.020766
C126  C     C_R   0.546137 0.376936 0.658078 0.020728
C127  C     C_R   0.000971 0.190597 0.690789 0.516517
C128  C     C_R   0.546169 0.376917 0.341966 0.020788
C129  C     C_R   0.497793 0.842272 0.157519 0.018045
C130  C     C_R   0.497773 0.842278 0.842480 0.018022
C131  C     C_R   0.997793 0.342272 0.157519 0.018039
C132  C     C_R   0.997773 0.342278 0.842480 0.018026
C133  C     C_R   0.997794 0.842272 0.657519 0.018023
C134  C     C_R   0.997773 0.842278 0.342480 0.018026
C135  C     C_R   0.497790 0.342273 0.657515 0.017929
C136  C     C_R   0.497772 0.342278 0.342481 0.018014
C137  C     C_R   0.447584 0.840154 0.122816 0.361629
C138  C     C_R   0.000974 0.690600 0.809209 0.516626
C139  C     C_R   0.447579 0.840148 0.877170 0.361720
C140  C     C_R   0.947588 0.340153 0.122814 0.361631
C141  C     C_R   0.947585 0.340146 0.877173 0.361656
C142  C     C_R   0.947589 0.840152 0.622813 0.361607
C143  C     C_R   0.947582 0.840147 0.377171 0.361648
C144  C     C_R   0.447719 0.340089 0.622744 0.361529
C145  C     C_R   0.447622 0.340128 0.377192 0.361652
C146  C     C_R   0.447564 0.872782 0.090578 -0.095081
C147  C     C_R   0.447544 0.872778 0.909397 -0.095085
C148  C     C_R   0.947567 0.372781 0.090577 -0.095079
C149  C     C_R   0.000970 0.690597 0.190789 0.516498
C150  C     C_R   0.947550 0.372776 0.909400 -0.095074
C151  C     C_R   0.947569 0.872780 0.590576 -0.095063
C152  C     C_R   0.947546 0.872777 0.409399 -0.095080
C153  C     C_R   0.447698 0.372717 0.590507 -0.095211
C154  C     C_R   0.447586 0.372758 0.409420 -0.095054
C155  C     C_R   0.499149 0.906890 0.091991 -0.041860
C156  C     C_R   0.499101 0.906904 0.907995 -0.041860
C157  C     C_R   0.999149 0.406890 0.091991 -0.041860
C158  C     C_R   0.999101 0.406904 0.907994 -0.041870
C159  C     C_R   0.999149 0.906891 0.591991 -0.041868
C160  C     C_R   0.500973 0.190600 0.809209 0.516457
C161  C     C_R   0.999101 0.906904 0.407995 -0.041872
C162  C     C_R   0.499151 0.406893 0.591989 -0.041881
C163  C     C_R   0.499101 0.406905 0.407995 -0.041820
C164  C     C_R   0.548013 0.907184 0.126267 -0.108874
C165  C     C_R   0.547939 0.907213 0.873726 -0.108839
C166  C     C_R   0.048010 0.407186 0.126269 -0.108875
C167  C     C_R   0.047933 0.407217 0.873723 -0.108779
C168  C     C_R   0.048009 0.907186 0.626270 -0.108886
C169  C     C_R   0.047936 0.907215 0.373725 -0.108853
C170  C     C_R   0.547883 0.407254 0.626330 -0.109178
C171  C     C_R   0.500972 0.190597 0.190789 0.516485
C172  C     C_R   0.547898 0.407235 0.373706 -0.108909
C173  C     C_3   0.609952 0.931680 0.145846 -0.152614
C174  C     C_3   0.609867 0.931718 0.854167 -0.152600
C175  C     C_3   0.109944 0.431684 0.145850 -0.152604
C176  C     C_3   0.109854 0.431725 0.854161 -0.152718
C177  C     C_3   0.109942 0.931685 0.645851 -0.152608
C178  C     C_3   0.109861 0.931722 0.354164 -0.152608
C179  C     C_3   0.609644 0.431841 0.645994 -0.152815
C180  C     C_3   0.609771 0.431769 0.354121 -0.152671
C181  C     C_R   0.360268 0.749974 0.249975 0.561025
C182  C     C_R   0.438743 0.616229 0.396874 0.023708
C183  C     C_R   0.360263 0.749982 0.750019 0.559255
C184  C     C_R   0.639730 0.750017 0.250002 0.553437
C185  C     C_R   0.639735 0.750002 0.749998 0.553699
C186  C     C_R   0.860268 0.249974 0.249975 0.560974
C187  C     C_R   0.860263 0.249986 0.750023 0.561037
C188  C     C_R   0.139730 0.250017 0.250001 0.553411
C189  C     C_R   0.139735 0.250005 0.750001 0.553477
C190  C     C_R   0.860268 0.749974 0.749976 0.561073
C191  C     C_R   0.860263 0.749986 0.250023 0.561012
C192  C     C_R   0.139730 0.750017 0.750001 0.553529
Cu1   Cu    Cu3+1 0.500000 0.780890 0.280900 1.089882
Cu2   Cu    Cu3+1 0.500000 0.719080 0.780910 1.060811
Cu3   Cu    Cu3+1 0.000000 0.219080 0.219090 1.062312
Cu4   Cu    Cu3+1 0.000000 0.219080 0.780910 1.062268
Cu5   Cu    Cu3+1 0.000000 0.719080 0.719090 1.060006
Cu6   Cu    Cu3+1 1.000000 0.719080 0.280910 1.062096
Cu7   Cu    Cu3+1 0.500000 0.219080 0.719090 1.062392
Cu8   Cu    Cu3+1 0.500000 0.219080 0.280910 1.062279
Cu9   Cu    Cu3+1 0.427490 0.999980 0.000000 0.987984
Cu10  Cu    Cu3+1 0.572510 0.999980 0.000000 0.978298
Cu11  Cu    Cu3+1 0.927490 0.499980 0.000000 0.988098
Cu12  Cu    Cu3+1 0.500000 0.780890 0.719100 1.092488
Cu13  Cu    Cu3+1 0.072510 0.499980 0.000000 0.978275
Cu14  Cu    Cu3+1 0.927490 0.999980 0.500000 0.988109
Cu15  Cu    Cu3+1 0.072510 0.999980 0.500000 0.978347
Cu16  Cu    Cu3+1 0.427490 0.499980 0.500000 0.984379
Cu17  Cu    Cu3+1 0.572510 0.499980 0.500000 0.978920
Cu18  Cu    Cu3+1 1.000000 0.280890 0.280900 1.089619
Cu19  Cu    Cu3+1 0.000000 0.280890 0.719100 1.089336
Cu20  Cu    Cu3+1 0.000000 0.780890 0.780900 1.089903
Cu21  Cu    Cu3+1 0.000000 0.780890 0.219100 1.089807
Cu22  Cu    Cu3+1 0.500000 0.280890 0.780900 1.089819
Cu23  Cu    Cu3+1 0.500000 0.280890 0.219100 1.089860
Cu24  Cu    Cu3+1 0.500000 0.719080 0.219090 1.062491
F1    F     F_    0.398079 0.807361 0.120548 -0.597399
F2    F     F_    0.669371 0.870464 0.817552 -0.595094
F3    F     F_    0.588935 0.912758 0.222149 -0.569259
F4    F     F_    0.588855 0.912801 0.777861 -0.569236
F5    F     F_    0.169425 0.370419 0.182518 -0.595137
F6    F     F_    0.169362 0.370475 0.817541 -0.595199
F7    F     F_    0.088922 0.412762 0.222152 -0.569293
F8    F     F_    0.088832 0.412807 0.777856 -0.569651
F9    F     F_    0.169424 0.870420 0.682520 -0.595088
F10   F     F_    0.169367 0.870469 0.317547 -0.595112
F11   F     F_    0.088918 0.912763 0.722153 -0.569256
F12   F     F_    0.398106 0.807339 0.879437 -0.597291
F13   F     F_    0.088843 0.912803 0.277859 -0.569258
F14   F     F_    0.669225 0.370662 0.682748 -0.595036
F15   F     F_    0.669306 0.370542 0.317478 -0.595093
F16   F     F_    0.588402 0.412894 0.722268 -0.569025
F17   F     F_    0.588688 0.412843 0.277824 -0.569182
F18   F     F_    0.898086 0.307358 0.120545 -0.597393
F19   F     F_    0.898117 0.307334 0.879443 -0.597384
F20   F     F_    0.898089 0.807356 0.620543 -0.597505
F21   F     F_    0.898111 0.807337 0.379439 -0.597405
F22   F     F_    0.398340 0.307233 0.620409 -0.597436
F23   F     F_    0.398188 0.307299 0.379480 -0.597399
F24   F     F_    0.669430 0.870412 0.182512 -0.595137
H1    H     H_    0.607393 0.573887 0.381496 0.168193
H2    H     H_    0.331234 0.612421 0.584631 0.160651
H3    H     H_    0.424660 0.651612 0.457608 0.134829
H4    H     H_    0.381181 0.649257 0.545991 0.136353
H5    H     H_    0.838197 0.128400 0.431543 0.157036
H6    H     H_    0.838057 0.128254 0.568531 0.157081
H7    H     H_    0.922811 0.151218 0.457058 0.131438
H8    H     H_    0.922525 0.151184 0.542974 0.131431
H9    H     H_    0.838213 0.628414 0.931557 0.157084
H10   H     H_    0.838040 0.628238 0.068547 0.157097
H11   H     H_    0.922838 0.651224 0.957065 0.131441
H12   H     H_    0.605173 0.571551 0.620552 0.165777
H13   H     H_    0.922493 0.651178 0.042982 0.131446
H14   H     H_    0.338205 0.128407 0.931550 0.157025
H15   H     H_    0.338063 0.128259 0.068525 0.157066
H16   H     H_    0.422825 0.151221 0.957061 0.131450
H17   H     H_    0.422536 0.151186 0.042971 0.131447
H18   H     H_    0.342272 0.685734 0.378809 0.152724
H19   H     H_    0.334629 0.668955 0.639856 0.148803
H20   H     H_    0.427681 0.708194 0.403720 0.160235
H21   H     H_    0.383728 0.705987 0.601020 0.157706
H22   H     H_    0.841097 0.184721 0.377759 0.152689
H23   H     H_    0.108072 0.074506 0.382063 0.168664
H24   H     H_    0.840924 0.184548 0.622318 0.152671
H25   H     H_    0.925669 0.207760 0.403157 0.159554
H26   H     H_    0.925348 0.207700 0.596879 0.159495
H27   H     H_    0.841114 0.684735 0.877773 0.152744
H28   H     H_    0.840905 0.684531 0.122335 0.152702
H29   H     H_    0.925697 0.707766 0.903165 0.159578
H30   H     H_    0.925315 0.707693 0.096888 0.159536
H31   H     H_    0.341105 0.184728 0.877766 0.152699
H32   H     H_    0.340931 0.184554 0.122312 0.152690
H33   H     H_    0.425683 0.207762 0.903161 0.159586
H34   H     H_    0.108240 0.074643 0.617869 0.168704
H35   H     H_    0.425361 0.207703 0.096875 0.159544
H36   H     H_    0.408244 0.871038 0.064414 0.163175
H37   H     H_    0.408242 0.871018 0.935552 0.163161
H38   H     H_    0.908250 0.371036 0.064411 0.163176
H39   H     H_    0.908253 0.371013 0.935557 0.163170
H40   H     H_    0.908253 0.871034 0.564410 0.163213
H41   H     H_    0.908247 0.871015 0.435554 0.163194
H42   H     H_    0.408484 0.370923 0.564289 0.163066
H43   H     H_    0.408318 0.370982 0.435591 0.163134
H44   H     H_    0.659500 0.930574 0.125179 0.150095
H45   H     H_    0.108063 0.574497 0.882054 0.168571
H46   H     H_    0.659417 0.930618 0.874857 0.150111
H47   H     H_    0.593492 0.964639 0.157045 0.141808
H48   H     H_    0.593396 0.964677 0.842948 0.141811
H49   H     H_    0.159495 0.430581 0.125185 0.150103
H50   H     H_    0.159408 0.430628 0.874847 0.150088
H51   H     H_    0.093481 0.464643 0.157049 0.141810
H52   H     H_    0.093376 0.464683 0.842942 0.141650
H53   H     H_    0.159493 0.930583 0.625187 0.150115
H54   H     H_    0.159413 0.930623 0.374852 0.150121
H55   H     H_    0.093477 0.964644 0.657050 0.141814
H56   H     H_    0.108250 0.574653 0.117860 0.168708
H57   H     H_    0.093386 0.964680 0.342945 0.141808
H58   H     H_    0.659280 0.430807 0.625398 0.150075
H59   H     H_    0.659348 0.430691 0.374789 0.150081
H60   H     H_    0.593008 0.464777 0.657168 0.141396
H61   H     H_    0.593244 0.464720 0.342909 0.141739
H62   H     H_    0.624287 0.657743 0.303232 0.334531
H63   H     H_    0.622455 0.654870 0.699679 0.335913
H64   H     H_    0.124662 0.158308 0.303698 0.334363
H65   H     H_    0.124735 0.158393 0.696278 0.334332
H66   H     H_    0.124658 0.658300 0.803691 0.334173
H67   H     H_    0.608069 0.074503 0.882060 0.168657
H68   H     H_    0.124737 0.658400 0.196274 0.334341
H69   H     H_    0.624662 0.158307 0.803697 0.334368
H70   H     H_    0.624734 0.158391 0.196280 0.334334
H71   H     H_    0.608237 0.074641 0.117871 0.168692
H72   H     H_    0.339261 0.629363 0.432532 0.156037
O1    O     O_R   0.500000 0.731000 0.321180 -0.522169
O2    O     O_R   0.500000 0.678810 0.731020 -0.510876
O3    O     O_3   0.126639 0.131871 0.678129 -0.672015
O4    O     O_3   0.126487 0.631736 0.821796 -0.672703
O5    O     O_3   0.126649 0.631881 0.178119 -0.671998
O6    O     O_3   0.626493 0.131743 0.821803 -0.671983
O7    O     O_3   0.626637 0.131868 0.178132 -0.672019
O8    O     O_R   1.000000 0.178810 0.268980 -0.508315
O9    O     O_R   0.000000 0.178810 0.731020 -0.508335
O10   O     O_R   0.000000 0.678810 0.768980 -0.508544
O11   O     O_R   0.000000 0.678810 0.231020 -0.508365
O12   O     O_R   0.500000 0.178810 0.768980 -0.508304
O13   O     O_R   0.500000 0.178810 0.231020 -0.508354
O14   O     O_R   0.394200 0.776090 0.276090 -0.499010
O15   O     O_R   0.394200 0.776090 0.723910 -0.499153
O16   O     O_R   0.605800 0.776090 0.276090 -0.477699
O17   O     O_R   0.500000 0.731000 0.678820 -0.517783
O18   O     O_R   0.605800 0.776090 0.723910 -0.477634
O19   O     O_R   0.894200 0.276090 0.276090 -0.499042
O20   O     O_R   0.894200 0.276090 0.723910 -0.499105
O21   O     O_R   0.105800 0.276090 0.276090 -0.477741
O22   O     O_R   0.105800 0.276090 0.723910 -0.477847
O23   O     O_R   0.894200 0.776090 0.776090 -0.498807
O24   O     O_R   0.894200 0.776090 0.223910 -0.498998
O25   O     O_R   0.105800 0.776090 0.776090 -0.477337
O26   O     O_R   0.105800 0.776090 0.223910 -0.477749
O27   O     O_R   0.394200 0.276090 0.776090 -0.499045
O28   O     O_R   0.000000 0.231000 0.321180 -0.522219
O29   O     O_R   0.394200 0.276090 0.223910 -0.499027
O30   O     O_R   0.605800 0.276090 0.776090 -0.477682
O31   O     O_R   0.605800 0.276090 0.223910 -0.477730
O32   O     O_R   0.394210 0.723900 0.223890 -0.488310
O33   O     O_R   0.394210 0.723900 0.776110 -0.488915
O34   O     O_R   0.605790 0.723900 0.223890 -0.521603
O35   O     O_R   0.605790 0.723900 0.776110 -0.522004
O36   O     O_R   0.894210 0.223900 0.223890 -0.488330
O37   O     O_R   0.894210 0.223900 0.776110 -0.488364
O38   O     O_R   0.105790 0.223900 0.223890 -0.521529
O39   O     O_R   1.000000 0.231000 0.678820 -0.522202
O40   O     O_R   0.105790 0.223900 0.776110 -0.521491
O41   O     O_R   0.894210 0.723900 0.723890 -0.488756
O42   O     O_R   0.894210 0.723900 0.276110 -0.488493
O43   O     O_R   0.105790 0.723900 0.723890 -0.522440
O44   O     O_R   0.105790 0.723900 0.276110 -0.521490
O45   O     O_R   0.394210 0.223900 0.723890 -0.488335
O46   O     O_R   0.394210 0.223900 0.276110 -0.488405
O47   O     O_R   0.605790 0.223900 0.723890 -0.521560
O48   O     O_R   0.605790 0.223900 0.276110 -0.521543
O49   O     O_R   0.500000 0.821170 0.231010 -0.468702
O50   O     O_R   1.000000 0.731000 0.821180 -0.522096
O51   O     O_R   0.500000 0.821170 0.768990 -0.468786
O52   O     O_R   0.000000 0.321170 0.231010 -0.468692
O53   O     O_R   0.000000 0.321170 0.768990 -0.468726
O54   O     O_R   1.000000 0.821170 0.731010 -0.468589
O55   O     O_R   1.000000 0.821170 0.268990 -0.468685
O56   O     O_R   0.500000 0.321170 0.731010 -0.468669
O57   O     O_R   0.500000 0.321170 0.268990 -0.468670
O58   O     O_R   0.500000 0.768980 0.178810 -0.468049
O59   O     O_R   0.500000 0.768980 0.821190 -0.467832
O60   O     O_R   0.000000 0.268980 0.178810 -0.468035
O61   O     O_R   0.000000 0.731000 0.178820 -0.522164
O62   O     O_R   0.000000 0.268980 0.821190 -0.468033
O63   O     O_R   1.000000 0.768980 0.678810 -0.468064
O64   O     O_R   1.000000 0.768980 0.321190 -0.468085
O65   O     O_R   0.500000 0.268980 0.678810 -0.467882
O66   O     O_R   0.500000 0.268980 0.321190 -0.468014
O67   O     O_R   0.438730 0.954890 0.954890 -0.506724
O68   O     O_R   0.438730 0.954890 0.045110 -0.506738
O69   O     O_R   0.561270 0.954890 0.954890 -0.504329
O70   O     O_R   0.561270 0.954890 0.045110 -0.504314
O71   O     O_R   0.938730 0.454890 0.954890 -0.506702
O72   O     O_R   0.500000 0.231000 0.821180 -0.522192
O73   O     O_R   0.938730 0.454890 0.045110 -0.506729
O74   O     O_R   0.061270 0.454890 0.954890 -0.504343
O75   O     O_R   0.061270 0.454890 0.045110 -0.504315
O76   O     O_R   0.938730 0.954890 0.454890 -0.506705
O77   O     O_R   0.938730 0.954890 0.545110 -0.506705
O78   O     O_R   0.061270 0.954890 0.454890 -0.504335
O79   O     O_R   0.061270 0.954890 0.545110 -0.504320
O80   O     O_R   0.438730 0.454890 0.454890 -0.506598
O81   O     O_R   0.438730 0.454890 0.545110 -0.507398
O82   O     O_R   0.561270 0.454890 0.454890 -0.504357
O83   O     O_R   0.500000 0.231000 0.178820 -0.522173
O84   O     O_R   0.561270 0.454890 0.545110 -0.504520
O85   O     O_R   0.438760 0.545060 0.454900 -0.500617
O86   O     O_R   0.438760 0.545060 0.545100 -0.504752
O87   O     O_R   0.561240 0.545060 0.454900 -0.514087
O88   O     O_R   0.561240 0.545060 0.545100 -0.514050
O89   O     O_R   0.938760 0.045060 0.454900 -0.500942
O90   O     O_R   0.938760 0.045060 0.545100 -0.500942
O91   O     O_R   0.061240 0.045060 0.454900 -0.514522
O92   O     O_R   0.061240 0.045060 0.545100 -0.514505
O93   O     O_R   0.938760 0.545060 0.954900 -0.500919
O94   O     O_R   0.500000 0.678810 0.268980 -0.508272
O95   O     O_R   0.938760 0.545060 0.045100 -0.500942
O96   O     O_R   0.061240 0.545060 0.954900 -0.514535
O97   O     O_R   0.061240 0.545060 0.045100 -0.514508
O98   O     O_R   0.438760 0.045060 0.954900 -0.500941
O99   O     O_R   0.438760 0.045060 0.045100 -0.500948
O100  O     O_R   0.561240 0.045060 0.954900 -0.514520
O101  O     O_R   0.561240 0.045060 0.045100 -0.514505
O102  O     O_3   0.625823 0.631055 0.321166 -0.671815
O103  O     O_3   0.622923 0.627958 0.682066 -0.670913
O104  O     O_3   0.126496 0.131746 0.321806 -0.671993

loop_
_geom_bond_atom_site_label_1
_geom_bond_atom_site_label_2
_ccdc_geom_bond_type
C9    F2    S    
C61   C70   A    
Cu22  O30   S    
Cu2   O35   S    
C108  H13   S    
Cu7   Cu22  S    
C101  C113  S    
C7    C60   S    
C30   O96   A    
Cu4   O37   S    
C127  O39   A    
C74   C83   A    
C27   O88   A    
C173  H44   S    
Cu11  Cu13  S    
Cu10  O70   S    
C124  C133  A    
C146  H36   S    
Cu2   O2    S    
C112  H19   S    
C15   F16   S    
Cu12  O18   S    
C87   H1    S    
C22   C159  S    
Cu8   Cu23  S    
C31   O95   A    
C42   C136  S    
C2    C90   S    
C114  H24   S    
C131  C140  A    
C187  O37   A    
C134  C143  A    
C124  C168  A    
C34   O49   A    
C57   C109  S    
Cu19  O20   S    
C9    C121  S    
C176  H52   S    
C79   H3    S    
C125  C169  A    
C88   C97   A    
C6    O30   A    
C88   H12   S    
C189  O40   A    
C4    C56   S    
C39   O63   A    
C147  H37   S    
C109  C118  S    
C29   C99   S    
C137  C146  A    
C24   C99   A    
Cu14  Cu15  S    
C12   F11   S    
C69   C119  S    
C82   C91   A    
Cu1   O14   S    
C93   H56   S    
C108  H10   S    
C139  F12   S    
C184  O16   A    
C142  C151  A    
C11   F8    S    
Cu3   O38   S    
C36   C130  S    
H64   O104  S    
C23   O82   A    
C173  H47   S    
C20   O73   A    
C77   C171  S    
C174  H48   S    
C144  F22   S    
C164  C173  S    
C116  O28   A    
C68   C110  S    
C163  C172  A    
C9    F4    S    
Cu2   O33   S    
Cu13  O74   S    
C138  O10   A    
C15   F14   S    
Cu14  O77   S    
Cu2   O59   S    
C111  H20   S    
Cu17  O87   S    
C27   O86   A    
C27   C97   S    
C17   O67   A    
C7    O31   A    
C92   H45   S    
C10   C122  S    
C105  O2    A    
C46   C66   A    
C47   C52   T    
C190  O41   A    
C189  O22   A    
C105  O17   A    
C1    C70   S    
C79   C182  S    
C7    O48   A    
C80   C88   A    
C36   O51   A    
Cu20  O23   S    
C16   F17   S    
Cu12  O51   S    
Cu18  O28   S    
C84   C93   A    
C67   C118  S    
C138  O50   A    
C117  H28   S    
C35   C107  S    
C86   C95   A    
Cu16  O81   S    
C63   C113  S    
C129  C137  A    
Cu23  O83   S    
Cu7   O47   S    
Cu14  O89   S    
C76   C85   A    
Cu7   O65   S    
C45   C184  S    
C151  C159  A    
Cu9   O98   S    
C171  O83   A    
C15   C179  S    
C123  C132  A    
C33   C104  S    
C143  F21   S    
C42   O57   A    
C69   C77   A    
C121  C130  A    
C50   C188  S    
C4    O45   A    
C3    O26   A    
C6    O47   A    
C11   C176  S    
C54   C192  S    
C5    C58   S    
Cu3   O36   S    
C40   O64   A    
C114  H26   S    
Cu17  O82   S    
C75   C84   A    
H70   O7    S    
C20   O75   A    
C174  H46   S    
C30   C100  S    
C21   O78   A    
C42   O66   A    
Cu5   O41   S    
C150  H39   S    
Cu8   O13   S    
C3    C55   S    
Cu12  O15   S    
C150  C158  A    
C188  O38   A    
C64   C73   A    
Cu4   O9    S    
C89   H23   S    
C34   O58   A    
C111  H18   S    
C152  C161  A    
C161  C169  A    
C45   C53   T    
C65   C115  S    
C17   O69   A    
C4    O27   A    
C19   O71   A    
Cu5   O10   S    
C141  C150  A    
Cu16  O86   S    
C8    F24   S    
C26   C96   S    
C183  O15   A    
C64   C114  S    
C120  C129  A    
C38   O62   A    
C34   C129  S    
Cu20  O25   S    
Cu16  Cu17  S    
Cu4   O62   S    
C165  C174  S    
C36   O59   A    
C40   C134  S    
C43   C181  S    
C192  O43   A    
C65   C74   A    
C37   C131  S    
C18   O68   A    
Cu9   O67   S    
C38   C132  S    
C151  H40   S    
Cu15  O92   S    
C126  C170  A    
Cu18  O52   S    
H69   O6    S    
C82   O3    S    
C141  F19   S    
Cu2   Cu12  S    
Cu21  O26   S    
Cu7   O45   S    
C171  O13   A    
C63   C72   A    
C44   C183  S    
C95   H71   S    
C28   O89   A    
C14   C178  S    
C106  H8    S    
C181  O14   A    
Cu1   O49   S    
C90   H2    S    
Cu18  O19   S    
C24   C106  S    
C145  C154  A    
C137  F1    S    
C35   C100  A    
C122  C131  A    
C41   C135  S    
C41   O65   A    
C132  C141  A    
Cu14  O76   S    
Cu8   O48   S    
C153  H42   S    
C19   C158  S    
C6    C59   S    
C91   H34   S    
Cu11  O73   S    
C30   O93   A    
C110  C119  S    
C186  O19   A    
Cu17  O84   S    
Cu3   O60   S    
C115  H29   S    
C43   C55   T    
C121  C165  A    
C16   F15   S    
C49   C59   T    
C89   C98   A    
C175  H51   S    
C8    F3    S    
C20   C157  S    
C17   C156  S    
C75   C149  S    
Cu5   O43   S    
C180  H59   S    
C31   O97   A    
Cu24  O34   S    
C62   C71   A    
C40   O55   A    
C113  H22   S    
C127  O9    A    
C120  C164  A    
C44   C54   T    
C25   O84   A    
C91   C99   A    
Cu22  O72   S    
C16   C180  S    
Cu21  O55   S    
C125  C134  A    
C78   C87   A    
C177  H53   S    
C12   F9    S    
Cu1   O16   S    
C101  H5    S    
C160  O72   A    
C116  O8    A    
C1    O94   A    
C183  O33   A    
H63   O103  S    
C95   C104  A    
C74   C138  S    
C8    C120  S    
C166  C175  S    
C14   F10   S    
Cu11  O71   S    
H68   O5    S    
C128  C136  A    
Cu24  O58   S    
C192  O25   A    
C35   C65   A    
C168  C177  S    
H62   O102  S    
C10   C175  S    
C28   O91   A    
C186  O36   A    
C187  O20   A    
C146  C155  A    
C2    C97   A    
C68   C69   A    
C66   C117  S    
C158  C167  A    
C47   C185  S    
C72   C81   A    
C51   C189  S    
C112  H21   S    
C81   C89   A    
C172  C180  S    
C24   C64   A    
C140  F18   S    
C154  H43   S    
Cu4   O40   S    
C130  C139  A    
C3    O44   A    
C115  H27   S    
C39   O54   A    
C57   C103  A    
Cu10  O69   S    
C50   C58   T    
C31   C102  S    
Cu3   Cu18  S    
Cu15  O78   S    
Cu12  O17   S    
C73   C127  S    
C180  H61   S    
Cu21  O24   S    
C175  H49   S    
C157  C166  A    
Cu20  O50   S    
C83   C92   A    
C162  C170  A    
C110  H15   S    
C133  C142  A    
C32   C103  S    
C52   C190  S    
C149  O11   A    
C147  C156  A    
C53   C191  S    
Cu8   O46   S    
C10   F7    S    
C143  C152  A    
Cu6   O44   S    
C94   C103  A    
C177  H55   S    
C94   H67   S    
C71   C105  S    
C188  O21   A    
Cu14  O90   S    
C101  H7    S    
C73   C82   A    
C39   C133  S    
C28   C98   S    
C109  H16   S    
Cu3   O8    S    
C78   O102  S    
C11   C123  S    
C68   C104  A    
C96   C182  A    
Cu6   O11   S    
C41   O56   A    
C93   C102  A    
C118  H31   S    
Cu22  O56   S    
C72   C116  S    
H65   O3    S    
C107  H11   S    
C153  C162  A    
Cu19  O39   S    
Cu5   Cu20  S    
C156  C165  A    
C66   C75   A    
C108  C117  S    
C13   C63   A    
Cu1   O1    S    
C119  H35   S    
C84   O5    S    
C62   C112  S    
Cu22  O27   S    
C37   O52   A    
Cu13  O75   S    
Cu6   O64   S    
C29   O90   A    
Cu23  O31   S    
C80   O103  S    
C185  O35   A    
Cu8   O66   S    
Cu6   Cu21  S    
Cu17  O88   S    
C18   C155  S    
Cu11  O95   S    
C25   O81   A    
C21   O76   A    
C122  C166  A    
C1    O1    A    
C70   C78   A    
Cu23  O57   S    
Cu9   Cu10  S    
C109  H14   S    
C90   C112  S    
C140  C148  A    
C117  H30   S    
Cu7   O12   S    
C38   O53   A    
C119  H32   S    
C46   C102  A    
C139  C147  A    
C14   C125  S    
C106  C114  S    
C32   O98   A    
Cu13  O96   S    
C179  H60   S    
C190  O23   A    
C181  O32   A    
C26   O87   A    
C13   C98   A    
C159  C168  A    
C51   C56   T    
C144  C153  A    
C14   F13   S    
Cu15  O91   S    
C10   F5    S    
C85   O6    S    
C5    O46   A    
Cu4   Cu19  S    
Cu6   O42   S    
C148  H38   S    
C15   C126  S    
C49   C187  S    
C178  H54   S    
C33   O99   A    
C178  H57   S    
C136  C145  A    
C22   O79   A    
C148  C157  A    
C123  C167  A    
Cu9   O99   S    
C142  F20   S    
C12   C177  S    
Cu10  O100  S    
C18   O70   A    
C57   C67   A    
Cu13  O97   S    
C11   F6    S    
C71   C80   A    
C48   C60   T    
C191  O42   A    
C23   C163  S    
C83   O4    S    
C21   C161  S    
C107  H9    S    
C154  C163  A    
C79   H72   S    
C110  H17   S    
C8    C173  S    
C149  O61   A    
Cu10  O101  S    
Cu24  O94   S    
Cu18  O21   S    
C46   C108  S    
Cu19  O53   S    
C48   C186  S    
Cu15  O79   S    
C85   C94   A    
C12   C124  S    
C25   C162  S    
C160  O12   A    
C87   C96   A    
C29   O92   A    
C184  O34   A    
Cu23  O29   S    
C9    C174  S    
C37   O60   A    
C106  H6    S    
C16   C128  S    
C107  C115  S    
C23   O80   A    
Cu11  O93   S    
C135  C144  A    
C77   C86   A    
C128  C172  A    
Cu19  O22   S    
C176  H50   S    
C13   C101  S    
C61   C111  S    
C169  C178  S    
C152  H41   S    
C92   C100  A    
Cu1   Cu24  S    
Cu16  O85   S    
C76   C160  S    
Cu24  O32   S    
C32   O100  A    
C170  C179  S    
Cu5   O63   S    
C179  H58   S    
Cu20  O54   S    
C185  O18   A    
C126  C135  A    
C61   C182  A    
C155  C164  A    
C26   O85   A    
C79   C111  S    
C191  O24   A    
Cu9   O68   S    
H66   O4    S    
C19   O74   A    
C90   H4    S    
C5    O29   A    
C81   O104  S    
Cu21  O61   S    
C86   O7    S    
Cu16  O80   S    
C145  F23   S    
C33   O101  A    
C113  H25   S    
C22   O77   A    
C67   C76   A    
C118  H33   S    
C2    C62   A    
C167  C176  S    
