data_mof_unit_19966.cif
_audit_creation_date              2012-12-10T19:12:32-0500
_audit_creation_method            fapswitch 2.2
_symmetry_space_group_name_H-M    P1
_symmetry_Int_Tables_number       1
_space_group_crystal_system       triclinic
_cell_length_a                    15.632496
_cell_length_b                    11.2267
_cell_length_c                    9.900529
_cell_angle_alpha                 91.49995
_cell_angle_beta                  92.851333
_cell_angle_gamma                 89.570371
_cell_volume                      1734.77693975

loop_
_atom_site_label
_atom_site_type_symbol
_atom_type_description
_atom_site_fract_x
_atom_site_fract_y
_atom_site_fract_z
_atom_type_partial_charge
C1    C     C_R   0.509550 0.256935 0.498406 0.994782
C2    C     C_3   0.608812 0.918916 0.567528 0.481894
C3    C     C_3   0.435381 0.074779 0.552822 -0.448285
C4    C     C_R   0.338288 0.499919 0.496989 0.935792
C5    C     C_3   0.526752 0.051931 0.350210 0.244096
C6    C     C_3   0.519828 0.116946 0.496244 -0.321113
C7    C     C_3   0.515449 0.874885 0.504484 -0.292157
C8    C     C_3   0.430815 0.938826 0.555586 0.250456
C9    C     C_3   0.512474 0.916071 0.355883 -0.572133
C10   C     C_3   0.435864 0.412064 0.071225 0.320500
C11   C     C_3   0.450792 0.396169 0.914702 -0.325191
C12   C     C_3   0.082705 0.507880 0.491487 -0.032809
C13   C     C_3   0.473437 0.617918 0.080102 -0.318107
C14   C     C_3   0.583300 0.476026 0.093317 -0.363248
C15   C     C_3   0.458700 0.607844 0.918929 0.282223
C16   C     C_R   0.504176 0.741092 0.501862 1.014246
C17   C     C_3   0.589622 0.498700 0.938568 0.281126
C18   C     C_R   0.661613 0.502406 0.502653 1.048448
C19   C     C_3   0.972083 0.397186 0.515249 -0.238624
C20   C     C_3   0.020950 0.439650 0.394408 0.414497
C21   C     C_1   0.249135 0.502420 0.490490 -0.040564
C22   C     C_1   0.750808 0.506705 0.508045 0.076158
C23   C     C_3   0.977960 0.579790 0.603356 -0.117311
C24   C     C_3   0.035053 0.466580 0.613783 -0.132855
C25   C     C_3   0.916859 0.510487 0.504709 -0.022971
C26   C     C_3   0.027355 0.621261 0.480968 -0.260597
C27   C     C_3   0.964620 0.551473 0.383536 0.357758
C28   C     C_1   0.173597 0.505131 0.488496 0.074648
C29   C     C_1   0.826203 0.509553 0.508972 0.092244
C30   C     C_3   0.602413 0.064815 0.588202 0.423670
Cl1   Cl    Cl    0.347386 0.623246 0.870156 -0.356012
Cl2   Cl    Cl    0.915077 0.608070 0.232142 -0.427599
H1    H     H_    0.423896 0.116628 0.652201 0.240258
H2    H     H_    0.391281 0.381134 0.851600 0.238791
H3    H     H_    0.418875 0.658988 0.129896 0.271785
H4    H     H_    0.629928 0.535543 0.149537 0.231711
H5    H     H_    0.600208 0.384003 0.122853 0.259547
H6    H     H_    0.613493 0.591507 0.930392 0.104903
H7    H     H_    0.524877 0.684397 0.105067 0.126882
H8    H     H_    0.489847 0.684310 0.875756 0.184458
H9    H     H_    0.051774 0.712333 0.465994 0.207194
H10   H     H_    0.957859 0.636975 0.689453 0.217682
H11   H     H_    0.066147 0.431872 0.708196 0.217462
H12   H     H_    0.592218 0.066602 0.321970 0.220448
H13   H     H_    0.980865 0.233980 0.107309 0.402980
H14   H     H_    0.619323 0.824584 0.932295 0.369186
H15   H     H_    0.270614 0.787795 0.568540 0.348493
H16   H     H_    0.486699 0.944390 0.070966 0.390044
H17   H     H_    0.229854 0.564470 0.169478 0.405676
H18   H     H_    0.760194 0.271750 0.998730 0.413346
H19   H     H_    0.475117 0.123572 0.873494 0.384644
H20   H     H_    0.826414 0.164209 0.645449 0.382000
H21   H     H_    0.829028 0.820435 0.481866 0.387627
H22   H     H_    0.555660 0.866624 0.289235 0.255936
H23   H     H_    0.449899 0.889560 0.306396 0.238757
H24   H     H_    0.380743 0.108454 0.487622 0.217920
H25   H     H_    0.380228 0.918140 0.475438 0.120894
H26   H     H_    0.947586 0.305910 0.528813 0.206033
H27   H     H_    0.449080 0.328603 0.117618 0.199746
H28   H     H_    0.487406 0.314167 0.903146 0.195772
N1    N     N_3   0.498170 0.499750 0.138610 -0.178430
N2    N     N_3   0.498850 0.496730 0.861320 -0.184301
O1    O     O_R   0.499980 0.314910 0.616040 -0.593837
O2    O     O_2   0.112228 0.252699 0.304708 -0.233750
O3    O     O_3   0.961131 0.280650 0.186281 -0.489659
O4    O     O_2   0.658462 0.709992 0.692303 -0.307448
O5    O     O_2   0.734750 0.883086 0.768087 -0.149874
O6    O     O_3   0.583945 0.852438 0.853364 -0.501998
O7    O     O_2   0.419362 0.861628 0.815049 -0.148702
O8    O     O_2   0.300347 0.976799 0.719774 -0.244856
O9    O     O_3   0.318510 0.760681 0.629714 -0.524487
O10   O     O_2   0.392314 0.170912 0.239722 -0.228723
O11   O     O_2   0.530701 0.169225 0.124240 -0.329080
O12   O     O_R   0.500040 0.314680 0.383960 -0.581714
O13   O     O_3   0.434072 0.985428 0.099771 -0.461495
O14   O     O_2   0.267277 0.395032 0.978691 -0.223527
O15   O     O_2   0.296329 0.351599 0.213580 -0.203327
O16   O     O_3   0.290851 0.570591 0.148143 -0.523756
O17   O     O_2   0.719651 0.401804 0.769515 -0.203615
O18   O     O_2   0.759038 0.499265 0.979759 -0.253514
O19   O     O_3   0.698147 0.289550 0.986891 -0.454126
O20   O     O_2   0.670617 0.069414 0.855556 -0.107793
O21   O     O_2   0.594141 0.237855 0.783133 -0.235730
O22   O     O_3   0.506933 0.054329 0.838046 -0.472669
O23   O     O_R   0.376750 0.500100 0.616020 -0.577526
O24   O     O_2   0.728029 0.125497 0.402715 -0.235391
O25   O     O_2   0.687062 0.270570 0.565974 -0.340496
O26   O     O_3   0.783494 0.100195 0.650366 -0.405098
O27   O     O_2   0.681466 0.736059 0.422290 -0.360984
O28   O     O_2   0.696589 0.922099 0.316118 -0.257614
O29   O     O_3   0.793161 0.881857 0.525796 -0.405918
O30   O     O_R   0.376810 0.499870 0.383940 -0.567934
O31   O     O_R   0.499960 0.685320 0.616040 -0.547048
O32   O     O_R   0.500020 0.685090 0.383960 -0.642753
O33   O     O_R   0.623190 0.500130 0.616060 -0.536777
O34   O     O_R   0.623250 0.499900 0.383980 -0.642721
O35   O     O_2   0.090047 0.420220 0.151792 -0.233416
S1    S     S_3+6 0.049768 0.346245 0.255477 0.107480
S2    S     S_3+6 0.647058 0.839820 0.722074 0.136371
S3    S     S_3+6 0.367912 0.885689 0.687763 0.110701
S4    S     S_3+6 0.468812 0.099420 0.201700 0.038938
S5    S     S_3+6 0.320805 0.431565 0.103055 0.131946
S6    S     S_3+6 0.691763 0.421403 0.909342 0.121417
S7    S     S_3+6 0.594328 0.106757 0.768865 0.147209
S8    S     S_3+6 0.701170 0.140761 0.545278 0.102394
S9    S     S_3+6 0.694468 0.866053 0.451802 0.089154
Zn1   Zn    Zn3+2 0.499960 0.500150 0.654960 1.105010
Zn2   Zn    Zn3+2 0.500040 0.499850 0.345040 1.036331

loop_
_geom_bond_atom_site_label_1
_geom_bond_atom_site_label_2
_ccdc_geom_bond_type
C4    C21   S    
C22   C29   T    
O16   S5    S    
C18   O34   A    
C2    C7    S    
C14   C17   S    
C11   N2    S    
O35   S1    D    
C7    C8    S    
H14   O6    S    
O32   Zn2   S    
C16   O31   A    
C23   H10   S    
C12   C28   S    
C1    O12   A    
O3    S1    S    
C13   H3    S    
C14   H4    S    
C5    C6    S    
C8    H25   S    
O10   S4    D    
C3    H1    S    
H17   O16   S    
C23   C26   S    
N1    Zn2   S    
O30   Zn2   S    
C19   C20   S    
O27   S9    D    
H21   O29   S    
C23   C24   S    
C9    H23   S    
O5    S2    D    
C3    C6    S    
O2    S1    D    
O34   Zn2   S    
O14   S5    D    
C18   O33   A    
H16   O13   S    
O17   S6    D    
O15   S5    D    
C1    O1    A    
O8    S3    D    
C19   H26   S    
C25   C29   S    
C5    S4    S    
O21   S7    D    
O18   S6    D    
C1    C6    S    
C10   S5    S    
O28   S9    D    
C3    C8    S    
C4    O23   A    
C14   N1    S    
C2    S9    S    
C12   C26   S    
O4    S2    D    
C5    C9    S    
C17   N2    S    
C3    H24   S    
O25   S8    D    
H20   O26   S    
C12   C20   S    
C26   C27   S    
C20   S1    S    
H15   O9    S    
O33   Zn1   S    
C7    C16   S    
C6    C30   S    
C21   C28   T    
C2    S2    S    
C13   C15   S    
C30   S8    S    
H13   O3    S    
O22   S7    S    
C10   N1    S    
O1    Zn1   S    
C11   H28   S    
O19   S6    S    
C7    C9    S    
C27   Cl2   S    
C18   C22   S    
C5    H12   S    
C11   H2    S    
C15   Cl1   S    
N2    Zn1   S    
C20   C27   S    
C25   C27   S    
O9    S3    S    
C12   C24   S    
C16   O32   A    
C2    C30   S    
O29   S9    S    
C10   H27   S    
C8    S3    S    
O6    S2    S    
O31   Zn1   S    
C14   H5    S    
O26   S8    S    
O11   S4    D    
C15   N2    S    
C19   C24   S    
C17   H6    S    
C23   C25   S    
C17   S6    S    
C19   C25   S    
C15   H8    S    
C13   H7    S    
C10   C11   S    
O12   Zn2   S    
O24   S8    D    
O7    S3    D    
C13   N1    S    
H18   O19   S    
C30   S7    S    
O13   S4    S    
C24   H11   S    
O20   S7    D    
C9    H22   S    
O23   Zn1   S    
H19   O22   S    
C26   H9    S    
C4    O30   A    
