data_mof_unit_35488.cif
_audit_creation_date              2012-12-11T15:26:57-0500
_audit_creation_method            fapswitch 2.2
_symmetry_space_group_name_H-M    P1
_symmetry_Int_Tables_number       1
_space_group_crystal_system       triclinic
_cell_length_a                    13.948849
_cell_length_b                    13.948617
_cell_length_c                    27.417196
_cell_angle_alpha                 90.000396
_cell_angle_beta                  89.998165
_cell_angle_gamma                 120.000672
_cell_volume                      4619.76888923

loop_
_atom_site_label
_atom_site_type_symbol
_atom_type_description
_atom_site_fract_x
_atom_site_fract_y
_atom_site_fract_z
_atom_type_partial_charge
C1    C     C_R   0.234174 0.787319 0.568630 0.541057
C2    C     C_R   0.212676 0.446849 0.568627 0.541056
C3    C     C_R   0.553148 0.765828 0.568628 0.541057
C4    C     C_3   0.654386 0.733246 0.788786 -0.213247
C5    C     C_3   0.266881 0.920985 0.788810 -0.213209
C6    C     C_3   0.076926 0.342955 0.788588 -0.213159
C7    C     C_3   0.633392 0.720621 0.733066 -0.212718
C8    C     C_3   0.279497 0.912615 0.733089 -0.212672
C9    C     C_3   0.085286 0.363925 0.732864 -0.212717
C10   C     C_1   0.711763 0.864180 0.857961 -0.078958
C11   C     C_1   0.135883 0.847554 0.857975 -0.078952
C12   C     C_1   0.152370 0.288220 0.857957 -0.078956
C13   C     C_1   0.631776 0.816951 0.657766 -0.075790
C14   C     C_1   0.183092 0.814811 0.657777 -0.075794
C15   C     C_1   0.185142 0.368211 0.657763 -0.075791
C16   C     C_1   0.602800 0.797921 0.615831 -0.017820
C17   C     C_1   0.202101 0.804871 0.615838 -0.017812
C18   C     C_1   0.195104 0.397191 0.615829 -0.017814
C19   C     C_R   0.106766 0.219750 0.948771 0.549817
C20   C     C_R   0.780250 0.887017 0.948771 0.549819
C21   C     C_R   0.112988 0.893227 0.948775 0.549822
C22   C     C_R   0.614409 0.807272 0.385607 0.025134
C23   C     C_R   0.192738 0.807156 0.385609 0.025126
C24   C     C_R   0.192913 0.385629 0.385601 0.025149
C25   C     C_R   0.608627 0.891964 0.360436 -0.126051
C26   C     C_R   0.107985 0.716706 0.360451 -0.126041
C27   C     C_R   0.283454 0.391652 0.360391 -0.126037
C28   C     C_R   0.637269 0.910737 0.311557 -0.123325
C29   C     C_R   0.089213 0.726568 0.311572 -0.123294
C30   C     C_R   0.273561 0.362980 0.311517 -0.123334
C31   C     C_R   0.674281 0.846733 0.287460 0.036541
C32   C     C_R   0.153282 0.827554 0.287460 0.036541
C33   C     C_R   0.172459 0.325695 0.287462 0.036533
C34   C     C_R   0.233208 0.787550 0.431570 0.542799
C35   C     C_R   0.212462 0.445669 0.431567 0.542783
C36   C     C_R   0.554340 0.766794 0.431569 0.542785
C37   C     C_R   0.691114 0.770159 0.313894 -0.120329
C38   C     C_R   0.229920 0.920948 0.313881 -0.120314
C39   C     C_R   0.079017 0.308647 0.313932 -0.120287
C40   C     C_R   0.660674 0.749996 0.362708 -0.127602
C41   C     C_R   0.250078 0.910678 0.362696 -0.127565
C42   C     C_R   0.089316 0.339125 0.362743 -0.127588
C43   C     C_R   0.655530 0.759394 0.206364 -0.120196
C44   C     C_R   0.240608 0.896066 0.206352 -0.120166
C45   C     C_R   0.103633 0.344229 0.206393 -0.120203
C46   C     C_R   0.676501 0.767913 0.156579 -0.132653
C47   C     C_R   0.232080 0.908523 0.156568 -0.132622
C48   C     C_R   0.091203 0.323298 0.156606 -0.132606
C49   C     C_R   0.754775 0.967047 0.161592 -0.126294
C50   C     C_R   0.032936 0.787776 0.161603 -0.126286
C51   C     C_R   0.212420 0.245434 0.161566 -0.126308
C52   C     C_R   0.735753 0.958771 0.211469 -0.121859
C53   C     C_R   0.041221 0.777030 0.211478 -0.121848
C54   C     C_R   0.223161 0.264430 0.211445 -0.121835
C55   C     C_R   0.688944 0.855234 0.234412 0.035924
C56   C     C_R   0.144769 0.833700 0.234412 0.035925
C57   C     C_R   0.166249 0.311011 0.234416 0.035934
C58   C     C_R   0.729545 0.872162 0.134312 0.022600
C59   C     C_R   0.127825 0.857376 0.134313 0.022610
C60   C     C_R   0.142595 0.270469 0.134311 0.022594
C61   C     C_R   0.106571 0.221498 0.086178 0.546414
C62   C     C_R   0.778500 0.885077 0.086178 0.546397
C63   C     C_R   0.114920 0.893422 0.086178 0.546402
C64   C     C_3   0.576572 0.865638 0.735655 -0.213212
C65   C     C_3   0.134224 0.710849 0.735652 -0.213186
C66   C     C_3   0.288213 0.425291 0.735810 -0.213229
C67   C     C_3   0.775976 0.921227 0.720973 -0.216209
C68   C     C_3   0.078982 0.854928 0.720992 -0.216262
C69   C     C_3   0.147897 0.224792 0.721008 -0.216214
C70   C     C_3   0.796892 0.934005 0.776838 -0.212940
C71   C     C_3   0.066208 0.863048 0.776858 -0.213032
C72   C     C_3   0.139696 0.203862 0.776874 -0.213002
C73   C     C_1   0.737103 0.873653 0.900382 -0.026539
C74   C     C_1   0.126379 0.863426 0.900393 -0.026548
C75   C     C_1   0.136531 0.262887 0.900379 -0.026529
C76   C     C_3   0.654643 0.831405 0.710393 0.072605
C77   C     C_3   0.168656 0.823219 0.710406 0.072609
C78   C     C_3   0.176716 0.345343 0.710390 0.072618
C79   C     C_3   0.597483 0.878177 0.791496 -0.216289
C80   C     C_3   0.121712 0.719223 0.791495 -0.216279
C81   C     C_3   0.279836 0.404359 0.791646 -0.216318
C82   C     C_3   0.690213 0.852831 0.805209 0.074042
C83   C     C_3   0.147246 0.837355 0.805224 0.074074
C84   C     C_3   0.162555 0.309768 0.805205 0.074062
Cr1   Cr    Cr6+3 0.164410 0.584450 0.499910 1.016612
Cr2   Cr    Cr6+3 0.415550 0.579960 0.499910 1.016600
Cr3   Cr    Cr6+3 0.420040 0.835590 0.499910 1.016597
Cr4   Cr    Cr6+3 0.156760 0.076070 0.017830 1.018581
Cr5   Cr    Cr6+3 0.923930 0.080690 0.017830 1.018562
Cr6   Cr    Cr6+3 0.919310 0.843240 0.017830 1.018574
H1    H     H_    0.621372 0.963891 0.802829 0.110940
H2    H     H_    0.035965 0.657486 0.802827 0.110936
H3    H     H_    0.342983 0.382385 0.803111 0.110882
H4    H     H_    0.488594 0.802280 0.728595 0.106724
H5    H     H_    0.197455 0.686064 0.728581 0.106848
H6    H     H_    0.310906 0.512753 0.728734 0.106727
H7    H     H_    0.519722 0.820678 0.811111 0.107286
H8    H     H_    0.179122 0.698832 0.811103 0.107327
H9    H     H_    0.298184 0.481593 0.811242 0.107285
H10   H     H_    0.573629 0.937898 0.377217 0.132425
H11   H     H_    0.061997 0.635794 0.377246 0.132427
H12   H     H_    0.364440 0.426858 0.377136 0.132500
H13   H     H_    0.615717 0.678194 0.223103 0.103672
H14   H     H_    0.321814 0.937407 0.223083 0.103693
H15   H     H_    0.062094 0.383865 0.223152 0.103673
H16   H     H_    0.656322 0.693916 0.135952 0.116618
H17   H     H_    0.306080 0.962298 0.135933 0.116609
H18   H     H_    0.037248 0.343326 0.136001 0.116666
H19   H     H_    0.623608 0.970323 0.292016 0.099565
H20   H     H_    0.029572 0.653333 0.292041 0.099578
H21   H     H_    0.346840 0.376830 0.291946 0.099587
H22   H     H_    0.762361 0.033862 0.232313 0.101247
H23   H     H_    0.966130 0.728595 0.232329 0.101270
H24   H     H_    0.271803 0.237987 0.232270 0.101261
H25   H     H_    0.796804 0.048598 0.145145 0.129548
H26   H     H_    0.951381 0.748304 0.145164 0.129586
H27   H     H_    0.252095 0.203580 0.145097 0.129490
H28   H     H_    0.723376 0.722627 0.296301 0.101292
H29   H     H_    0.277502 0.000723 0.296279 0.101315
H30   H     H_    0.999167 0.276184 0.296369 0.101324
H31   H     H_    0.590226 0.945327 0.720234 0.112504
H32   H     H_    0.054481 0.644922 0.720227 0.112490
H33   H     H_    0.355591 0.413593 0.720525 0.112374
H34   H     H_    0.667445 0.685451 0.381614 0.126095
H35   H     H_    0.314670 0.981979 0.381591 0.126124
H36   H     H_    0.017958 0.332175 0.381681 0.126066
H37   H     H_    0.833779 0.898259 0.703553 0.108801
H38   H     H_    0.102098 0.935752 0.703587 0.108860
H39   H     H_    0.067766 0.165655 0.703464 0.108736
H40   H     H_    0.793392 0.001842 0.705143 0.111054
H41   H     H_    0.998332 0.791842 0.705151 0.111010
H42   H     H_    0.212515 0.209303 0.705329 0.111171
H43   H     H_    0.824429 0.020848 0.787763 0.109606
H44   H     H_    0.979339 0.803822 0.787774 0.109561
H45   H     H_    0.200343 0.178178 0.787949 0.109714
H46   H     H_    0.865146 0.917683 0.786076 0.105904
H47   H     H_    0.082661 0.947664 0.786111 0.105942
H48   H     H_    0.055708 0.134329 0.785992 0.105818
H49   H     H_    0.546501 0.654439 0.725982 0.109563
H50   H     H_    0.345579 0.891769 0.726002 0.109466
H51   H     H_    0.104026 0.450197 0.725742 0.109696
H52   H     H_    0.688661 0.694127 0.715826 0.112462
H53   H     H_    0.306135 0.994421 0.715861 0.112471
H54   H     H_    0.004063 0.307242 0.715515 0.112368
H55   H     H_    0.577636 0.673091 0.808349 0.109632
H56   H     H_    0.326945 0.904258 0.808372 0.109558
H57   H     H_    0.091588 0.419105 0.808117 0.109724
O1    O     O_R   0.137310 0.468260 0.552980 -0.510249
O2    O     O_R   0.531740 0.669050 0.552980 -0.510235
O3    O     O_R   0.330950 0.862690 0.552980 -0.510243
O4    O     O_R   0.180530 0.983530 0.965090 -0.512217
O5    O     O_R   0.016470 0.197000 0.965090 -0.512212
O6    O     O_R   0.803000 0.819470 0.965090 -0.512211
O7    O     O_R   0.174120 0.688790 0.549730 -0.498827
O8    O     O_R   0.311210 0.485330 0.549730 -0.498817
O9    O     O_R   0.514670 0.825880 0.549730 -0.498830
O10   O     O_R   0.139940 0.470480 0.446230 -0.521872
O11   O     O_R   0.529520 0.669460 0.446230 -0.521941
O12   O     O_R   0.330540 0.860060 0.446230 -0.521927
O13   O     O_R   0.176560 0.690850 0.450770 -0.506198
O14   O     O_R   0.309150 0.485710 0.450770 -0.506234
O15   O     O_R   0.514290 0.823440 0.450770 -0.506209
O16   O     O_3   0.333333 0.666667 0.499990 -0.264006
O17   O     O_3   0.000000 0.000000 0.017910 -0.215929
O18   O     O_R   0.149710 0.171070 0.967700 -0.496752
O19   O     O_R   0.828930 0.978640 0.967700 -0.496750
O20   O     O_R   0.021360 0.850290 0.967700 -0.496749
O21   O     O_R   0.178510 0.985930 0.071830 -0.519517
O22   O     O_R   0.014070 0.192580 0.071830 -0.519584
O23   O     O_R   0.807420 0.821490 0.071830 -0.519556
O24   O     O_R   0.147830 0.173300 0.066650 -0.501012
O25   O     O_R   0.826700 0.974530 0.066650 -0.501034
O26   O     O_R   0.025470 0.852170 0.066650 -0.501047
H58   H     H_    0.719896 0.712992 0.798203 0.111582
H59   H     H_    0.287272 0.006788 0.798237 0.111570
H60   H     H_    0.991698 0.276077 0.797900 0.111422

loop_
_geom_bond_atom_site_label_1
_geom_bond_atom_site_label_2
_ccdc_geom_bond_type
C58   C62   S    
C15   C18   T    
Cr3   O16   S    
C2    O8    A    
Cr6   O20   S    
C2    C18   S    
C24   C42   A    
C24   C27   A    
C6    C9    S    
C44   H14   S    
C71   H47   S    
C25   C28   A    
Cr6   O26   S    
C45   C57   A    
C35   O14   A    
C50   C59   A    
C29   C32   A    
C80   C83   S    
C26   H11   S    
C5    C83   S    
C10   C73   T    
C14   C77   S    
C15   C78   S    
C52   H22   S    
C2    O1    A    
C39   H30   S    
C54   H24   S    
C12   C84   S    
C23   C26   A    
C51   H27   S    
Cr5   O5    S    
C37   H28   S    
C53   H23   S    
Cr4   O21   S    
Cr3   O3    S    
C70   H43   S    
Cr1   O1    S    
C48   C60   A    
C61   O24   A    
Cr1   O13   S    
C32   C38   A    
C68   H38   S    
Cr5   O17   S    
C79   H1    S    
C44   C47   A    
C36   O11   A    
Cr1   O7    S    
C34   O12   A    
C49   C52   A    
C72   H48   S    
Cr4   O24   S    
C4    H58   S    
C46   C58   A    
C27   C30   A    
C70   H46   S    
C5    H59   S    
C14   C17   T    
C69   C78   S    
Cr1   O10   S    
C71   H44   S    
C4    C7    S    
C40   H34   S    
C9    H54   S    
C45   H15   S    
C63   O26   A    
C39   C42   A    
C71   C83   S    
C62   O23   A    
C3    O2    A    
C24   C35   S    
C6    C84   S    
C20   O6    A    
C50   C53   A    
C41   H35   S    
C29   H20   S    
C65   C77   S    
C38   C41   A    
Cr2   O2    S    
C9    H51   S    
C72   H45   S    
C81   H9    S    
C11   C83   S    
Cr4   O17   S    
C47   C59   A    
C21   C74   S    
C10   C82   S    
C49   C58   A    
C31   C37   A    
Cr6   O17   S    
C60   C61   S    
C80   H2    S    
C68   H41   S    
Cr2   O8    S    
C35   O10   A    
C67   H37   S    
C5    C8    S    
C81   H3    S    
C44   C56   A    
C25   H10   S    
C13   C76   S    
C23   C34   S    
C22   C40   A    
Cr6   O23   S    
C19   O5    A    
C64   C76   S    
C1    O3    A    
Cr2   O14   S    
C33   C39   A    
C65   H32   S    
Cr6   O6    S    
Cr2   O11   S    
C72   C84   S    
C38   H29   S    
C66   C78   S    
C43   C55   A    
C63   O21   A    
C49   H25   S    
C22   C25   A    
C47   H17   S    
C8    C77   S    
Cr1   O16   S    
Cr4   O4    S    
C13   C16   T    
C67   H40   S    
C61   O22   A    
C69   H42   S    
C81   C84   S    
C62   O25   A    
C66   H6    S    
C45   C48   A    
C68   C77   S    
C33   C57   S    
C5    H56   S    
C30   C33   A    
C80   H8    S    
Cr3   O9    S    
C59   C63   S    
C20   O19   A    
C79   H7    S    
C28   C31   A    
Cr5   O25   S    
C69   C72   S    
C11   C74   T    
C21   O20   A    
C79   C82   S    
C52   C55   A    
C7    C76   S    
Cr2   O16   S    
C28   H19   S    
C37   C40   A    
C22   C36   S    
C27   H12   S    
C1    C17   S    
C23   C41   A    
C30   H21   S    
C8    H50   S    
C67   C70   S    
C51   C54   A    
C51   C60   A    
C19   C75   S    
Cr5   O22   S    
C66   C81   S    
C7    H49   S    
C6    H57   S    
C48   H18   S    
C6    H60   S    
C36   O15   A    
C68   C71   S    
C4    H55   S    
C46   H16   S    
C3    O9    A    
C64   C79   S    
Cr3   O12   S    
C20   C73   S    
C8    H53   S    
C50   H26   S    
C9    C78   S    
C21   O4    A    
C1    O7    A    
C70   C82   S    
C43   C46   A    
C43   H13   S    
Cr5   O19   S    
C42   H36   S    
C64   H4    S    
C65   H5    S    
Cr3   O15   S    
C4    C82   S    
C26   C29   A    
C69   H39   S    
Cr4   O18   S    
C12   C75   T    
C53   C56   A    
C65   C80   S    
C66   H33   S    
C67   C76   S    
C19   O18   A    
C31   C55   S    
C32   C56   S    
C7    H52   S    
C3    C16   S    
C64   H31   S    
C54   C57   A    
C34   O13   A    
