data_mof_unit_65277.cif
_audit_creation_date              2012-12-10T21:13:54-0500
_audit_creation_method            fapswitch 2.2
_symmetry_space_group_name_H-M    P1
_symmetry_Int_Tables_number       1
_space_group_crystal_system       triclinic
_cell_length_a                    15.627826
_cell_length_b                    16.788808
_cell_length_c                    17.562567
_cell_angle_alpha                 88.237031
_cell_angle_beta                  90.124578
_cell_angle_gamma                 67.392003
_cell_volume                      4251.34320569

loop_
_atom_site_label
_atom_site_type_symbol
_atom_type_description
_atom_site_fract_x
_atom_site_fract_y
_atom_site_fract_z
_atom_type_partial_charge
C1    C     C_R   0.498554 0.499364 0.646531 0.903419
C2    C     C_R   0.501460 0.500628 0.353481 0.903479
C3    C     C_R   0.103452 0.395209 0.500008 0.135222
C4    C     C_R   0.896535 0.604817 0.500001 0.135319
C5    C     C_R   0.063223 0.338873 0.476933 -0.226384
C6    C     C_R   0.936770 0.661151 0.523070 -0.226435
C7    C     C_R   0.442646 0.470075 0.154298 -0.137680
C8    C     C_R   0.557150 0.530577 0.845622 -0.137870
C9    C     C_R   0.443906 0.469916 0.233148 -0.216010
C10   C     C_R   0.555701 0.530772 0.766774 -0.215917
C11   C     C_R   0.501502 0.502768 0.271237 -0.075654
C12   C     C_R   0.498689 0.497169 0.728795 -0.076175
C13   C     C_R   0.558947 0.535332 0.230010 0.157975
C14   C     C_R   0.442041 0.463774 0.770166 0.158443
C15   C     C_R   0.557100 0.535243 0.150990 -0.170227
C16   C     C_R   0.444086 0.463830 0.849184 -0.170419
C17   C     C_R   0.499285 0.502670 0.113834 0.110628
C18   C     C_R   0.501295 0.497177 0.886211 0.110683
C19   C     C_1   0.499911 0.500807 0.033766 -0.028904
C20   C     C_1   0.500777 0.499043 0.966278 -0.028875
C21   C     C_R   0.554562 0.145227 0.550115 -0.251818
C22   C     C_R   0.445444 0.854773 0.449884 -0.251888
C23   C     C_R   0.676280 0.446221 0.498034 0.914875
C24   C     C_R   0.323719 0.553780 0.501966 0.914655
C25   C     C_R   0.554905 0.228943 0.550162 0.334757
C26   C     C_R   0.445106 0.771055 0.449831 0.334563
C27   C     C_R   0.446228 0.273367 0.447975 0.030052
C28   C     C_R   0.553751 0.726639 0.552040 0.029995
C29   C     C_R   0.444644 0.189741 0.446228 -0.230993
C30   C     C_R   0.555328 0.810267 0.553794 -0.231001
C31   C     C_R   0.499047 0.124540 0.498244 0.120582
C32   C     C_R   0.500941 0.875464 0.501769 0.120617
C33   C     C_1   0.499334 0.036745 0.499112 0.000213
C34   C     C_1   0.500652 0.963260 0.500904 0.000191
C35   C     C_R   0.777197 0.412701 0.490847 -0.120037
C36   C     C_R   0.222801 0.587308 0.509148 -0.120175
C37   C     C_R   0.926686 0.307418 0.455846 -0.192352
C38   C     C_R   0.073312 0.692604 0.544139 -0.192414
C39   C     C_R   0.830974 0.331293 0.461741 0.180702
C40   C     C_R   0.169025 0.668724 0.538243 0.180562
C41   C     C_R   0.819731 0.469434 0.508346 -0.223370
C42   C     C_R   0.180260 0.530581 0.491650 -0.223543
C43   C     C_R   0.911591 0.451772 0.490384 0.112835
C44   C     C_R   0.088398 0.548251 0.509611 0.112749
C45   C     C_R   0.967437 0.366383 0.471914 0.088111
C46   C     C_R   0.032557 0.633640 0.528079 0.088097
C47   C     C_R   0.950925 0.514446 0.497628 -0.004737
C48   C     C_R   0.049061 0.485580 0.502372 -0.004771
H1    H     H_    0.106200 0.271064 0.471471 0.173948
H2    H     H_    0.893796 0.728961 0.528538 0.173949
H3    H     H_    0.598214 0.096238 0.590429 0.165994
H4    H     H_    0.401802 0.903760 0.409564 0.165995
H5    H     H_    0.403621 0.322996 0.407820 0.134072
H6    H     H_    0.596346 0.677012 0.592203 0.133966
H7    H     H_    0.400879 0.176412 0.404810 0.155042
H8    H     H_    0.599079 0.823600 0.595223 0.155024
H9    H     H_    0.219146 0.472666 0.461912 0.178154
H10   H     H_    0.780844 0.527345 0.538087 0.178131
H11   H     H_    0.969209 0.242898 0.438577 0.167811
H12   H     H_    0.030792 0.757127 0.561404 0.167827
H13   H     H_    0.398131 0.444520 0.124974 0.148869
H14   H     H_    0.601196 0.556734 0.874846 0.148870
H15   H     H_    0.399669 0.444593 0.264492 0.152519
H16   H     H_    0.599348 0.556717 0.735346 0.152788
H17   H     H_    0.601747 0.559191 0.118619 0.161246
H18   H     H_    0.400040 0.439250 0.881662 0.161224
N1    N     N_R   0.499980 0.292780 0.499970 -0.100208
N2    N     N_R   0.500020 0.707220 0.500030 -0.100189
O1    O     O_R   0.500000 0.433430 0.610870 -0.573619
O2    O     O_R   0.500000 0.566570 0.389130 -0.573680
O3    O     O_R   0.500010 0.566520 0.610900 -0.628070
O4    O     O_R   0.499990 0.433480 0.389100 -0.627948
O5    O     O_R   0.632240 0.395450 0.499980 -0.578924
O6    O     O_R   0.367760 0.604550 0.500020 -0.578888
O7    O     O_R   0.632250 0.528530 0.500000 -0.608694
O8    O     O_R   0.367750 0.471470 0.500000 -0.608755
Zn1   Zn    Zn3+2 0.500000 0.411140 0.499980 1.016214
Zn2   Zn    Zn3+2 0.500000 0.588860 0.500020 1.016153
I1    I     I_    0.646440 0.248459 0.629492 -0.272592
I2    I     I_    0.353593 0.751533 0.370482 -0.272740
I3    I     I_    0.223395 0.759095 0.576187 -0.296649
I4    I     I_    0.776605 0.240930 0.423776 -0.296492
I5    I     I_    0.236258 0.330516 0.552886 -0.340484
I6    I     I_    0.763712 0.669529 0.447156 -0.340529
I7    I     I_    0.656040 0.577841 0.281679 -0.265431
I8    I     I_    0.345814 0.419957 0.718798 -0.264977

loop_
_geom_bond_atom_site_label_1
_geom_bond_atom_site_label_2
_ccdc_geom_bond_type
C30   C32   A    
O2    Zn2   S    
O1    Zn1   S    
C19   C20   T    
N1    Zn1   S    
C21   C31   A    
C1    O3    A    
C22   C32   A    
C28   N2    A    
C41   H10   S    
C27   C29   A    
C15   H17   S    
C3    C48   A    
C7    C9    A    
C7    H13   S    
C36   C42   A    
C7    C17   A    
C25   N1    A    
C31   C33   S    
O6    Zn2   S    
C9    H15   S    
C41   C43   A    
C5    H1    S    
C1    C12   S    
C42   C44   A    
C23   O5    A    
C2    O4    A    
C2    C11   S    
C42   H9    S    
C44   C46   A    
N2    Zn2   S    
C36   C40   A    
O8    Zn1   S    
C14   I8    S    
C4    C6    A    
C28   H6    S    
C24   O8    A    
C29   H7    S    
C30   H8    S    
C8    C18   A    
C32   C34   S    
C35   C39   A    
O4    Zn1   S    
C9    C11   A    
C47   C48   A    
C4    I6    S    
C29   C31   A    
C33   C34   T    
C24   C36   S    
C6    H2    S    
C43   C45   A    
C37   H11   S    
C10   C12   A    
C38   H12   S    
C8    C10   A    
C12   C14   A    
C23   C35   S    
C13   C15   A    
C3    I5    S    
C14   C16   A    
C16   H18   S    
C37   C45   A    
C21   H3    S    
C22   H4    S    
C15   C17   A    
C21   C25   A    
C6    C46   A    
C25   I1    S    
C40   I3    S    
C10   H16   S    
C39   I4    S    
C23   O7    A    
C3    C5    A    
C26   I2    S    
C27   H5    S    
C26   N2    A    
C28   C30   A    
C37   C39   A    
C38   C40   A    
C11   C13   A    
C24   O6    A    
C5    C45   A    
C17   C19   S    
C18   C20   S    
C35   C41   A    
O7    Zn2   S    
C1    O1    A    
C38   C46   A    
C27   N1    A    
C16   C18   A    
C22   C26   A    
C13   I7    S    
O5    Zn1   S    
C2    O2    A    
C43   C47   A    
O3    Zn2   S    
C44   C48   A    
C8    H14   S    
C4    C47   A    
