data_mof_unit_65416.cif
_audit_creation_date              2013-03-05T16:47:48-0500
_audit_creation_method            fapswitch 2.2
_symmetry_space_group_name_H-M    P1
_symmetry_Int_Tables_number       1
_space_group_crystal_system       triclinic
_cell_length_a                    22.282112
_cell_length_b                    22.304118
_cell_length_c                    22.218637
_cell_angle_alpha                 108.058721
_cell_angle_beta                  110.228578
_cell_angle_gamma                 110.248946
_cell_volume                      8484.41612019

loop_
_atom_site_label
_atom_site_type_symbol
_atom_site_description
_atom_site_fract_x
_atom_site_fract_y
_atom_site_fract_z
_atom_type_partial_charge
Zn1   Zn    Zn3+2 0.438420 0.731820 0.293400 1.023170
Zn2   Zn    Zn3+2 0.561580 0.268180 0.706600 1.023115
Zn3   Zn    Zn3+2 0.561600 0.855040 0.293450 1.030556
Zn4   Zn    Zn3+2 0.438400 0.144960 0.706550 1.030414
Zn5   Zn    Zn3+2 0.438510 0.706680 0.145100 1.034265
Zn6   Zn    Zn3+2 0.561490 0.293320 0.854900 1.034183
Zn7   Zn    Zn3+2 0.561670 0.706730 0.268320 1.092270
Zn8   Zn    Zn3+2 0.438330 0.293270 0.731680 1.092343
O1    O     O_3   0.500050 0.750060 0.250070 -0.521935
O2    O     O_3   0.499950 0.249940 0.749930 -0.521951
O3    O     O_R   0.664480 0.780430 0.323540 -0.594849
O4    O     O_R   0.335520 0.219570 0.676460 -0.594882
O5    O     O_R   0.335610 0.676590 0.219700 -0.623746
O6    O     O_R   0.664390 0.323410 0.780300 -0.623701
O7    O     O_R   0.543050 0.908950 0.365840 -0.638857
O8    O     O_R   0.456950 0.091050 0.634160 -0.638843
O9    O     O_R   0.457060 0.634290 0.091200 -0.654949
O10   O     O_R   0.542940 0.365710 0.908800 -0.654891
O11   O     O_R   0.543140 0.884190 0.219790 -0.622212
O12   O     O_R   0.456860 0.115810 0.780210 -0.622259
O13   O     O_R   0.543170 0.659080 0.323490 -0.621952
O14   O     O_R   0.456830 0.340920 0.676510 -0.621798
O15   O     O_R   0.456990 0.780350 0.115960 -0.610865
O16   O     O_R   0.543010 0.219650 0.884040 -0.610694
O17   O     O_R   0.456900 0.676640 0.341050 -0.617727
O18   O     O_R   0.543100 0.323360 0.658950 -0.617713
O19   O     O_R   0.456830 0.822700 0.365800 -0.645808
O20   O     O_R   0.543170 0.177300 0.634200 -0.645817
O21   O     O_R   0.543260 0.634320 0.177440 -0.585697
O22   O     O_R   0.456740 0.365680 0.822560 -0.585470
O23   O     O_R   0.664430 0.884240 0.341140 -0.634926
O24   O     O_R   0.335570 0.115760 0.658860 -0.634926
O25   O     O_R   0.335680 0.659000 0.115900 -0.638100
O26   O     O_R   0.664320 0.341000 0.884100 -0.638179
C1    C     C_R   0.699529 0.849904 0.349876 0.831580
C2    C     C_R   0.300470 0.150096 0.650123 0.831341
C3    C     C_R   0.300525 0.650156 0.150135 0.836736
C4    C     C_R   0.699476 0.349844 0.849864 0.836628
C5    C     C_R   0.499433 0.890030 0.390093 0.840543
C6    C     C_R   0.500560 0.109970 0.609899 0.840425
C7    C     C_R   0.500341 0.610301 0.109560 0.908440
C8    C     C_R   0.499701 0.389750 0.890442 0.907659
C9    C     C_R   0.499969 0.849725 0.150167 0.841030
C10   C     C_R   0.500031 0.150275 0.849833 0.840977
C11   C     C_R   0.499993 0.650382 0.349781 0.827753
C12   C     C_R   0.500006 0.349617 0.650218 0.827731
C13   C     C_3   0.476591 0.431741 0.455023 0.248028
C14   C     C_3   0.523400 0.568248 0.544968 0.247968
C15   C     C_3   0.431147 0.469821 0.444518 0.374312
C16   C     C_3   0.568843 0.530169 0.555473 0.374361
H1    H     H_    0.416723 0.503225 0.549360 0.241133
H2    H     H_    0.583266 0.496765 0.450630 0.241087
C17   C     C_1   0.500011 0.610943 0.389512 -0.030383
C18   C     C_1   0.499985 0.389052 0.610484 -0.030185
C19   C     C_3   0.546071 0.498605 0.473025 -0.320737
C20   C     C_3   0.453920 0.501384 0.526965 -0.320732
C21   C     C_3   0.500360 0.537406 0.463536 -0.134410
C22   C     C_3   0.499630 0.462584 0.536455 -0.134417
C23   C     C_1   0.500152 0.577774 0.422968 0.187391
C24   C     C_1   0.499841 0.422218 0.577025 0.187533
C25   C     C_3   0.975550 0.451056 0.020749 0.395189
C26   C     C_3   0.024455 0.548931 0.979208 0.395164
C27   C     C_3   0.024534 0.452540 0.985316 -0.326022
C28   C     C_3   0.975471 0.547447 0.014640 -0.325947
H3    H     H_    0.044922 0.413883 0.973445 0.239213
H4    H     H_    0.955085 0.586106 0.026511 0.239221
C29   C     C_1   0.221246 0.610357 0.110319 -0.070389
C30   C     C_1   0.778756 0.389640 0.889672 -0.070421
C31   C     C_3   0.025143 0.534452 0.071817 0.401153
C32   C     C_3   0.974861 0.465534 0.928139 0.401079
C33   C     C_3   0.073497 0.536363 0.036408 -0.154013
C34   C     C_3   0.926507 0.463623 0.963549 -0.153957
C35   C     C_1   0.154547 0.576920 0.076955 0.189985
C36   C     C_1   0.845456 0.423071 0.923019 0.189985
C37   C     C_R   0.246199 0.474989 0.946015 -0.286516
C38   C     C_R   0.753989 0.525176 0.053981 -0.286493
H5    H     H_    0.202265 0.442217 0.952239 0.236794
H6    H     H_    0.797978 0.557997 0.047847 0.236843
C39   C     C_R   0.311247 0.471871 0.969182 0.351467
C40   C     C_R   0.688983 0.528372 0.030849 0.351369
C41   C     C_R   0.368397 0.512557 0.960204 -0.087313
C42   C     C_R   0.631769 0.487640 0.039731 -0.086789
C43   C     C_R   0.360401 0.557864 0.929427 0.343396
C44   C     C_R   0.639658 0.442202 0.070362 0.343609
C45   C     C_R   0.295047 0.561549 0.906905 0.300557
C46   C     C_R   0.704958 0.438417 0.092818 0.300721
C47   C     C_R   0.236563 0.518403 0.913571 0.170395
C48   C     C_R   0.763515 0.481622 0.086272 0.170438
C49   C     C_R   0.435687 0.451243 0.929937 0.305414
C50   C     C_R   0.564575 0.549138 0.070003 0.305264
C51   C     C_R   0.499603 0.444994 0.947325 -0.191838
C52   C     C_R   0.500566 0.555224 0.052662 -0.191783
C53   C     C_R   0.563727 0.493280 0.018220 -0.000058
C54   C     C_R   0.436478 0.506984 0.981756 0.000008
C55   C     C_3   0.024868 0.972747 0.543077 -0.235140
C56   C     C_3   0.975131 0.027251 0.456918 -0.235068
C57   C     C_3   0.975462 0.006909 0.547995 -0.238364
C58   C     C_3   0.024538 0.993089 0.452000 -0.238333
H7    H     H_    0.954738 0.012845 0.587058 0.206529
H8    H     H_    0.045262 0.987153 0.412937 0.206529
H9    H     H_    0.045864 0.950263 0.578210 0.207097
H10   H     H_    0.954135 0.049736 0.421785 0.207111
C59   C     C_1   0.778911 0.889684 0.389598 -0.062627
C60   C     C_1   0.221089 0.110316 0.610400 -0.062688
C61   C     C_3   0.975231 0.929830 0.458539 0.474277
C62   C     C_3   0.024769 0.070168 0.541457 0.474270
C63   C     C_3   0.926773 0.963714 0.463553 0.005647
C64   C     C_3   0.073227 0.036284 0.536443 0.005650
C65   C     C_1   0.845669 0.923142 0.423003 0.076251
C66   C     C_1   0.154331 0.076857 0.576993 0.076211
C67   C     C_3   0.464260 0.036350 0.011782 -0.229772
C68   C     C_3   0.535741 0.963649 0.988218 -0.229756
C69   C     C_3   0.429287 0.951878 0.976461 -0.225702
C70   C     C_3   0.570714 0.048121 0.023538 -0.225667
H11   H     H_    0.371287 0.911634 0.956961 0.215225
H12   H     H_    0.628714 0.088365 0.043038 0.215241
H13   H     H_    0.435554 0.067010 0.021713 0.213392
H14   H     H_    0.564448 0.932989 0.978286 0.213415
C71   C     C_1   0.499772 0.889142 0.110204 -0.060924
C72   C     C_1   0.500229 0.110858 0.889795 -0.060867
C73   C     C_3   0.534271 0.046240 0.071237 0.471156
C74   C     C_3   0.465730 0.953760 0.928762 0.471141
C75   C     C_3   0.499743 0.962999 0.036211 -0.002340
C76   C     C_3   0.500258 0.037000 0.963788 -0.002351
C77   C     C_1   0.499698 0.922403 0.076717 0.087779
C78   C     C_1   0.500302 0.077597 0.923282 0.087785
C79   C     C_R   0.269498 0.741484 0.346793 -0.254660
C80   C     C_R   0.730503 0.258494 0.652968 -0.254700
H15   H     H_    0.216326 0.715277 0.297461 0.245617
H16   H     H_    0.783750 0.284679 0.702203 0.245741
C81   C     C_R   0.320367 0.815622 0.377094 0.379110
C82   C     C_R   0.679651 0.184357 0.622694 0.379013
C83   C     C_R   0.389952 0.849572 0.440679 -0.037815
C84   C     C_R   0.609973 0.150434 0.559235 -0.037871
C85   C     C_R   0.407176 0.808847 0.473675 -0.288769
C86   C     C_R   0.592638 0.191187 0.526335 -0.288519
H17   H     H_    0.460922 0.834483 0.522182 0.215199
H18   H     H_    0.538822 0.165573 0.477927 0.215126
C87   C     C_R   0.356413 0.734545 0.442891 0.393907
C88   C     C_R   0.643385 0.265489 0.557096 0.393942
C89   C     C_R   0.287302 0.700688 0.379073 0.352917
C90   C     C_R   0.712590 0.299318 0.620789 0.352878
C91   C     C_R   0.449525 0.980981 0.523967 -0.175720
C92   C     C_R   0.550444 0.019021 0.475999 -0.175463
H19   H     H_    0.409861 0.965612 0.541907 0.189649
H20   H     H_    0.590109 0.034391 0.458058 0.189655
C93   C     C_R   0.501492 0.054729 0.553950 -0.061421
C94   C     C_R   0.498481 0.945273 0.446020 -0.061319
C95   C     C_R   0.552732 0.073883 0.529596 0.097939
C96   C     C_R   0.447226 0.926120 0.470357 0.097949
Cl1   Cl    Cl    0.339564 0.428939 0.370151 -0.391747
Cl2   Cl    Cl    0.660427 0.571050 0.629839 -0.391707
Cl3   Cl    Cl    0.433064 0.610722 0.919876 -0.417235
Cl4   Cl    Cl    0.566933 0.389315 0.079826 -0.417894
Cl5   Cl    Cl    0.289231 0.623324 0.874221 -0.348236
Cl6   Cl    Cl    0.710610 0.376445 0.125258 -0.348557
N1    N     N_R   0.368047 0.398453 0.860819 0.228518
O27   O     O_R   0.340809 0.418244 0.813689 -0.301754
O28   O     O_R   0.333360 0.330518 0.845278 -0.321661
N2    N     N_R   0.632341 0.602276 0.138941 0.229140
O29   O     O_R   0.660638 0.582723 0.185877 -0.302584
O30   O     O_R   0.666169 0.670298 0.154478 -0.322198
Cl7   Cl    Cl    0.058591 0.164465 0.597337 -0.455062
Cl8   Cl    Cl    0.941408 0.835533 0.402658 -0.454958
Cl9   Cl    Cl    0.419821 0.892068 0.833050 -0.459713
Cl10  Cl    Cl    0.580180 0.107931 0.166949 -0.459772
Cl11  Cl    Cl    0.222453 0.607180 0.337930 -0.352900
Cl12  Cl    Cl    0.777425 0.392825 0.661901 -0.352936
N3    N     N_R   0.450115 0.356497 0.403920 0.269469
O31   O     O_R   0.433430 0.337904 0.336257 -0.263630
O32   O     O_R   0.443504 0.307794 0.425447 -0.315959
N4    N     N_R   0.549874 0.643493 0.596071 0.269444
O33   O     O_R   0.566566 0.662086 0.663735 -0.263549
O34   O     O_R   0.556468 0.692191 0.574539 -0.316070
Cl13  Cl    Cl    0.296473 0.864025 0.333087 -0.534452
Cl14  Cl    Cl    0.703688 0.135918 0.666578 -0.534289
Cl15  Cl    Cl    0.381538 0.684811 0.484249 -0.404540
Cl16  Cl    Cl    0.618124 0.315260 0.515874 -0.404876
Cl17  Cl    Cl    0.942425 0.385666 0.048383 -0.372682
Cl18  Cl    Cl    0.057582 0.614322 0.951576 -0.372701
Cl19  Cl    Cl    0.940352 0.419393 0.831904 -0.390848
Cl20  Cl    Cl    0.059657 0.580596 0.168052 -0.390776
N5    N     N_R   0.167261 0.517515 0.887596 0.276483
O35   O     O_R   0.125321 0.498529 0.914728 -0.358280
O36   O     O_R   0.140516 0.524967 0.830025 -0.197240
N6    N     N_R   0.832785 0.482445 0.112235 0.276452
O37   O     O_R   0.874841 0.501609 0.085262 -0.358385
O38   O     O_R   0.859405 0.474782 0.169684 -0.197176
Cl21  Cl    Cl    0.319342 0.415739 0.008729 -0.484069
Cl22  Cl    Cl    0.681031 0.584670 0.991485 -0.483649

loop_
_geom_bond_atom_site_label_1
_geom_bond_atom_site_label_2
_geom_bond_distance
_ccdc_geom_bond_type
C68   H14   1.110095 S    
C27   H3    1.110123 S    
N1    O27   1.300876 A    
Zn7   O21   1.949531 S    
C56   H10   1.110086 S    
C67   C73   1.543820 S    
C63   C65   1.460505 S    
N3    O31   1.300215 A    
C14   C20   1.544230 S    
C86   C88   1.399421 A    
C68   C70   1.554667 S    
C17   C23   1.200347 T    
C15   C21   1.540951 S    
C14   C21   1.533610 S    
C13   C15   1.534904 S    
C18   C24   1.200343 T    
C91   C93   1.399655 A    
C73   Cl10  1.780254 S    
C61   C63   1.531423 S    
C58   C61   1.543800 S    
C62   C64   1.531425 S    
C87   Cl15  1.759084 S    
O24   C2    1.279694 A    
C76   C78   1.461206 S    
C93   C95   1.418386 A    
C38   H6    1.082930 S    
O4    C2    1.279693 A    
C8    C51   1.467607 S    
C1    C59   1.429478 S    
N5    O36   1.300853 A    
C26   Cl18  1.781095 S    
Zn8   O2    1.939093 S    
C72   C78   1.202559 T    
C75   C77   1.461208 S    
O6    C4    1.275973 A    
O20   C6    1.266496 A    
C30   C36   1.201111 T    
C58   C64   1.540626 S    
C26   C32   1.539510 S    
C91   H19   1.084500 S    
H1    C20   1.110083 S    
C79   C89   1.399076 A    
C81   Cl13  1.759917 S    
C49   C54   1.398181 A    
C31   C33   1.535187 S    
C46   Cl6   1.766733 S    
C26   C28   1.548390 S    
C55   C61   1.543848 S    
C57   H7    1.110091 S    
C14   N4    1.457344 S    
C70   C73   1.543843 S    
C44   Cl4   1.768580 S    
O3    C1    1.279690 A    
C91   C96   1.389054 A    
C69   C74   1.543845 S    
N4    O34   1.300225 A    
Zn5   O25   1.912946 S    
C5    C94   1.466215 S    
C88   Cl16  1.759084 S    
Zn3   O11   1.910425 S    
C29   C35   1.201099 T    
C20   C22   1.550969 S    
C49   C51   1.409703 A    
C38   C48   1.404636 A    
O5    C3    1.275988 A    
H2    C19   1.110079 S    
C92   C94   1.399650 A    
C31   Cl20  1.781371 S    
C70   C76   1.540640 S    
C14   C16   1.534898 S    
C59   C65   1.202164 T    
C11   C17   1.426360 S    
C69   C75   1.540639 S    
N1    O28   1.301132 A    
C74   Cl9   1.780255 S    
Zn1   O17   1.913721 S    
N3    O32   1.300226 A    
C80   C82   1.398951 A    
C13   N3    1.457345 S    
O11   C9    1.277146 A    
O13   C11   1.278348 A    
C45   C47   1.414208 A    
C50   C52   1.409797 A    
Zn6   O10   1.953821 S    
C89   Cl11  1.758366 S    
O12   C10   1.277146 A    
C9    C71   1.430132 S    
C15   Cl1   1.781034 S    
C16   C22   1.540953 S    
Zn1   O1    1.936112 S    
C68   C75   1.540677 S    
C34   C36   1.459555 S    
C55   C64   1.540599 S    
O19   C5    1.266504 A    
C39   C41   1.404599 A    
Zn2   O20   1.952234 S    
C84   C86   1.403373 A    
Zn7   O13   1.912044 S    
C84   C95   1.479965 S    
O25   C3    1.276416 A    
Zn6   O26   1.912948 S    
C56   C58   1.554559 S    
C28   H4    1.110123 S    
Zn4   O8    1.951501 S    
O9    C7    1.266170 A    
Zn7   O3    1.911719 S    
N5    O35   1.299986 A    
C79   H15   1.082663 S    
Zn5   O1    1.930543 S    
C92   C95   1.389054 A    
Zn3   O1    1.938122 S    
C16   Cl2   1.781033 S    
C51   C53   1.417493 A    
C92   H20   1.084502 S    
C32   Cl19  1.781368 S    
Zn8   O14   1.912044 S    
Zn5   O15   1.914228 S    
C27   C32   1.549498 S    
Zn8   O4    1.911717 S    
Zn6   O16   1.914229 S    
C12   C18   1.426356 S    
C52   C54   1.417262 A    
C86   H18   1.083553 S    
C61   Cl8   1.780388 S    
Zn2   O18   1.913721 S    
C45   Cl5   1.766769 S    
C62   Cl7   1.780387 S    
Zn3   O23   1.912359 S    
C37   H5    1.082925 S    
O7    C5    1.277604 A    
C27   C33   1.546011 S    
O8    C6    1.277615 A    
C57   C62   1.543802 S    
C71   C77   1.202557 T    
C25   C34   1.536363 S    
C37   C47   1.404628 A    
O14   C12   1.278344 A    
C56   C63   1.540599 S    
C4    C30   1.427661 S    
C67   C69   1.554667 S    
C25   Cl17  1.781096 S    
C58   H8    1.110095 S    
C19   C21   1.550970 S    
C82   Cl14  1.759916 S    
O16   C10   1.277052 A    
O23   C1    1.279693 A    
Zn1   O5    1.910157 S    
N6    O38   1.300856 A    
Zn2   O2    1.936112 S    
O17   C11   1.278083 A    
C74   C76   1.531649 S    
Zn3   O7    1.951500 S    
N4    O33   1.300220 A    
C50   C53   1.398659 A    
C13   C19   1.544233 S    
C25   C31   1.539499 S    
C85   H17   1.083556 S    
C56   C62   1.543848 S    
C47   N5    1.439938 S    
C6    C93   1.466221 S    
C43   C45   1.407909 A    
C67   C76   1.540677 S    
O26   C4    1.276440 A    
O15   C9    1.277050 A    
C40   Cl22  1.760901 S    
C25   C27   1.548395 S    
O22   C8    1.274057 A    
C83   C96   1.479959 S    
C38   C40   1.395245 A    
Zn4   O2    1.938120 S    
C94   C96   1.418380 A    
C81   C83   1.408066 A    
C80   H16   1.082659 S    
C41   C43   1.410430 A    
C70   H12   1.110092 S    
C55   C57   1.554559 S    
C49   N1    1.437462 S    
C43   Cl3   1.768563 S    
Zn4   O12   1.910428 S    
C15   C20   1.555390 S    
C28   C31   1.549487 S    
C68   C74   1.543820 S    
C85   C87   1.399423 A    
C42   C44   1.410449 A    
C16   C19   1.555392 S    
C2    C60   1.429478 S    
C67   H13   1.110094 S    
Zn8   O22   1.949529 S    
N2    O29   1.301086 A    
O10   C8    1.266318 A    
Zn1   O19   1.952236 S    
C37   C39   1.395202 A    
C13   C22   1.533609 S    
C60   C66   1.202166 T    
C41   C54   1.486989 S    
C87   C89   1.404787 A    
C80   C90   1.399078 A    
C3    C29   1.427635 S    
C48   N6    1.439983 S    
C40   C42   1.404616 A    
C64   C66   1.460505 S    
C26   C33   1.536357 S    
C46   C48   1.414215 A    
C28   C34   1.546018 S    
C50   N2    1.437759 S    
Zn2   O6    1.910156 S    
C79   C81   1.398948 A    
C73   C75   1.531649 S    
C21   C23   1.458187 S    
Zn6   O2    1.930543 S    
O18   C12   1.278083 A    
C90   Cl12  1.758369 S    
Zn4   O24   1.912360 S    
C57   C63   1.540626 S    
Zn7   O1    1.939091 S    
C7    C52   1.467349 S    
Zn5   O9    1.953821 S    
C82   C84   1.408052 A    
C39   Cl21  1.760909 S    
C33   C35   1.459531 S    
C42   C53   1.486978 S    
C83   C85   1.403358 A    
C10   C72   1.430131 S    
O21   C7    1.274064 A    
C44   C46   1.407934 A    
C32   C34   1.535205 S    
C88   C90   1.404782 A    
N6    O37   1.299982 A    
C22   C24   1.458185 S    
C55   H9    1.110087 S    
N2    O30   1.301118 A    
C69   H11   1.110093 S    
