data_mof_unit_62436.cif
_audit_creation_date              2012-12-10T17:25:15-0500
_audit_creation_method            fapswitch 2.2
_symmetry_space_group_name_H-M    P1
_symmetry_Int_Tables_number       1
_space_group_crystal_system       triclinic
_cell_length_a                    18.796555
_cell_length_b                    18.787922
_cell_length_c                    18.78757
_cell_angle_alpha                 109.507924
_cell_angle_beta                  109.416805
_cell_angle_gamma                 109.467306
_cell_volume                      5108.8292037

loop_
_atom_site_label
_atom_site_type_symbol
_atom_type_description
_atom_site_fract_x
_atom_site_fract_y
_atom_site_fract_z
_atom_type_partial_charge
C1    C     C_R   0.619137 0.619073 0.500128 0.810169
C2    C     C_R   0.194446 0.169123 0.211811 -0.118305
C3    C     C_R   0.175999 0.422381 0.179849 -0.209045
C4    C     C_R   0.185585 0.502419 0.188437 -0.074466
C5    C     C_R   0.258850 0.581309 0.260927 0.011894
C6    C     C_R   0.321467 0.578106 0.323376 -0.229363
C7    C     C_R   0.312225 0.498082 0.314322 -0.064148
C8    C     C_R   0.239019 0.419311 0.241966 0.007614
C9    C     C_R   0.342525 0.726825 0.278459 -0.176480
C10   C     C_R   0.355328 0.809838 0.295015 0.037502
C11   C     C_R   0.296639 0.834413 0.309581 -0.148820
C12   C     C_R   0.380083 0.498893 0.381109 0.800451
C13   C     C_R   0.225398 0.776196 0.307505 -0.133281
C14   C     C_R   0.211937 0.692969 0.290053 -0.133290
C15   C     C_R   0.270447 0.667776 0.275363 0.105655
C16   C     C_R   0.744119 0.768210 0.576532 -0.191428
C17   C     C_R   0.808896 0.832967 0.577696 -0.019399
C18   C     C_R   0.814673 0.815895 0.501563 -0.044045
C19   C     C_R   0.756315 0.734768 0.425566 -0.189330
C20   C     C_R   0.693033 0.669848 0.425351 -0.170553
C21   C     C_R   0.686471 0.686473 0.500664 -0.030633
C22   C     C_R   0.672396 0.486412 0.749149 -0.265881
C23   C     C_R   0.380585 0.381105 0.499611 0.854703
C24   C     C_R   0.735330 0.484397 0.812153 -0.170553
C25   C     C_R   0.814163 0.499917 0.813659 -0.083207
C26   C     C_R   0.829160 0.515939 0.750880 -0.261174
C27   C     C_R   0.764249 0.513493 0.684481 0.494617
C28   C     C_R   0.686589 0.500722 0.685416 -0.099285
C29   C     C_R   0.245588 0.325313 0.508104 0.491652
C30   C     C_R   0.179838 0.257906 0.503577 -0.375060
C31   C     C_R   0.185754 0.184418 0.498799 -0.171635
C32   C     C_R   0.255809 0.175383 0.494968 0.497566
C33   C     C_R   0.317684 0.239339 0.492049 -0.356812
C34   C     C_R   0.619150 0.500295 0.618834 0.836456
C35   C     C_R   0.313472 0.314382 0.499839 -0.182658
C36   C     C_R   0.999721 0.618928 0.118615 0.781013
C37   C     C_R   0.118865 0.501326 0.120166 0.795112
C38   C     C_R   0.000157 0.380985 0.881120 0.812858
C39   C     C_R   0.881061 0.500047 0.880989 0.805492
C40   C     C_R   0.000112 0.881171 0.381020 0.786138
C41   C     C_R   0.881277 0.881485 0.500235 0.775325
C42   C     C_R   0.000077 0.118755 0.618748 0.830021
C43   C     C_R   0.118842 0.117979 0.499149 0.870834
C44   C     C_R   0.006448 0.760897 0.181638 -0.182467
C45   C     C_R   0.217197 0.194521 0.157078 -0.167874
C46   C     C_R   0.005337 0.824476 0.245205 -0.164493
C47   C     C_R   0.000140 0.814384 0.314145 -0.003457
C48   C     C_R   0.994700 0.740109 0.318818 -0.187989
C49   C     C_R   0.992722 0.675113 0.253633 -0.193041
C50   C     C_R   0.999356 0.685761 0.185348 -0.020574
C51   C     C_R   0.078350 0.328570 0.813736 -0.246125
C52   C     C_R   0.079007 0.264845 0.749400 0.508884
C53   C     C_R   0.000867 0.186265 0.685628 -0.104588
C54   C     C_R   0.922920 0.172406 0.685438 -0.233462
C55   C     C_R   0.922850 0.235726 0.750172 -0.170056
C56   C     C_R   0.232136 0.276078 0.165982 0.032829
C57   C     C_R   0.000431 0.314094 0.814164 -0.092914
C58   C     C_R   0.224907 0.333035 0.231171 0.057089
C59   C     C_R   0.202106 0.306746 0.285827 -0.152743
C60   C     C_R   0.186538 0.224957 0.275783 -0.110920
Cu1   Cu    Cu3+1 0.500020 0.438210 0.438220 0.971079
Cu2   Cu    Cu3+1 0.499980 0.561790 0.561780 0.968371
Cu3   Cu    Cu3+1 0.938210 0.438200 0.999980 0.952681
Cu4   Cu    Cu3+1 0.061840 0.561770 0.999960 0.963884
Cu5   Cu    Cu3+1 0.061800 0.999890 0.561700 1.005961
Cu6   Cu    Cu3+1 0.938200 0.999930 0.438120 0.961742
H1    H     H_    0.182665 0.105952 0.204446 0.137442
H2    H     H_    0.306215 0.898640 0.323004 0.141126
H3    H     H_    0.180956 0.795947 0.320016 0.160715
H4    H     H_    0.156745 0.648644 0.289150 0.109519
H5    H     H_    0.739181 0.781181 0.634940 0.154858
H6    H     H_    0.760636 0.721449 0.366856 0.139281
H7    H     H_    0.648515 0.607197 0.366125 0.152353
H8    H     H_    0.612049 0.475495 0.749193 0.154784
H9    H     H_    0.723265 0.472552 0.860735 0.158692
H10   H     H_    0.890798 0.529604 0.753042 0.157195
H11   H     H_    0.222965 0.150436 0.107619 0.138687
H12   H     H_    0.124406 0.263041 0.504461 0.170127
H13   H     H_    0.369393 0.230830 0.484305 0.177071
H14   H     H_    0.011472 0.769597 0.128993 0.147034
H15   H     H_    0.009975 0.882062 0.241524 0.142506
H16   H     H_    0.990475 0.731900 0.371951 0.140777
H17   H     H_    0.987902 0.617521 0.257380 0.144125
H18   H     H_    0.138743 0.388688 0.863713 0.165904
H19   H     H_    0.862571 0.112002 0.636055 0.162019
H20   H     H_    0.862176 0.224075 0.749668 0.158425
H21   H     H_    0.195691 0.349405 0.335697 0.164690
H22   H     H_    0.168082 0.204650 0.317445 0.146759
H23   H     H_    0.119475 0.361947 0.124076 0.154211
H24   H     H_    0.377855 0.638427 0.379460 0.150747
H25   H     H_    0.388319 0.708001 0.267839 0.134427
O1    O     O_R   0.590200 0.537990 0.447840 -0.581327
O2    O     O_R   0.052220 0.642350 0.090110 -0.579087
O3    O     O_R   0.038000 0.447810 0.090170 -0.588877
O4    O     O_R   0.142390 0.552170 0.090150 -0.571500
O5    O     O_R   0.947830 0.357620 0.909840 -0.583908
O6    O     O_R   0.052230 0.461980 0.909820 -0.591395
O7    O     O_R   0.857660 0.447800 0.909790 -0.589668
O8    O     O_R   0.962050 0.552160 0.909780 -0.587117
O9    O     O_R   0.052180 0.909730 0.461910 -0.581940
O10   O     O_R   0.947800 0.909770 0.357550 -0.588934
O11   O     O_R   0.962000 0.909720 0.552080 -0.581506
O12   O     O_R   0.590170 0.642360 0.552180 -0.594575
O13   O     O_R   0.857620 0.909750 0.447720 -0.583672
O14   O     O_R   0.052200 0.090060 0.642270 -0.541108
O15   O     O_R   0.947820 0.090090 0.537910 -0.603131
O16   O     O_R   0.142380 0.090070 0.552100 -0.555898
O17   O     O_R   0.038000 0.090100 0.447740 -0.598949
O18   O     O_R   0.409840 0.447810 0.357640 -0.581142
O19   O     O_R   0.409810 0.552180 0.461990 -0.580787
O20   O     O_R   0.409830 0.357640 0.447820 -0.591780
O21   O     O_R   0.409800 0.462010 0.552160 -0.559878
O22   O     O_R   0.590190 0.447820 0.538010 -0.575169
O23   O     O_R   0.590160 0.552190 0.642360 -0.593726
O24   O     O_R   0.947830 0.537990 0.090130 -0.588230
C61   C     C_1   0.866985 0.916892 0.656498 0.219833
N1    N     N_1   0.913499 0.984156 0.719529 -0.270806
O25   O     O_3   0.779268 0.532236 0.623825 -0.580410
C62   C     C_3   0.783858 0.463905 0.568025 -0.291445
H26   H     H_    0.784706 0.474088 0.513388 0.193382
H27   H     H_    0.725960 0.399221 0.539213 0.160417
H28   H     H_    0.844836 0.464041 0.602349 0.149985
O26   O     O_3   0.239200 0.397398 0.510601 -0.576679
C63   C     C_3   0.244015 0.445660 0.589628 -0.290681
H29   H     H_    0.300040 0.457979 0.647077 0.152402
H30   H     H_    0.182142 0.412815 0.588670 0.145373
H31   H     H_    0.254120 0.510026 0.597404 0.190460
O27   O     O_3   0.257428 0.099391 0.484083 -0.579313
C64   C     C_3   0.331030 0.119030 0.557036 -0.286756
H32   H     H_    0.325023 0.056930 0.553257 0.188562
H33   H     H_    0.335213 0.158017 0.619377 0.164107
H34   H     H_    0.391953 0.153247 0.557003 0.150514
C65   C     C_1   0.255738 0.300539 0.108584 0.221194
N2    N     N_1   0.274614 0.320223 0.062589 -0.262685
O28   O     O_3   0.156394 0.278025 0.750633 -0.560501
C66   C     C_3   0.172845 0.327115 0.709520 -0.351488
H35   H     H_    0.118092 0.294336 0.641833 0.138350
H36   H     H_    0.231832 0.332977 0.705286 0.197500
H37   H     H_    0.185845 0.394167 0.747943 0.161784
C67   C     C_1   0.429071 0.870020 0.297741 0.209683
N3    N     N_1   0.488366 0.918404 0.299942 -0.280991

loop_
_geom_bond_atom_site_label_1
_geom_bond_atom_site_label_2
_ccdc_geom_bond_type
C40   C47   S    
C1    C21   S    
C16   C21   A    
O26   C63   S    
C19   C20   A    
Cu1   O18   S    
O27   C64   S    
C9    H25   S    
C12   O19   A    
C56   C65   S    
C60   H22   S    
O28   C66   S    
C53   C54   A    
C52   C53   A    
C34   O22   A    
C23   O21   A    
Cu3   O3    S    
C26   C27   A    
C31   C43   S    
Cu4   O2    S    
Cu2   O23   S    
Cu3   O7    S    
C66   H37   S    
C42   C53   S    
C5    C6    A    
C2    C60   A    
C27   O25   S    
C46   H15   S    
C41   O11   A    
C37   O4    A    
C18   C19   A    
O25   C62   S    
C8    C58   S    
C40   O10   A    
C54   C55   A    
C36   O2    A    
Cu4   O8    S    
C31   C32   A    
C45   C56   A    
C48   H16   S    
C16   C17   A    
C37   O3    A    
C26   H10   S    
C51   C57   A    
C9    C10   A    
C1    O12   A    
Cu1   O1    S    
C64   H34   S    
Cu3   O24   S    
C28   C34   S    
C59   C60   A    
C22   C28   A    
C13   C14   A    
C14   H4    S    
Cu6   O10   S    
C19   H6    S    
C16   H5    S    
C10   C67   S    
Cu5   O11   S    
Cu6   O15   S    
C38   O6    A    
Cu5   O14   S    
C12   O18   A    
C44   C46   A    
C4    C37   S    
C62   H27   S    
C2    C45   A    
C7    C12   S    
C51   C52   A    
Cu6   O13   S    
C44   H14   S    
C24   C25   A    
Cu5   O9    S    
C66   H36   S    
C3    C8    A    
C18   C41   S    
C64   H32   S    
C33   H13   S    
C39   O7    A    
C25   C26   A    
C6    H24   S    
Cu3   O5    S    
C29   C30   A    
C38   C57   S    
C39   O8    A    
C47   C48   A    
Cu2   O19   S    
C17   C18   A    
C43   O16   A    
C67   N3    T    
C42   O15   A    
C63   H31   S    
Cu4   O6    S    
C2    H1    S    
C1    O1    A    
C23   C35   S    
C55   C57   A    
Cu1   O22   S    
C65   N2    T    
C22   C24   A    
C22   H8    S    
C3    C4    A    
Cu1   O20   S    
C36   C50   S    
C11   H2    S    
C63   H30   S    
Cu2   O12   S    
C62   H28   S    
C44   C50   A    
C46   C47   A    
C48   C49   A    
Cu4   O4    S    
Cu6   O17   S    
C66   H35   S    
C40   O9    A    
C54   H19   S    
C62   H26   S    
C24   H9    S    
C6    C7    A    
C34   O23   A    
C23   O20   A    
C29   C35   A    
C41   O13   A    
C3    H23   S    
C32   C33   A    
C49   H17   S    
C55   H20   S    
C58   C59   A    
C25   C39   S    
C11   C13   A    
C32   O27   S    
C30   C31   A    
C13   H3    S    
C61   N1    T    
C29   O26   S    
C33   C35   A    
C56   C58   A    
C20   H7    S    
C43   O17   A    
Cu5   Cu6   S    
C9    C15   A    
Cu1   Cu2   S    
C42   O14   A    
C59   H21   S    
C5    C15   S    
C7    C8    A    
C10   C11   A    
Cu3   Cu4   S    
C30   H12   S    
C4    C5    A    
Cu2   O21   S    
C20   C21   A    
C49   C50   A    
C38   O5    A    
C27   C28   A    
C52   O28   S    
C14   C15   A    
C45   H11   S    
C36   O24   A    
C51   H18   S    
Cu5   O16   S    
C17   C61   S    
C63   H29   S    
C64   H33   S    
