data_mof_unit_23473.cif
_audit_creation_date              2012-10-26T19:32:18-0400
_audit_creation_method            fapswitch 2.2
_symmetry_space_group_name_H-M    P1
_symmetry_Int_Tables_number       1
_space_group_crystal_system       triclinic
_cell_length_a                    15.0869
_cell_length_b                    13.861599
_cell_length_c                    15.876561
_cell_angle_alpha                 89.70222
_cell_angle_beta                  90.688251
_cell_angle_gamma                 89.859334
_cell_volume                      3319.94740319

loop_
_atom_site_label
_atom_site_type_symbol
_atom_type_description
_atom_site_fract_x
_atom_site_fract_y
_atom_site_fract_z
_atom_type_partial_charge
C1    C     C_R   0.330288 0.500061 0.500474 0.539969
C2    C     C_R   0.185766 0.464005 0.435250 -0.132244
C3    C     C_R   0.234680 0.499989 0.503359 0.027206
C4    C     C_R   0.050651 0.498318 0.509804 0.028805
C5    C     C_R   0.906480 0.410525 0.503005 -0.019556
C6    C     C_R   0.906390 0.586408 0.519587 -0.017333
C7    C     C_R   0.499272 0.500252 0.340087 0.550464
C8    C     C_R   0.814045 0.412289 0.498801 -0.142077
C9    C     C_R   0.813914 0.585782 0.516446 -0.141284
C10   C     C_R   0.767527 0.499417 0.504957 -0.017415
C11   C     C_R   0.953337 0.498353 0.511971 0.008051
C12   C     C_3   0.580811 0.503029 0.951076 -0.231772
C13   C     C_R   0.543342 0.107645 0.564446 -0.143792
C14   C     C_R   0.568618 0.891609 0.539592 -0.141830
C15   C     C_R   0.543287 0.209128 0.562527 0.040622
C16   C     C_R   0.567096 0.790151 0.539106 0.046803
C17   C     C_R   0.456730 0.209751 0.437694 0.048191
C18   C     C_R   0.432596 0.791058 0.461592 0.046739
C19   C     C_R   0.456415 0.108306 0.436409 -0.142829
C20   C     C_R   0.430769 0.892512 0.461841 -0.142781
C21   C     C_R   0.499772 0.054714 0.500598 0.027225
C22   C     C_R   0.499700 0.945322 0.500748 0.026692
C23   C     C_3   0.583662 0.497531 0.047899 -0.228121
C24   C     C_R   0.670430 0.499869 0.501173 0.548062
C25   C     C_R   0.499682 0.499798 0.659771 0.547875
C26   C     C_3   0.445691 0.596508 0.049831 -0.204982
C27   C     C_3   0.433683 0.415706 0.050664 -0.196494
C28   C     C_3   0.439463 0.401137 0.951834 0.023865
C29   C     C_3   0.433493 0.597230 0.950205 0.020746
C30   C     C_1   0.494925 0.499480 0.748950 -0.070345
C31   C     C_3   0.488954 0.502135 0.082576 0.030200
C32   C     C_3   0.482688 0.500773 0.916214 0.067913
C33   C     C_R   0.334408 0.599345 0.920852 0.034532
C34   C     C_1   0.488979 0.499715 0.824211 -0.105057
C35   C     C_R   0.262367 0.573230 0.972897 -0.089608
C36   C     C_R   0.174771 0.580151 0.943655 -0.102215
C37   C     C_R   0.156230 0.613952 0.862591 -0.105280
C38   C     C_R   0.225301 0.640473 0.810092 -0.126240
C39   C     C_R   0.313078 0.632756 0.838312 -0.099950
C40   C     C_R   0.344480 0.371206 0.920783 0.027230
C41   C     C_R   0.299018 0.298629 0.966473 -0.102124
C42   C     C_R   0.215732 0.265336 0.940728 -0.114493
C43   C     C_R   0.176454 0.300711 0.867058 -0.105672
C44   C     C_R   0.221272 0.367931 0.818219 -0.104133
C45   C     C_1   0.492704 0.501695 0.174867 -0.082088
C46   C     C_R   0.304594 0.401518 0.843750 -0.080203
C47   C     C_R   0.499242 0.313013 0.927412 0.035685
C48   C     C_R   0.496685 0.278365 0.843465 -0.080918
C49   C     C_R   0.549205 0.200894 0.818222 -0.116532
C50   C     C_R   0.606291 0.155774 0.875536 -0.113069
C51   C     C_R   0.610202 0.187317 0.958525 -0.119109
C52   C     C_R   0.557560 0.264496 0.984534 -0.110642
C53   C     C_R   0.471278 0.697348 0.920997 0.021398
C54   C     C_R   0.536275 0.711650 0.858231 -0.103746
C55   C     C_R   0.561047 0.804380 0.832801 -0.115580
C56   C     C_1   0.496026 0.500975 0.250409 -0.041198
C57   C     C_R   0.521823 0.885237 0.868381 -0.101065
C58   C     C_R   0.457592 0.873839 0.929739 -0.109033
C59   C     C_R   0.432304 0.781519 0.955378 -0.100604
C60   C     C_R   0.952395 0.315850 0.498621 0.031683
C61   C     C_R   0.937578 0.254825 0.429484 -0.108113
C62   C     C_R   0.982595 0.166845 0.424014 -0.112528
C63   C     C_R   0.042332 0.138948 0.487554 -0.101832
C64   C     C_R   0.056527 0.198500 0.557152 -0.110913
C65   C     C_R   0.011564 0.286485 0.562958 -0.080069
C66   C     C_R   0.952054 0.680181 0.530517 0.031696
C67   C     C_R   0.100129 0.532498 0.578720 -0.117052
C68   C     C_R   0.938107 0.734637 0.603578 -0.112698
C69   C     C_R   0.983407 0.821383 0.615837 -0.114832
C70   C     C_R   0.042458 0.854603 0.555142 -0.101323
C71   C     C_R   0.055658 0.801649 0.481648 -0.112240
C72   C     C_R   0.010442 0.714860 0.469097 -0.079191
C73   C     C_R   0.093773 0.464432 0.437959 -0.112356
C74   C     C_R   0.192136 0.534400 0.574975 -0.131261
Cu1   Cu    Cu3+1 0.499990 0.596430 0.500000 0.931237
Cu2   Cu    Cu3+1 0.499990 0.403570 0.500000 0.929944
H1    H     H_    0.778409 0.344970 0.491517 0.134443
H2    H     H_    0.364420 0.430310 0.069443 0.104055
H3    H     H_    0.448577 0.349486 0.087330 0.093298
H4    H     H_    0.490626 0.655784 0.070616 0.120977
H5    H     H_    0.271166 0.545233 0.035639 0.088831
H6    H     H_    0.120951 0.558944 0.984194 0.100302
H7    H     H_    0.088288 0.619370 0.840367 0.100488
H8    H     H_    0.210854 0.667241 0.747278 0.107311
H9    H     H_    0.364643 0.653243 0.795024 0.128352
H10   H     H_    0.328282 0.266499 0.022501 0.094348
H11   H     H_    0.182074 0.211079 0.977652 0.100043
H12   H     H_    0.778243 0.653390 0.522109 0.125595
H13   H     H_    0.112054 0.274676 0.846965 0.099934
H14   H     H_    0.191752 0.393702 0.759769 0.106073
H15   H     H_    0.335802 0.450334 0.801270 0.117768
H16   H     H_    0.423229 0.072704 0.384496 0.084118
H17   H     H_    0.374767 0.928728 0.432481 0.083349
H18   H     H_    0.453257 0.310444 0.796566 0.124032
H19   H     H_    0.545450 0.175714 0.753936 0.096571
H20   H     H_    0.647462 0.096232 0.855682 0.097135
H21   H     H_    0.654604 0.152022 0.003091 0.103591
H22   H     H_    0.565635 0.284936 0.049328 0.095218
H23   H     H_    0.576554 0.071499 0.616484 0.080683
H24   H     H_    0.568855 0.653763 0.826469 0.111758
H25   H     H_    0.610514 0.813473 0.784563 0.097312
H26   H     H_    0.540691 0.956711 0.847854 0.108345
H27   H     H_    0.426576 0.936670 0.957014 0.109069
H28   H     H_    0.380699 0.775483 0.001931 0.102001
H29   H     H_    0.623494 0.558880 0.072832 0.118165
H30   H     H_    0.618418 0.431214 0.069561 0.117148
H31   H     H_    0.616520 0.568998 0.932281 0.110970
H32   H     H_    0.621169 0.443330 0.924873 0.131679
H33   H     H_    0.067472 0.557842 0.634857 0.109826
H34   H     H_    0.624411 0.927114 0.569370 0.085238
H35   H     H_    0.056057 0.438364 0.384270 0.111672
H36   H     H_    0.230332 0.560919 0.628118 0.100571
H37   H     H_    0.218767 0.437103 0.379833 0.099410
H38   H     H_    0.892283 0.276089 0.379263 0.100256
H39   H     H_    0.971551 0.120524 0.370246 0.103360
H40   H     H_    0.077688 0.071273 0.482721 0.098198
H41   H     H_    0.102524 0.176597 0.606521 0.103965
H42   H     H_    0.023055 0.331806 0.617353 0.103712
H43   H     H_    0.893329 0.709070 0.651577 0.095155
H44   H     H_    0.973143 0.862569 0.672643 0.102246
H45   H     H_    0.577844 0.248303 0.611579 0.118720
H46   H     H_    0.078057 0.921268 0.565206 0.099848
H47   H     H_    0.101170 0.827682 0.434550 0.096685
H48   H     H_    0.021334 0.674412 0.411950 0.107130
H49   H     H_    0.620216 0.750555 0.569979 0.113465
H50   H     H_    0.422398 0.249308 0.388250 0.119261
H51   H     H_    0.379399 0.752176 0.430785 0.121328
H52   H     H_    0.384354 0.613156 0.084323 0.091021
N1    N     N_R   0.500020 0.258690 0.500000 -0.218352
N2    N     N_R   0.500020 0.741310 0.500000 -0.217766
O1    O     O_R   0.371450 0.581430 0.500010 -0.509312
O2    O     O_R   0.371450 0.418570 0.500010 -0.496766
O3    O     O_R   0.500000 0.581470 0.379440 -0.491337
O4    O     O_R   0.500000 0.418530 0.379440 -0.505123
O5    O     O_R   0.628540 0.581440 0.499990 -0.510511
O6    O     O_R   0.628540 0.418560 0.499990 -0.501936
O7    O     O_R   0.499990 0.581400 0.620560 -0.495788
O8    O     O_R   0.499990 0.418600 0.620560 -0.504149

loop_
_geom_bond_atom_site_label_1
_geom_bond_atom_site_label_2
_ccdc_geom_bond_type
C51   H21   S    
C66   C68   A    
C20   H17   S    
C28   C47   S    
Cu2   O2    S    
C41   C42   A    
C35   C36   A    
C43   C44   A    
C1    O2    A    
C6    C9    A    
C53   C59   A    
C53   C54   A    
C40   C46   A    
C57   H26   S    
C12   C23   S    
C37   C38   A    
C48   H18   S    
C59   H28   S    
C71   H47   S    
C36   C37   A    
C19   C21   A    
C7    O3    A    
C29   C32   S    
C27   H3    S    
C9    H12   S    
C74   H36   S    
C38   C39   A    
C2    H37   S    
Cu1   O5    S    
C17   H50   S    
C28   C40   S    
C23   H29   S    
C29   C33   S    
C3    C74   A    
C19   H16   S    
C17   C19   A    
C67   H33   S    
C66   C72   A    
C45   C56   T    
C44   C46   A    
C68   C69   A    
C65   H42   S    
C70   C71   A    
C16   N2    A    
C9    C10   A    
Cu1   N2    S    
C24   O6    A    
C26   C31   S    
C21   C22   S    
C12   C32   S    
C54   H24   S    
C61   C62   A    
C7    C56   S    
Cu1   O1    S    
C73   H35   S    
C35   H5    S    
C30   C34   T    
C27   C31   S    
C51   C52   A    
C28   C32   S    
C7    O4    A    
Cu1   O7    S    
C36   H6    S    
C6    C11   A    
C12   H32   S    
Cu2   O4    S    
C26   H52   S    
C46   H15   S    
C10   C24   S    
C58   C59   A    
C27   H2    S    
C17   N1    A    
C26   H4    S    
C64   H41   S    
C60   C61   A    
C1    C3    S    
C32   C34   S    
C13   H23   S    
C25   O7    A    
Cu1   Cu2   S    
C62   C63   A    
C41   H10   S    
C18   H51   S    
C5    C8    A    
Cu2   N1    S    
C70   H46   S    
C47   C48   A    
C15   N1    A    
C50   C51   A    
C13   C21   A    
C67   C74   A    
C33   C39   A    
C49   H19   S    
C4    C11   S    
C12   H31   S    
C4    C73   A    
C2    C73   A    
C63   H40   S    
C24   O5    A    
C48   C49   A    
C20   C22   A    
C60   C65   A    
C55   C57   A    
C8    H1    S    
C14   C16   A    
C18   N2    A    
C42   C43   A    
C39   H9    S    
C61   H38   S    
C44   H14   S    
C16   H49   S    
C25   C30   S    
C14   H34   S    
C54   C55   A    
C40   C41   A    
C15   H45   S    
C5    C60   S    
C38   H8    S    
C1    O1    A    
C4    C67   A    
Cu1   O3    S    
C5    C11   A    
C47   C52   A    
C58   H27   S    
Cu2   O8    S    
C55   H25   S    
C69   H44   S    
C64   C65   A    
C14   C22   A    
C13   C15   A    
C2    C3    A    
C62   H39   S    
C68   H43   S    
C23   H30   S    
C50   H20   S    
C57   C58   A    
C29   C53   S    
C52   H22   S    
C33   C35   A    
C25   O8    A    
C18   C20   A    
C43   H13   S    
C69   C70   A    
C63   C64   A    
Cu2   O6    S    
C6    C66   S    
C71   C72   A    
C26   C29   S    
C8    C10   A    
C49   C50   A    
C31   C45   S    
C27   C28   S    
C37   H7    S    
C42   H11   S    
C72   H48   S    
C23   C31   S    
