data_mof_unit_66829.cif
_audit_creation_date              2013-03-05T15:41:46-0500
_audit_creation_method            fapswitch 2.2
_symmetry_space_group_name_H-M    P1
_symmetry_Int_Tables_number       1
_space_group_crystal_system       triclinic
_cell_length_a                    8.45618
_cell_length_b                    15.48452
_cell_length_c                    15.419191
_cell_angle_alpha                 97.69229
_cell_angle_beta                  99.626876
_cell_angle_gamma                 98.893043
_cell_volume                      1940.01250195

loop_
_atom_site_label
_atom_site_type_symbol
_atom_site_description
_atom_site_fract_x
_atom_site_fract_y
_atom_site_fract_z
_atom_type_partial_charge
P1    P     P_3+3 0.004200 0.709230 0.580350 0.517154
O1    O     O_2   0.174080 0.723060 0.553930 -0.342901
O2    O     O_3   0.901570 0.609580 0.550840 -0.404809
O3    O     O_3   0.370350 0.665080 0.388270 -0.354790
O4    O     O_2   0.320790 0.816298 0.465558 -0.307439
O5    O     O_3   0.037628 0.723447 0.696560 -0.523921
O6    O     O_3   0.334217 0.808969 0.300330 -0.488366
H1    H     H_    0.424509 0.711708 0.228077 0.090973
C1    C     C_3   0.329430 0.800037 0.144226 0.054593
H2    H     H_    0.201761 0.765564 0.134020 0.201857
P2    P     P_3+3 0.305000 0.425570 0.290900 0.433799
P3    P     P_3+3 0.880003 0.613764 0.226394 0.486892
O7    O     O_2   0.134790 0.452800 0.278150 -0.397635
O8    O     O_3   0.937650 0.618620 0.340860 -0.338254
O9    O     O_2   0.972621 0.545353 0.185006 -0.369810
O10   O     O_3   0.253747 0.311415 0.239488 -0.571721
O11   O     O_3   0.973808 0.712354 0.198803 -0.487964
C2    C     C_3   0.872160 0.776083 0.199289 0.644487
H3    H     H_    0.750801 0.753339 0.215318 -0.010975
C3    C     C_3   0.848667 0.806396 0.108529 -0.876045
H4    H     H_    0.967866 0.836514 0.094134 0.252543
H5    H     H_    0.792111 0.748951 0.054947 0.281003
C4    C     C_3   0.769571 0.329900 0.253270 0.288460
H6    H     H_    0.665343 0.365621 0.249156 0.060994
H7    H     H_    0.881528 0.377544 0.283492 0.118275
C5    C     C_3   0.783579 0.282083 0.160154 -0.035314
H8    H     H_    0.892257 0.252935 0.175719 0.152277
Ba1   Ba    Ba6+2 0.154730 0.543770 0.458180 1.573398
C6    C     C_3   0.105295 0.654810 0.728596 0.318352
H9    H     H_    0.215906 0.647414 0.701019 0.074156
H10   H     H_    0.016146 0.591658 0.711044 0.113141
C7    C     C_3   0.153713 0.680195 0.829641 -0.212960
H11   H     H_    0.249624 0.644518 0.855215 0.145571
H12   H     H_    0.204359 0.752206 0.847967 0.250635
C8    C     C_3   0.190116 0.252772 0.292456 0.292818
H13   H     H_    0.074556 0.267844 0.309417 0.047013
H14   H     H_    0.286837 0.257014 0.350276 0.092063
C9    C     C_3   0.164943 0.153779 0.249728 -0.399674
H15   H     H_    0.182830 0.116095 0.306131 0.187706
H16   H     H_    0.258412 0.143470 0.209850 0.242490
P4    P     P_3+3 0.806080 0.290760 0.419570 0.480394
O12   O     O_2   0.636200 0.276890 0.446040 -0.295302
O13   O     O_3   0.908720 0.390410 0.449080 -0.439047
O14   O     O_3   0.439930 0.334910 0.611650 -0.373074
O15   O     O_3   0.743079 0.262628 0.303689 -0.567012
P5    P     P_3+3 0.925030 0.382793 0.774161 0.479106
O16   O     O_3   0.402060 0.547860 0.609750 -0.449772
O17   O     O_3   0.872630 0.381370 0.659060 -0.420782
O18   O     O_2   0.804470 0.433040 0.816281 -0.342123
O19   O     O_3   0.870208 0.273273 0.790974 -0.502793
Ba2   Ba    Ba6+2 0.655430 0.456220 0.541750 1.553759
P6    P     P_3+3 0.423134 0.779667 0.400387 0.507307
C10   C     C_3   0.419762 0.783645 0.233615 0.248701
H17   H     H_    0.545634 0.822240 0.248837 0.039943
O20   O     O_3   0.408220 0.452130 0.390170 -0.432451
C11   C     C_3   0.594448 0.739726 0.706369 0.261782
H18   H     H_    0.695639 0.716640 0.677349 0.085000
H19   H     H_    0.488513 0.736269 0.651503 0.075213
C12   C     C_3   0.649710 0.837148 0.753817 0.180508
H20   H     H_    0.618421 0.882966 0.706489 0.080480
P7    P     P_3+3 0.502826 0.573783 0.724333 0.471405
O21   O     O_2   0.675490 0.547140 0.721820 -0.315874
O22   O     O_3   0.546420 0.687280 0.768037 -0.536365
H21   H     H_    0.768747 0.856836 0.108077 0.245720
C13   C     C_3   0.909565 0.216085 0.722175 0.496709
H22   H     H_    0.824877 0.214305 0.658209 0.141782
H23   H     H_    0.037115 0.236932 0.714075 -0.031985
C14   C     C_3   0.892543 0.122694 0.744533 -0.899192
H24   H     H_    0.762303 0.095269 0.742226 0.272348
H25   H     H_    0.939275 0.079086 0.695283 0.220376
H26   H     H_    0.963152 0.123450 0.812356 0.293956
P8    P     P_3+3 0.394719 0.218013 0.598510 0.474145
C15   C     C_3   0.387585 0.167244 0.752557 0.526459
H27   H     H_    0.267321 0.129526 0.715558 0.026194
O23   O     O_2   0.494909 0.188570 0.529738 -0.314114
O24   O     O_3   0.496193 0.186671 0.695016 -0.504961
C16   C     C_3   0.459410 0.107370 0.815265 -0.210743
H28   H     H_    0.580686 0.139875 0.855270 0.172652
H29   H     H_    0.482098 0.047450 0.775396 0.191852
C17   C     C_R   0.174518 0.165557 0.547626 0.152203
C18   C     C_R   0.112764 0.072704 0.534514 -0.138975
C19   C     C_R   0.968253 0.890925 0.538386 -0.112808
C20   C     C_R   0.128596 0.928729 0.581535 0.224455
C21   C     C_R   0.206016 0.009471 0.564830 0.166903
C22   C     C_R   0.897465 0.797933 0.532986 0.294652
C23   C     C_R   0.736085 0.768639 0.487916 -0.481730
C24   C     C_R   0.909717 0.196416 0.469199 0.190009
C25   C     C_R   0.847490 0.100609 0.454986 -0.084397
C26   C     C_R   0.944996 0.041574 0.496046 -0.005701
C27   C     C_R   0.693791 0.057713 0.402908 0.289920
C28   C     C_R   0.634337 0.968136 0.399429 -0.229369
C29   C     C_R   0.717438 0.913790 0.447057 0.022725
C30   C     C_R   0.877082 0.948674 0.493888 0.051867
C31   C     C_R   0.644263 0.824835 0.446724 0.155547
C32   C     C_R   0.066706 0.224089 0.523282 -0.206344
H30   H     H_    0.514842 0.941718 0.361023 0.207866
H31   H     H_    0.679356 0.700576 0.485927 0.165476
C33   C     C_R   0.236202 0.471959 0.770225 -0.577017
C34   C     C_R   0.141188 0.434642 0.825877 0.249997
C35   C     C_R   0.211463 0.437623 0.917136 0.096242
C36   C     C_R   0.361471 0.497171 0.957630 0.035142
C37   C     C_R   0.452819 0.534177 0.896363 -0.277729
C38   C     C_R   0.394792 0.516725 0.802886 0.319857
C39   C     C_R   0.586614 0.567353 0.096370 -0.259515
C40   C     C_R   0.655622 0.578041 0.187745 0.146990
C41   C     C_R   0.406820 0.493417 0.215393 0.357360
C42   C     C_R   0.335147 0.488911 0.124357 -0.219002
C43   C     C_R   0.427083 0.518023 0.060226 0.140747
C44   C     C_R   0.565431 0.540666 0.246236 -0.459709
H32   H     H_    0.666634 0.591736 0.054251 0.160712
H33   H     H_    0.207374 0.462439 0.105169 0.180783
H34   H     H_    0.568385 0.578082 0.918985 0.188335
H35   H     H_    0.623622 0.542622 0.314701 0.169751
H36   H     H_    0.183939 0.469163 0.700801 0.149913
C45   C     C_3   0.643016 0.203333 0.116902 -0.287041
C46   C     C_3   0.472254 0.222267 0.117686 -0.726622
H37   H     H_    0.462774 0.247765 0.186562 0.289817
H38   H     H_    0.438350 0.269583 0.073300 0.264666
H39   H     H_    0.383689 0.159395 0.094123 0.253579
H40   H     H_    0.651901 0.178279 0.047209 0.199143
H41   H     H_    0.656811 0.147826 0.154014 0.211800
C47   C     C_3   0.833475 0.339077 0.092331 -0.362922
C48   C     C_3   0.725223 0.404056 0.072881 -0.790888
H42   H     H_    0.600597 0.373670 0.040577 0.244712
H43   H     H_    0.717517 0.437732 0.137663 0.250885
H44   H     H_    0.777981 0.450236 0.031530 0.282490
H45   H     H_    0.959183 0.376204 0.118549 0.248885
H46   H     H_    0.831645 0.296022 0.028604 0.241897
I1    I     I_    0.955260 0.649689 0.897080 -0.269028
C49   C     C_3   0.999568 0.107756 0.193434 -0.355074
C50   C     C_3   0.988830 0.113476 0.094359 -0.767484
H47   H     H_    0.025338 0.182538 0.083970 0.285799
H48   H     H_    0.071433 0.072961 0.066225 0.279051
H49   H     H_    0.862690 0.086603 0.057481 0.247425
H50   H     H_    0.984554 0.036105 0.197523 0.235375
H51   H     H_    0.899331 0.130287 0.222494 0.207080
I2    I     I_    0.416779 0.735818 0.037093 -0.469249
I3    I     I_    0.902593 0.872550 0.805308 -0.251152
I4    I     I_    0.560131 0.869546 0.873918 -0.272035
C51   C     C_3   0.327240 0.898249 0.137755 -0.288490
C52   C     C_3   0.490661 0.951174 0.129814 -0.793067
H52   H     H_    0.586956 0.951171 0.188305 0.249294
H53   H     H_    0.530242 0.925539 0.068065 0.304816
H54   H     H_    0.474615 0.020081 0.125257 0.258603
H55   H     H_    0.236894 0.901812 0.077708 0.227722
H56   H     H_    0.285750 0.930551 0.196440 0.235725
C53   C     C_3   0.361010 0.253698 0.804145 -0.396976
C54   C     C_3   0.511747 0.300301 0.871740 -0.731596
H57   H     H_    0.521187 0.266091 0.930492 0.245033
H58   H     H_    0.622867 0.298187 0.843547 0.324061
H59   H     H_    0.504593 0.370292 0.891648 0.246862
H60   H     H_    0.326339 0.299493 0.758088 0.186392
H61   H     H_    0.257733 0.237701 0.837661 0.219223
I5    I     I_    0.301068 0.067732 0.903800 -0.410424
I6    I     I_    0.994256 0.886828 0.297322 -0.435167
I7    I     I_    0.249314 0.891989 0.697778 -0.300610
I8    I     I_    0.461261 0.009729 0.569988 -0.339865
I9    I     I_    0.521979 0.105769 0.320069 -0.447122
C55   C     C_3   0.125289 0.319751 0.555521 -0.382211
C56   C     C_3   0.219552 0.359377 0.490217 -0.499104
H62   H     H_    0.311808 0.321699 0.473263 0.220947
H63   H     H_    0.146848 0.364536 0.426719 0.200673
H64   H     H_    0.284865 0.423915 0.521617 0.289756
H65   H     H_    0.032333 0.355527 0.567799 0.241897
H66   H     H_    0.186316 0.330912 0.625828 0.146222
I10   I     I_    0.132694 0.323713 0.972484 -0.517130

loop_
_geom_bond_atom_site_label_1
_geom_bond_atom_site_label_2
_geom_bond_distance
_ccdc_geom_bond_type
C16   H28   1.109625 S    
P5    C34   1.873215 S    
Ba1   O16   2.850405 S    
C3    H21   1.108996 S    
C36   C37   1.438609 A    
C45   H41   1.104607 S    
P4    O12   1.549363 D    
C37   H34   1.075159 S    
C53   C54   1.517142 S    
C54   H59   1.099949 S    
P8    O24   1.755329 S    
C50   H49   1.109426 S    
C48   H42   1.090181 S    
C10   H17   1.107886 S    
C11   H18   1.113574 S    
P5    O18   1.548510 D    
C5    H8    1.090558 S    
O3    P6    1.738068 S    
C4    O15   1.393751 S    
C9    C49   1.528798 S    
O2    Ba1   2.995051 S    
P7    C38   1.867949 S    
C54   H58   1.102420 S    
O6    P6    1.748227 S    
C2    H3    1.111153 S    
C6    C7    1.523989 S    
C52   H53   1.105721 S    
O10   C8    1.405562 S    
P3    C40   1.862881 S    
C1    C51   1.540041 S    
C48   H43   1.080174 S    
C41   C42   1.420814 A    
C45   C46   1.518876 S    
P8    C17   1.901505 S    
C46   H37   1.102817 S    
C35   I10   2.124392 S    
P1    O1    1.549006 D    
C15   H27   1.110814 S    
C4    C5    1.556639 S    
C47   H45   1.108621 S    
P7    O22   1.754472 S    
C23   H31   1.082563 S    
C5    C45   1.553564 S    
C39   C40   1.409159 A    
C23   C31   1.398353 A    
C28   H30   1.070643 S    
O14   P8    1.767934 S    
C1    I2    2.111552 S    
O17   Ba2   2.845491 S    
C8    H13   1.103365 S    
C11   H19   1.113827 S    
C14   H24   1.110312 S    
C13   H23   1.109660 S    
C24   C32   1.414056 A    
P3    O11   1.747312 S    
P1    Ba1   3.500190 S    
C4    H6    1.108249 S    
O7    Ba1   2.905445 S    
P6    C31   1.873830 S    
C1    H2    1.103512 S    
Ba2   O20   2.849910 S    
C44   H35   1.081940 S    
O12   Ba2   2.932279 S    
C18   C26   1.423869 A    
C36   C43   1.558506 S    
C12   H20   1.112631 S    
C19   C30   1.437091 A    
C26   C30   1.457950 A    
P4    O13   1.614679 S    
C55   C56   1.519355 S    
C51   H55   1.110892 S    
P7    O21   1.582536 D    
Ba2   O21   2.905538 S    
P8    O23   1.529899 D    
C7    I1    2.142592 S    
O3    Ba1   2.855780 S    
Ba1   O20   3.000332 S    
C16   H29   1.103345 S    
P1    C22   1.914663 S    
P4    C24   1.989622 S    
P5    O17   1.752173 S    
P1    O5    1.744966 S    
C56   H64   1.071691 S    
C8    C9    1.552712 S    
C51   C52   1.526296 S    
C52   H54   1.106109 S    
C51   H56   1.109667 S    
C28   C29   1.384535 A    
O2    Ba2   2.876845 S    
C48   H44   1.111509 S    
O16   Ba2   2.999412 S    
C20   I7    2.102111 S    
C12   I3    2.111142 S    
C22   C23   1.399295 A    
C19   C20   1.404418 A    
C55   H66   1.098439 S    
P1    O2    1.614653 S    
C7    H12   1.110915 S    
C27   I9    2.064968 S    
C6    H9    1.105400 S    
C16   I5    2.148191 S    
P2    O10   1.792730 S    
C20   C21   1.395561 A    
P3    O9    1.544511 D    
C12   I4    2.143089 S    
C42   C43   1.433023 A    
C13   C14   1.522001 S    
C3    H4    1.113531 S    
P2    C41   1.893034 S    
C29   C31   1.419070 A    
O11   C2    1.405388 S    
C11   O22   1.400905 S    
O4    P6    1.539662 D    
C54   H57   1.106783 S    
C17   C32   1.423226 A    
O14   Ba2   2.855083 S    
C49   H50   1.108547 S    
C15   C53   1.530715 S    
C33   C34   1.391256 A    
C15   O24   1.407021 S    
C32   C55   1.476599 S    
C1    C10   1.532692 S    
C13   H22   1.112111 S    
C3    H5    1.114502 S    
C50   H47   1.106740 S    
C39   C43   1.424751 A    
C18   C21   1.427240 A    
P2    O20   1.596111 S    
C40   C44   1.401177 A    
C15   C16   1.543053 S    
C8    H14   1.091754 S    
C42   H33   1.070819 S    
C49   H51   1.103446 S    
C25   C27   1.420027 A    
C17   C18   1.426720 A    
C50   H48   1.110702 S    
H1    C10   1.113185 S    
O16   P7    1.791529 S    
O1    Ba1   2.931786 S    
C21   I8    2.145895 S    
C11   C12   1.549694 S    
C19   C22   1.457184 A    
P5    O19   1.752976 S    
Ba1   O13   2.876173 S    
C46   H39   1.108842 S    
C7    H11   1.099263 S    
C53   H60   1.105705 S    
P3    O8    1.738900 S    
C6    H10   1.109408 S    
P4    O15   1.751487 S    
C34   C35   1.424693 A    
C56   H62   1.088780 S    
C39   H32   1.075094 S    
P2    O7    1.550252 D    
O13   Ba2   2.996067 S    
C27   C28   1.391054 A    
C9    H15   1.113045 S    
C9    H16   1.097065 S    
P2    Ba1   3.488410 S    
C14   H26   1.111764 S    
C29   C30   1.407021 A    
Ba1   Ba2   4.673609 S    
C46   H38   1.104975 S    
C49   C50   1.530402 S    
C2    C3    1.526414 S    
C4    H7    1.096440 S    
C47   H46   1.107528 S    
C37   C38   1.417558 A    
C53   H61   1.099753 S    
O19   C13   1.406416 S    
C33   H36   1.080068 S    
O5    C6    1.391042 S    
C25   C26   1.459357 A    
C24   C25   1.469276 A    
C14   H25   1.111037 S    
C45   H40   1.111471 S    
O6    C10   1.401379 S    
C55   H65   1.056852 S    
C35   C36   1.438222 A    
C5    C47   1.526447 S    
O8    Ba1   2.844967 S    
C47   C48   1.487952 S    
C52   H52   1.109433 S    
P4    Ba2   3.500844 S    
C2    I6    2.127964 S    
C33   C38   1.387736 A    
C56   H63   1.085244 S    
C41   C44   1.396608 A    
