data_mof_unit_64396.cif
_audit_creation_date              2012-12-10T22:08:21-0500
_audit_creation_method            fapswitch 2.2
_symmetry_space_group_name_H-M    P1
_symmetry_Int_Tables_number       1
_space_group_crystal_system       triclinic
_cell_length_a                    15.952364
_cell_length_b                    16.131882
_cell_length_c                    29.882433
_cell_angle_alpha                 90.598483
_cell_angle_beta                  90.018941
_cell_angle_gamma                 90.131072
_cell_volume                      7689.55460196

loop_
_atom_site_label
_atom_site_type_symbol
_atom_type_description
_atom_site_fract_x
_atom_site_fract_y
_atom_site_fract_z
_atom_type_partial_charge
C1    C     C_R   0.618914 0.998847 0.559136 0.904577
C2    C     C_R   0.381090 0.001151 0.440868 0.904382
C3    C     C_R   0.924150 0.857117 0.155803 -0.215293
C4    C     C_R   0.075803 0.143552 0.844009 -0.215703
C5    C     C_R   0.068483 0.880432 0.207497 -0.148487
C6    C     C_R   0.931828 0.120497 0.791974 -0.159480
C7    C     C_R   0.066286 0.817984 0.175000 0.156129
C8    C     C_R   0.933987 0.183109 0.824387 0.152793
C9    C     C_R   0.928917 0.129292 0.209979 -0.285616
C10   C     C_R   0.071490 0.872609 0.791177 -0.287952
C11   C     C_R   0.929329 0.194109 0.179804 -0.172710
C12   C     C_R   0.071376 0.808041 0.821381 -0.171625
C13   C     C_R   0.089633 0.932156 0.306162 -0.202576
C14   C     C_R   0.911442 0.067522 0.693261 -0.208214
C15   C     C_R   0.152467 0.931215 0.338424 -0.163427
C16   C     C_R   0.848560 0.068433 0.661021 -0.163582
C17   C     C_R   0.908310 0.074954 0.307595 -0.179292
C18   C     C_R   0.092590 0.924467 0.693047 -0.181889
C19   C     C_R   0.845109 0.074289 0.339604 -0.173060
C20   C     C_R   0.155798 0.924999 0.661013 -0.171069
C21   C     C_3   0.999479 0.005238 0.248381 -0.056168
C22   C     C_3   0.000677 0.994946 0.751676 -0.056587
C23   C     C_R   0.617687 0.000760 0.440705 0.904291
C24   C     C_R   0.382308 0.999218 0.559295 0.904652
C25   C     C_R   0.073913 0.004194 0.281051 0.177699
C26   C     C_R   0.926511 0.995840 0.718773 0.187374
C27   C     C_R   0.198542 0.003025 0.347345 0.171333
C28   C     C_R   0.801631 0.996963 0.652596 0.170616
C29   C     C_R   0.923516 0.004730 0.280131 0.095346
C30   C     C_R   0.076896 0.995098 0.720105 0.090220
C31   C     C_R   0.797434 0.002806 0.345668 0.169843
C32   C     C_R   0.202982 0.996709 0.654570 0.169775
C33   C     C_R   0.001585 0.081139 0.217282 0.023816
C34   C     C_R   0.998269 0.919448 0.783160 0.028761
C35   C     C_R   0.000914 0.210284 0.154892 0.108536
C36   C     C_R   0.999079 0.789940 0.845165 0.117498
C37   C     C_R   0.997978 0.931280 0.215442 0.096600
C38   C     C_R   0.002159 0.069264 0.784361 0.096515
C39   C     C_R   0.993674 0.806268 0.149293 0.108953
C40   C     C_R   0.006374 0.194571 0.850312 0.110272
C41   C     C_1   0.734167 0.001594 0.379226 -0.075131
C42   C     C_1   0.266052 0.998005 0.620901 -0.075053
C43   C     C_1   0.681057 0.000901 0.407453 -0.172819
C44   C     C_1   0.319032 0.998935 0.592604 -0.172338
C45   C     C_R   0.118391 0.077298 0.292506 -0.178546
C46   C     C_R   0.881015 0.923028 0.707897 -0.137024
C47   C     C_1   0.262607 0.002319 0.380478 -0.071547
C48   C     C_1   0.737491 0.997662 0.619494 -0.069085
C49   C     C_1   0.316655 0.001890 0.408203 -0.172603
C50   C     C_1   0.683392 0.998101 0.591789 -0.172136
C51   C     C_1   0.999859 0.273810 0.122239 -0.037391
C52   C     C_1   0.000220 0.725990 0.877623 -0.037447
C53   C     C_1   0.999529 0.326409 0.094369 -0.171905
C54   C     C_1   0.000523 0.673358 0.905484 -0.172090
C55   C     C_1   0.990484 0.743108 0.115648 -0.015617
C56   C     C_1   0.009436 0.257511 0.884053 -0.015779
C57   C     C_1   0.990194 0.689238 0.087846 -0.144803
C58   C     C_1   0.009753 0.311115 0.911988 -0.144575
C59   C     C_R   0.993387 0.623975 0.055762 0.898967
C60   C     C_R   0.006604 0.376086 0.944216 0.899057
C61   C     C_R   0.999452 0.388191 0.061028 0.899291
C62   C     C_R   0.000560 0.611705 0.938911 0.899490
C63   C     C_R   0.181180 0.076141 0.324769 -0.205729
C64   C     C_R   0.818154 0.924191 0.675671 -0.205127
C65   C     C_R   0.876009 0.932171 0.287949 -0.200133
C66   C     C_R   0.124064 0.067757 0.711978 -0.198419
C67   C     C_R   0.812819 0.931806 0.320026 -0.169228
C68   C     C_R   0.187226 0.067981 0.679905 -0.169147
C69   C     C_R   0.074335 0.097726 0.191109 0.503245
C70   C     C_R   0.924901 0.903036 0.809063 0.516351
C71   C     C_R   0.072335 0.161938 0.159738 -0.286106
C72   C     C_R   0.926591 0.836488 0.839502 -0.314578
C73   C     C_R   0.926570 0.919602 0.188137 -0.192854
C74   C     C_R   0.073459 0.080987 0.811748 -0.195552
H1    H     H_    0.215419 0.132589 0.332527 0.142072
H2    H     H_    0.783182 0.867992 0.668340 0.139768
H3    H     H_    0.888793 0.874509 0.270569 0.148869
H4    H     H_    0.110951 0.125636 0.729074 0.149463
H5    H     H_    0.872356 0.959305 0.191989 0.157363
H6    H     H_    0.127635 0.041193 0.808063 0.157536
H7    H     H_    0.126851 0.890232 0.225084 0.187288
H8    H     H_    0.873650 0.110932 0.774173 0.190345
H9    H     H_    0.870072 0.115748 0.226226 0.173482
H10   H     H_    0.130544 0.887034 0.775362 0.173696
H11   H     H_    0.052914 0.876428 0.300706 0.142570
H12   H     H_    0.948633 0.123030 0.698431 0.144019
H13   H     H_    0.946028 0.130434 0.304317 0.144217
H14   H     H_    0.055114 0.868881 0.696589 0.142878
H15   H     H_    0.777067 0.875594 0.325448 0.141273
H16   H     H_    0.222609 0.124324 0.674210 0.141312
H17   H     H_    0.125706 0.173111 0.138250 0.147883
H18   H     H_    0.873047 0.819916 0.859630 0.144628
H19   H     H_    0.868264 0.848984 0.135583 0.154748
H20   H     H_    0.131538 0.151572 0.864362 0.154934
H21   H     H_    0.872826 0.230098 0.174931 0.153761
H22   H     H_    0.128446 0.773260 0.826891 0.153294
H23   H     H_    0.164480 0.874816 0.356712 0.144307
H24   H     H_    0.837109 0.124564 0.642396 0.144944
H25   H     H_    0.834241 0.129108 0.360037 0.140620
H26   H     H_    0.166980 0.869940 0.640823 0.140417
H27   H     H_    0.104247 0.136102 0.277266 0.123164
H28   H     H_    0.894449 0.864421 0.723527 0.124485
O1    O     O_R   0.591150 0.068800 0.545430 -0.615267
O2    O     O_R   0.408850 0.931200 0.454570 -0.615435
O3    O     O_R   0.588750 0.931200 0.454570 -0.615420
O4    O     O_R   0.411250 0.068800 0.545430 -0.615332
O5    O     O_R   0.590220 0.070350 0.455860 -0.616367
O6    O     O_R   0.409780 0.929650 0.544140 -0.616183
O7    O     O_R   0.589680 0.929650 0.544140 -0.616435
O8    O     O_R   0.410320 0.070350 0.455860 -0.616686
O9    O     O_R   0.065580 0.596830 0.043410 -0.597654
O10   O     O_R   0.934420 0.403170 0.956590 -0.597861
O11   O     O_R   0.928990 0.412290 0.044840 -0.614384
O12   O     O_R   0.071010 0.587710 0.955160 -0.614318
O13   O     O_R   0.069930 0.417270 0.047240 -0.612990
O14   O     O_R   0.930070 0.582730 0.952760 -0.612861
O15   O     O_R   0.924640 0.591850 0.041010 -0.622430
O16   O     O_R   0.075360 0.408150 0.958990 -0.622317
Zn1   Zn    Zn3+2 0.500990 0.093570 0.500870 0.968897
Zn2   Zn    Zn3+2 0.499010 0.906430 0.499130 0.969040
Zn3   Zn    Zn3+2 0.094790 0.503330 0.001610 0.989152
Zn4   Zn    Zn3+2 0.905210 0.496670 0.998390 0.988934
O17   O     O_3   0.142176 0.043867 0.192964 -0.651919
C75   C     C_3   0.220052 0.085736 0.197048 0.057321
H29   H     H_    0.252160 0.061478 0.227182 0.177465
H30   H     H_    0.214975 0.154135 0.202302 0.118606
C76   C     C_3   0.274602 0.065926 0.156245 -0.316381
H31   H     H_    0.283578 0.997726 0.153573 0.246146
H32   H     H_    0.242908 0.086959 0.125302 0.219539
C77   C     C_3   0.360138 0.107976 0.159842 -0.952313
H33   H     H_    0.352717 0.176387 0.161601 0.265646
H34   H     H_    0.398305 0.092016 0.129918 0.271228
H35   H     H_    0.393761 0.086597 0.190154 0.266262
O18   O     O_3   0.856438 0.956266 0.803562 -0.665549
C78   C     C_3   0.780456 0.932827 0.824255 0.101600
H36   H     H_    0.738467 0.987608 0.823062 0.182216
H37   H     H_    0.787955 0.920500 0.860513 0.133164
C79   C     C_3   0.736866 0.862231 0.798319 -0.392026
H38   H     H_    0.723586 0.882864 0.763668 0.236690
H39   H     H_    0.777879 0.806871 0.796148 0.218281
C80   C     C_3   0.654676 0.837715 0.820685 -0.928361
H40   H     H_    0.666667 0.815373 0.855133 0.265697
H41   H     H_    0.624294 0.787100 0.801076 0.268802
H42   H     H_    0.611359 0.891491 0.822191 0.265598
I1    I     I_    0.175580 0.745148 0.165382 -0.381688
I2    I     I_    0.825018 0.256599 0.833557 -0.384333

loop_
_geom_bond_atom_site_label_1
_geom_bond_atom_site_label_2
_ccdc_geom_bond_type
C16   C28   A    
C78   C79   S    
C66   C68   A    
O13   Zn3   S    
C5    C37   A    
O4    Zn1   S    
O9    Zn3   S    
C17   C29   A    
O6    Zn2   S    
C19   C31   A    
O17   C75   S    
C47   C49   T    
C31   C67   A    
C46   H28   S    
O14   Zn4   S    
C6    H8    S    
C62   O12   A    
C80   H41   S    
C20   C32   A    
C72   H18   S    
C57   C59   S    
C21   C33   S    
C69   O17   S    
C58   C60   S    
C23   O3    A    
C67   H15   S    
C23   C43   S    
C10   H10   S    
C69   C71   A    
C37   C73   A    
C1    O7    A    
O12   Zn3   S    
C53   C61   S    
C39   C55   S    
O11   Zn4   S    
C4    C40   A    
C65   C67   A    
C61   O13   A    
C59   O9    A    
C6    C38   A    
O3    Zn2   S    
C60   O16   A    
C24   O6    A    
C12   C36   A    
C31   C41   S    
C1    C50   S    
C34   C70   A    
C4    C74   A    
C36   C52   S    
C33   C69   A    
C32   C68   A    
C48   C50   T    
C35   C71   A    
C59   O15   A    
C74   H6    S    
C9    C33   A    
C41   C43   T    
C13   C25   A    
C42   C44   T    
C15   H23   S    
C66   H4    S    
O5    Zn1   S    
C52   C54   T    
C12   H22   S    
C64   H2    S    
C22   C34   S    
O1    Zn1   S    
C65   H3    S    
C78   H36   S    
C14   H12   S    
C3    H19   S    
C21   C25   S    
C80   H42   S    
C5    C7    A    
C19   H25   S    
C45   H27   S    
C6    C8    A    
C54   C62   S    
C40   C56   S    
C21   C29   S    
C45   C63   A    
C18   H14   S    
C46   C64   A    
C51   C53   T    
O16   Zn3   S    
C77   H34   S    
O15   Zn4   S    
C76   H32   S    
C62   O14   A    
C60   O10   A    
C2    C49   S    
C5    H7    S    
C15   C27   A    
C20   H26   S    
C2    O2    A    
C23   O5    A    
C73   H5    S    
C71   H17   S    
C10   C34   A    
C14   C26   A    
C9    C11   A    
C30   C66   A    
C10   C12   A    
C9    H9    S    
C75   C76   S    
C4    H20   S    
C28   C64   A    
C55   C57   T    
C61   O11   A    
C18   C30   A    
C24   C44   S    
C14   C16   A    
C11   H21   S    
C77   H35   S    
C24   O4    A    
C76   H31   S    
C25   C45   A    
C75   H30   S    
C38   C74   A    
C27   C47   S    
C68   H16   S    
C78   H37   S    
C1    O1    A    
C2    O8    A    
C32   C42   S    
C22   C30   S    
C17   H13   S    
C8    I2    S    
C79   C80   S    
O8    Zn1   S    
C29   C65   A    
O18   C78   S    
C79   H39   S    
O10   Zn4   S    
C13   C15   A    
C77   H33   S    
C76   C77   S    
C80   H40   S    
C35   C51   S    
C16   H24   S    
C63   H1    S    
C11   C35   A    
C17   C19   A    
C28   C48   S    
C56   C58   T    
C18   C20   A    
C3    C73   A    
C79   H38   S    
C26   C46   A    
C3    C39   A    
C21   C37   S    
C22   C26   S    
C13   H11   S    
C70   O18   S    
C7    C39   A    
C27   C63   A    
C70   C72   A    
C8    C40   A    
O2    Zn2   S    
C36   C72   A    
O7    Zn2   S    
C75   H29   S    
C7    I1    S    
C22   C38   S    
