data_mof_unit_45248.cif
_audit_creation_date              2012-12-10T17:38:18-0500
_audit_creation_method            fapswitch 2.2
_symmetry_space_group_name_H-M    P1
_symmetry_Int_Tables_number       1
_space_group_crystal_system       triclinic
_cell_length_a                    12.168932
_cell_length_b                    12.844528
_cell_length_c                    18.955537
_cell_angle_alpha                 92.090286
_cell_angle_beta                  89.540251
_cell_angle_gamma                 93.214069
_cell_volume                      2956.14789619

loop_
_atom_site_label
_atom_site_type_symbol
_atom_type_description
_atom_site_fract_x
_atom_site_fract_y
_atom_site_fract_z
_atom_type_partial_charge
C1    C     C_R   0.521672 0.699359 0.500272 0.866603
C2    C     C_R   0.512728 0.124747 0.452224 0.101534
C3    C     C_R   0.482746 0.981498 0.533840 0.126201
C4    C     C_R   0.520411 0.018856 0.467156 0.124344
C5    C     C_R   0.946845 0.428125 0.418826 -0.323747
C6    C     C_R   0.053255 0.582368 0.575477 -0.329393
C7    C     C_R   0.833614 0.436050 0.427521 -0.035263
C8    C     C_R   0.166317 0.575188 0.567651 -0.030088
C9    C     C_R   0.863329 0.521881 0.539498 0.264132
C10   C     C_R   0.138408 0.469273 0.462863 0.255408
C11   C     C_R   0.979160 0.528314 0.527861 0.031576
C12   C     C_R   0.478422 0.300621 0.499699 0.867488
C13   C     C_R   0.021948 0.475463 0.468749 0.060424
C14   C     C_R   0.501853 0.496031 0.634335 0.865677
C15   C     C_R   0.497503 0.498920 0.365618 0.868300
C16   C     C_R   0.406647 0.422531 0.737747 -0.272375
C17   C     C_R   0.559308 0.406675 0.258907 -0.298681
C18   C     C_R   0.404393 0.393775 0.807662 0.513229
C19   C     C_R   0.553002 0.381699 0.187139 0.498345
C20   C     C_R   0.496889 0.419436 0.850319 -0.035022
C21   C     C_R   0.482250 0.435702 0.145085 -0.023333
C22   C     C_R   0.593151 0.465130 0.820728 -0.217785
C23   C     C_R   0.466674 0.190193 0.504254 -0.069905
C24   C     C_R   0.415622 0.510891 0.176128 -0.223575
C25   C     C_R   0.595547 0.490896 0.750229 -0.222383
C26   C     C_R   0.421102 0.533816 0.248304 -0.218625
C27   C     C_R   0.501746 0.471573 0.708770 -0.091986
C28   C     C_R   0.492171 0.480822 0.289801 -0.079848
C29   C     C_R   0.482793 0.419713 0.068696 0.291790
C30   C     C_R   0.489979 0.410303 0.926521 0.278322
C31   C     C_3   0.320403 0.239184 0.841506 0.091289
C32   C     C_3   0.283030 0.178547 0.774011 -0.371279
C33   C     C_3   0.287199 0.061074 0.782047 -0.957638
C34   C     C_R   0.534218 0.809774 0.496002 -0.072130
C35   C     C_3   0.566846 0.207767 0.167205 0.054768
C36   C     C_3   0.646040 0.124219 0.145152 -0.291667
C37   C     C_3   0.594943 0.014835 0.156561 -0.975657
C38   C     C_3   0.552508 0.168401 0.381947 -0.426902
C39   C     C_3   0.678291 0.181790 0.378307 -0.842361
C40   C     C_3   0.450829 0.831510 0.618978 -0.410917
C41   C     C_3   0.325167 0.818396 0.622887 -0.832060
C42   C     C_3   0.184512 0.403585 0.402983 -0.390931
C43   C     C_3   0.187449 0.461335 0.333787 -0.842644
C44   C     C_3   0.823707 0.542112 0.614325 -0.374400
C45   C     C_R   0.565813 0.949651 0.417395 -0.222693
C46   C     C_3   0.787349 0.653310 0.627576 -0.836371
C47   C     C_R   0.437300 0.050741 0.583537 -0.219742
C48   C     C_R   0.574078 0.846765 0.432324 -0.241953
C49   C     C_R   0.427388 0.153298 0.568080 -0.244918
C50   C     C_R   0.490078 0.875488 0.548638 0.089505
H1    H     H_    0.334030 0.404570 0.705876 0.172052
H2    H     H_    0.605670 0.794064 0.391982 0.159942
H3    H     H_    0.593289 0.972279 0.365644 0.162383
H4    H     H_    0.410907 0.028322 0.635496 0.168531
H5    H     H_    0.221252 0.612537 0.606440 0.151587
H6    H     H_    0.778432 0.403837 0.386967 0.150790
H7    H     H_    0.266559 0.213179 0.885841 0.177533
H8    H     H_    0.405661 0.219749 0.855461 0.118568
H9    H     H_    0.197457 0.197300 0.761442 0.238204
H10   H     H_    0.337432 0.202068 0.729441 0.205940
H11   H     H_    0.372991 0.040188 0.791789 0.264269
H12   H     H_    0.615611 0.366319 0.290678 0.162258
H13   H     H_    0.257512 0.019596 0.732845 0.262758
H14   H     H_    0.233622 0.035168 0.826519 0.269119
H15   H     H_    0.491977 0.198002 0.133615 0.141467
H16   H     H_    0.542834 0.196439 0.223373 0.131429
H17   H     H_    0.668004 0.131710 0.088454 0.231826
H18   H     H_    0.722581 0.135790 0.176791 0.226041
H19   H     H_    0.575015 0.004922 0.213318 0.260241
H20   H     H_    0.654174 0.956010 0.139659 0.270880
H21   H     H_    0.518681 0.001046 0.124968 0.267052
H22   H     H_    0.703967 0.215789 0.327378 0.235724
H23   H     H_    0.972923 0.385384 0.372262 0.167280
H24   H     H_    0.709849 0.234224 0.422130 0.277533
H25   H     H_    0.717557 0.106518 0.382162 0.253529
H26   H     H_    0.520517 0.117554 0.337314 0.185467
H27   H     H_    0.518350 0.245038 0.372882 0.186533
H28   H     H_    0.292321 0.776580 0.574721 0.275968
H29   H     H_    0.300401 0.773283 0.669846 0.239647
H30   H     H_    0.286704 0.894432 0.627466 0.243352
H31   H     H_    0.484571 0.754436 0.627481 0.191482
H32   H     H_    0.483186 0.881620 0.663925 0.194931
H33   H     H_    0.225893 0.541063 0.342192 0.271755
H34   H     H_    0.025472 0.630600 0.619243 0.170302
H35   H     H_    0.235059 0.417320 0.293690 0.255415
H36   H     H_    0.104040 0.469295 0.312494 0.244803
H37   H     H_    0.266781 0.379509 0.415075 0.258664
H38   H     H_    0.136092 0.328070 0.396304 0.169574
H39   H     H_    0.846712 0.710786 0.603572 0.248038
H40   H     H_    0.704882 0.663031 0.606068 0.285360
H41   H     H_    0.783932 0.671496 0.685223 0.223909
H42   H     H_    0.764763 0.479420 0.629791 0.222006
H43   H     H_    0.889087 0.529163 0.652954 0.169074
H44   H     H_    0.664897 0.485486 0.852890 0.172146
H45   H     H_    0.361874 0.554182 0.144268 0.172901
H46   H     H_    0.669184 0.528962 0.729214 0.164962
H47   H     H_    0.372000 0.594113 0.271303 0.154603
H48   H     H_    0.395199 0.206081 0.608067 0.147982
N1    N     N_R   0.581257 0.394646 0.964212 -0.185335
N2    N     N_R   0.391216 0.434227 0.031002 -0.188122
N3    N     N_R   0.577563 0.398986 0.034216 -0.110916
N4    N     N_R   0.394795 0.429473 0.961000 -0.120429
N5    N     N_R   0.207800 0.519350 0.512860 -0.117720
N6    N     N_R   0.792200 0.480650 0.487140 -0.109817
O1    O     O_R   0.421690 0.658830 0.503430 -0.600522
O2    O     O_3   0.619449 0.307240 0.158195 -0.635234
O3    O     O_R   0.578310 0.341170 0.496570 -0.604412
O4    O     O_R   0.609320 0.646410 0.495180 -0.615866
O5    O     O_R   0.390680 0.353590 0.504820 -0.647421
O6    O     O_R   0.406160 0.506220 0.605990 -0.621463
O7    O     O_R   0.593840 0.493780 0.394010 -0.618135
O8    O     O_R   0.593780 0.493810 0.597740 -0.624686
O9    O     O_R   0.406220 0.506190 0.402260 -0.621440
O10   O     O_3   0.308371 0.347398 0.834667 -0.640799
Zn1   Zn    Zn3+2 0.374720 0.508290 0.505510 0.925493
Zn2   Zn    Zn3+2 0.625280 0.491710 0.494490 0.938354

loop_
_geom_bond_atom_site_label_1
_geom_bond_atom_site_label_2
_ccdc_geom_bond_type
C37   H19   S    
C10   C42   S    
C43   H33   S    
N5    Zn1   S    
C35   C36   S    
C16   H1    S    
C18   O10   S    
C41   H30   S    
C36   H17   S    
C47   C49   A    
C46   H39   S    
C38   H26   S    
C14   O8    A    
C12   C23   S    
C31   H8    S    
C36   C37   S    
C19   C21   A    
C24   C26   A    
C9    N6    A    
C38   C39   S    
C23   C49   A    
C35   H15   S    
C39   H24   S    
C44   H43   S    
C49   H48   S    
N6    Zn2   S    
C22   C25   A    
C39   H22   S    
C15   O9    A    
O7    Zn2   S    
C39   H25   S    
C14   C27   S    
C31   O10   S    
C5    C13   A    
C44   H42   S    
C16   C27   A    
C45   H3    S    
C37   H20   S    
C22   H44   S    
C7    H6    S    
C8    H5    S    
C12   O5    A    
C3    C50   A    
C44   C46   S    
C1    C34   S    
C4    C45   A    
C34   C50   A    
C6    H34   S    
C43   H35   S    
C40   H32   S    
C24   H45   S    
C41   H28   S    
C5    C7    A    
C6    C8    A    
C46   H41   S    
C26   H47   S    
C35   H16   S    
C21   C29   S    
C30   N1    A    
C2    C4    A    
C15   O7    A    
C17   H12   S    
C2    C38   S    
C31   C32   S    
C33   H13   S    
C30   N4    A    
N2    N4    A    
C29   N3    A    
C9    C11   A    
C47   H4    S    
C33   H11   S    
C40   C41   S    
N1    N3    A    
C20   C22   A    
C7    N6    A    
C6    C11   A    
C42   H38   S    
C42   C43   S    
C32   H10   S    
C3    C4    A    
O8    Zn2   S    
C45   C48   A    
C14   O6    A    
C10   N5    A    
C9    C44   S    
C29   N2    A    
C17   C28   A    
C40   H31   S    
O1    Zn1   S    
C10   C13   A    
C41   H29   S    
C12   O3    A    
C36   H18   S    
C46   H40   S    
C38   H27   S    
C25   C27   A    
C26   C28   A    
C32   C33   S    
O4    Zn2   S    
C37   H21   S    
C35   O2    S    
C20   C30   S    
C11   C13   A    
C31   H7    S    
C15   C28   S    
C33   H14   S    
C40   C50   S    
C3    C47   A    
C17   C19   A    
C18   C20   A    
C5    H23   S    
C8    N5    A    
O3    Zn2   S    
C43   H36   S    
O5    Zn1   S    
C1    O4    A    
C19   O2    S    
C48   H2    S    
C34   C48   A    
C25   H46   S    
C16   C18   A    
C21   C24   A    
C2    C23   A    
C42   H37   S    
C32   H9    S    
O6    Zn1   S    
C1    O1    A    
O9    Zn1   S    
