data_mof_unit_17164.cif
_audit_creation_date              2013-03-05T15:39:44-0500
_audit_creation_method            fapswitch 2.2
_symmetry_space_group_name_H-M    P1
_symmetry_Int_Tables_number       1
_space_group_crystal_system       triclinic
_cell_length_a                    20.138267
_cell_length_b                    17.190041
_cell_length_c                    15.566691
_cell_angle_alpha                 89.992389
_cell_angle_beta                  51.688492
_cell_angle_gamma                 90.013548
_cell_volume                      4228.3632205

loop_
_atom_site_label
_atom_site_type_symbol
_atom_site_description
_atom_site_fract_x
_atom_site_fract_y
_atom_site_fract_z
_atom_type_partial_charge
C1    C     C_R   0.360778 0.191295 0.013809 0.316475
C2    C     C_R   0.623621 0.802750 0.006098 0.274779
C3    C     C_R   0.639834 0.191038 0.985497 0.318196
C4    C     C_R   0.377177 0.802286 0.993071 0.266070
C5    C     C_R   0.860749 0.691283 0.013842 0.316486
C6    C     C_R   0.123715 0.302785 0.006006 0.274953
C7    C     C_R   0.139842 0.691034 0.985486 0.318048
C8    C     C_R   0.877185 0.302286 0.993039 0.265981
N1    N     N_R   0.408680 0.130810 0.995780 -0.060111
N2    N     N_R   0.591320 0.869190 0.004220 -0.055047
N3    N     N_R   0.591320 0.130810 0.004220 -0.060570
N4    N     N_R   0.408680 0.869190 0.995780 -0.054983
N5    N     N_R   0.908680 0.630810 0.995780 -0.060128
N6    N     N_R   0.091320 0.369190 0.004220 -0.055099
N7    N     N_R   0.091320 0.630810 0.004220 -0.060576
N8    N     N_R   0.908680 0.369190 0.995780 -0.055035
C9    C     C_R   0.345602 0.833436 0.219644 -0.126855
C10   C     C_R   0.609391 0.197308 0.786469 -0.100786
C11   C     C_R   0.653725 0.832539 0.780226 -0.136802
C12   C     C_R   0.390598 0.197270 0.213498 -0.100853
C13   C     C_R   0.845601 0.333444 0.219632 -0.126522
C14   C     C_R   0.109299 0.697337 0.786518 -0.100789
C15   C     C_R   0.153721 0.332536 0.780219 -0.136537
C16   C     C_R   0.890669 0.697295 0.213455 -0.100626
H1    H     H_    0.323165 0.786862 0.197944 0.128158
H2    H     H_    0.606386 0.254061 0.817066 0.125271
H3    H     H_    0.674779 0.784496 0.801597 0.136659
H4    H     H_    0.393461 0.254022 0.183002 0.125372
H5    H     H_    0.823152 0.286891 0.197924 0.128005
H6    H     H_    0.106269 0.754085 0.817146 0.125264
H7    H     H_    0.174728 0.284440 0.801559 0.136769
H8    H     H_    0.893539 0.754041 0.182938 0.125408
N9    N     N_R   0.421410 0.867210 0.153620 -0.045888
N10   N     N_R   0.578590 0.132790 0.846380 -0.046292
N11   N     N_R   0.578590 0.867210 0.846380 -0.047951
N12   N     N_R   0.421410 0.132790 0.153620 -0.046330
N13   N     N_R   0.921410 0.367210 0.153620 -0.045898
N14   N     N_R   0.078590 0.632790 0.846380 -0.046294
N15   N     N_R   0.078590 0.367210 0.846380 -0.047954
N16   N     N_R   0.921410 0.632790 0.153620 -0.046345
C17   C     C_R   0.362593 0.891427 0.902168 -0.191114
C18   C     C_R   0.651739 0.100739 0.078578 -0.196676
C19   C     C_R   0.638071 0.891552 0.097061 -0.191686
C20   C     C_R   0.348992 0.101259 0.920368 -0.193457
C21   C     C_R   0.862581 0.391444 0.902178 -0.191128
C22   C     C_R   0.151738 0.600740 0.078580 -0.196651
C23   C     C_R   0.138139 0.391593 0.096981 -0.191630
C24   C     C_R   0.848967 0.601245 0.920402 -0.193594
H9    H     H_    0.353173 0.919199 0.848099 0.122762
H10   H     H_    0.664836 0.071414 0.128111 0.127878
H11   H     H_    0.647462 0.919205 0.151217 0.123390
H12   H     H_    0.336325 0.072282 0.870193 0.127691
H13   H     H_    0.853153 0.419228 0.848123 0.122740
H14   H     H_    0.164830 0.571418 0.128119 0.127872
H15   H     H_    0.147527 0.419249 0.151139 0.123410
H16   H     H_    0.836286 0.572259 0.870246 0.127658
N17   N     N_R   0.403840 0.921910 0.935760 -0.051502
N18   N     N_R   0.596160 0.078090 0.064240 -0.057482
N19   N     N_R   0.596160 0.921910 0.064240 -0.051606
N20   N     N_R   0.403840 0.078090 0.935760 -0.057641
N21   N     N_R   0.903840 0.421910 0.935760 -0.051506
N22   N     N_R   0.096160 0.578090 0.064240 -0.057492
N23   N     N_R   0.096160 0.421910 0.064240 -0.051645
N24   N     N_R   0.903840 0.578090 0.935760 -0.057633
C25   C     C_R   0.398647 0.106770 0.309127 -0.085117
C26   C     C_R   0.646081 0.923180 0.684018 -0.107210
C27   C     C_R   0.601442 0.106778 0.690800 -0.085341
C28   C     C_R   0.353794 0.923447 0.315903 -0.109138
C29   C     C_R   0.898724 0.606804 0.309082 -0.085008
C30   C     C_R   0.146098 0.423204 0.684028 -0.107261
C31   C     C_R   0.101342 0.606817 0.690857 -0.085153
C32   C     C_R   0.853795 0.423448 0.315900 -0.109121
H17   H     H_    0.404146 0.079951 0.367335 0.108740
H18   H     H_    0.659045 0.957312 0.616835 0.138505
H19   H     H_    0.595961 0.079948 0.632588 0.108510
H20   H     H_    0.340976 0.957466 0.383068 0.139392
H21   H     H_    0.904228 0.579981 0.367283 0.108731
H22   H     H_    0.159070 0.457355 0.616853 0.138883
H23   H     H_    0.095840 0.579983 0.632666 0.108685
H24   H     H_    0.840981 0.457463 0.383066 0.139475
N25   N     N_R   0.426250 0.076100 0.213650 -0.048676
N26   N     N_R   0.573750 0.923900 0.786350 -0.053533
N27   N     N_R   0.573750 0.076100 0.786350 -0.048613
N28   N     N_R   0.426250 0.923900 0.213650 -0.054018
N29   N     N_R   0.926250 0.576100 0.213650 -0.048658
N30   N     N_R   0.073750 0.423900 0.786350 -0.053545
N31   N     N_R   0.073750 0.576100 0.786350 -0.048652
N32   N     N_R   0.926250 0.423900 0.213650 -0.054050
C33   C     C_R   0.319623 0.171751 0.972167 0.114474
C34   C     C_R   0.657131 0.816604 0.058745 0.111889
C35   C     C_R   0.681536 0.171093 0.026391 0.122143
C36   C     C_R   0.344416 0.816259 0.939371 0.121180
C37   C     C_R   0.819577 0.671731 0.972223 0.114726
C38   C     C_R   0.157273 0.316669 0.058584 0.111814
C39   C     C_R   0.181540 0.671090 0.026386 0.122090
C40   C     C_R   0.844404 0.316277 0.939368 0.121326
C41   C     C_R   0.302253 0.867011 0.321339 0.156574
C42   C     C_R   0.625509 0.181849 0.688997 0.130185
C43   C     C_R   0.697218 0.866287 0.678617 0.160313
C44   C     C_R   0.374567 0.181796 0.310884 0.130161
C45   C     C_R   0.802262 0.367003 0.321330 0.156533
C46   C     C_R   0.125340 0.681914 0.689086 0.129952
C47   C     C_R   0.197240 0.366310 0.678617 0.159609
C48   C     C_R   0.874703 0.681853 0.310805 0.129887
Ni1   Ni    Ni4+2 0.500000 0.131570 0.000000 0.214005
Ni2   Ni    Ni4+2 0.500000 0.868430 0.000000 0.215999
Ni3   Ni    Ni4+2 0.000000 0.631570 0.000000 0.213983
Ni4   Ni    Ni4+2 0.000000 0.368430 0.000000 0.216077
Ni5   Ni    Ni4+2 0.488900 0.000000 0.862310 0.216462
Ni6   Ni    Ni4+2 0.511100 0.000000 0.137690 0.216774
Ni7   Ni    Ni4+2 0.988900 0.500000 0.862310 0.216437
Ni8   Ni    Ni4+2 0.011100 0.500000 0.137690 0.216765
C49   C     C_3   0.268114 0.208426 0.517167 0.361193
C50   C     C_3   0.829426 0.850954 0.463280 0.366273
C51   C     C_3   0.731885 0.208840 0.482644 0.361330
C52   C     C_3   0.169973 0.851187 0.536871 0.366694
C53   C     C_3   0.768180 0.708450 0.517052 0.361160
C54   C     C_3   0.329399 0.350913 0.463216 0.366055
C55   C     C_3   0.231697 0.708904 0.482751 0.361226
C56   C     C_3   0.670060 0.351091 0.536835 0.366711
C57   C     C_3   0.716206 0.780544 0.536421 -0.351077
C58   C     C_3   0.382594 0.277543 0.442075 -0.343954
C59   C     C_3   0.283436 0.781196 0.463460 -0.350420
C60   C     C_3   0.617147 0.277477 0.557870 -0.344770
C61   C     C_3   0.216143 0.280522 0.536543 -0.350885
C62   C     C_3   0.882633 0.777590 0.442138 -0.343644
C63   C     C_3   0.783575 0.281171 0.463363 -0.350225
C64   C     C_3   0.117010 0.777603 0.557922 -0.344661
H25   H     H_    0.647621 0.780124 0.575573 0.185449
H26   H     H_    0.451462 0.276586 0.400959 0.178393
H27   H     H_    0.352021 0.780983 0.424313 0.185202
H28   H     H_    0.548286 0.276239 0.598971 0.178151
H29   H     H_    0.147545 0.280108 0.575762 0.185438
H30   H     H_    0.951490 0.776654 0.401098 0.178319
H31   H     H_    0.852164 0.281009 0.424189 0.185204
H32   H     H_    0.048151 0.776413 0.598998 0.178156
C65   C     C_3   0.758745 0.822944 0.579147 -0.090242
C66   C     C_3   0.338714 0.236163 0.400917 -0.099323
C67   C     C_3   0.240710 0.823470 0.420865 -0.088324
C68   C     C_3   0.661187 0.236327 0.598963 -0.098857
C69   C     C_3   0.258763 0.322961 0.579139 -0.089950
C70   C     C_3   0.838836 0.736231 0.400840 -0.099044
C71   C     C_3   0.740795 0.323409 0.420820 -0.088335
C72   C     C_3   0.161003 0.736415 0.599061 -0.098727
C73   C     C_3   0.309833 0.249094 0.560101 0.212755
C74   C     C_3   0.787720 0.809929 0.420193 0.185367
C75   C     C_3   0.690017 0.249289 0.439771 0.210124
C76   C     C_3   0.211875 0.810311 0.579791 0.184589
C77   C     C_3   0.809823 0.749088 0.560112 0.212559
C78   C     C_3   0.287607 0.309857 0.420266 0.185419
C79   C     C_3   0.189877 0.749387 0.439835 0.210098
C80   C     C_3   0.712010 0.310253 0.579709 0.184586
C81   C     C_2   0.239398 0.719749 0.023719 -0.207473
C82   C     C_2   0.793019 0.262703 0.934757 -0.147521
C83   C     C_2   0.762968 0.721254 0.973696 -0.186341
C84   C     C_2   0.208086 0.262736 0.063496 -0.146461
C85   C     C_2   0.739402 0.219749 0.023711 -0.207683
C86   C     C_2   0.293047 0.762673 0.934747 -0.147397
C87   C     C_2   0.263064 0.221298 0.973589 -0.185507
C88   C     C_2   0.707971 0.762670 0.063626 -0.146047
H33   H     H_    0.236650 0.721382 0.095715 0.144707
H34   H     H_    0.794590 0.262163 0.863765 0.149983
H35   H     H_    0.769170 0.726058 0.899438 0.138222
H36   H     H_    0.204496 0.260159 0.136009 0.148066
H37   H     H_    0.736707 0.221338 0.095669 0.144835
H38   H     H_    0.294644 0.762108 0.863733 0.149932
H39   H     H_    0.269314 0.226121 0.899303 0.138200
H40   H     H_    0.704417 0.760108 0.136112 0.148038
C89   C     C_3   0.378533 0.273066 0.027942 -1.036157
H41   H     H_    0.380042 0.312823 0.970514 0.272386
H42   H     H_    0.328686 0.293273 0.112722 0.246049
H43   H     H_    0.441398 0.276446 0.008191 0.242897
C90   C     C_3   0.595263 0.724483 0.996658 -0.990845
H44   H     H_    0.649108 0.684991 0.940685 0.248075
H45   H     H_    0.552333 0.697111 0.078858 0.275974
H46   H     H_    0.560818 0.731284 0.963329 0.250842
C91   C     C_3   0.622234 0.272935 0.971595 -1.036326
H47   H     H_    0.621663 0.312597 0.028355 0.272962
H48   H     H_    0.671553 0.293029 0.886571 0.245349
H49   H     H_    0.559031 0.276619 0.992377 0.242985
C92   C     C_3   0.412900 0.724744 0.991219 -0.987635
H50   H     H_    0.371194 0.675523 0.007194 0.263057
H51   H     H_    0.474473 0.715882 0.908947 0.265097
H52   H     H_    0.422977 0.722065 0.053223 0.246312
C93   C     C_3   0.878474 0.773059 0.028000 -1.036093
H53   H     H_    0.879932 0.812822 0.970617 0.272389
H54   H     H_    0.828637 0.793237 0.112799 0.246039
H55   H     H_    0.941356 0.776465 0.008202 0.242892
C94   C     C_3   0.095626 0.224476 0.996252 -0.991230
H56   H     H_    0.149652 0.185513 0.939109 0.247552
H57   H     H_    0.053607 0.196504 0.078097 0.276378
H58   H     H_    0.060330 0.231355 0.964152 0.251120
C95   C     C_3   0.122261 0.772930 0.971552 -1.036043
H59   H     H_    0.121724 0.812606 0.028273 0.273018
H60   H     H_    0.171575 0.792995 0.886511 0.245319
H61   H     H_    0.059046 0.776625 0.992366 0.242969
C96   C     C_3   0.912938 0.224732 0.991091 -0.987655
H62   H     H_    0.871445 0.175483 0.006484 0.263233
H63   H     H_    0.974688 0.216066 0.908954 0.265015
H64   H     H_    0.922646 0.221849 0.053427 0.246206
N33   N     N_R   0.232247 0.130330 0.545120 0.241539
O1    O     O_R   0.239664 0.084998 0.605600 -0.392737
O2    O     O_R   0.194274 0.105090 0.506925 -0.326926
N34   N     N_R   0.865074 0.929012 0.436323 0.259241
O3    O     O_R   0.883472 0.964378 0.350113 -0.323725
O4    O     O_R   0.891049 0.958102 0.487968 -0.325279
N35   N     N_R   0.768068 0.130889 0.454516 0.241353
O5    O     O_R   0.760943 0.085526 0.393810 -0.392270
O6    O     O_R   0.806215 0.105865 0.492557 -0.326830
N36   N     N_R   0.133918 0.929058 0.564227 0.259296
O7    O     O_R   0.116852 0.964894 0.649355 -0.322578
O8    O     O_R   0.106904 0.957780 0.513648 -0.325657
N37   N     N_R   0.732327 0.630345 0.544931 0.241546
O9    O     O_R   0.739704 0.584992 0.605429 -0.392658
O10   O     O_R   0.694390 0.605127 0.506677 -0.327031
N38   N     N_R   0.365159 0.428926 0.436047 0.258926
O11   O     O_R   0.381823 0.464916 0.351235 -0.322918
O12   O     O_R   0.392178 0.457742 0.486571 -0.325552
N39   N     N_R   0.267807 0.630930 0.454651 0.241495
O13   O     O_R   0.260437 0.585533 0.394194 -0.391913
O14   O     O_R   0.305952 0.605861 0.492679 -0.326967
N40   N     N_R   0.633964 0.428945 0.564215 0.259243
O15   O     O_R   0.616997 0.464835 0.649254 -0.322610
O16   O     O_R   0.606885 0.457630 0.513696 -0.325652
C97   C     C_3   0.327432 0.214610 0.634348 -0.914318
H65   H     H_    0.377372 0.169500 0.588850 0.252177
H66   H     H_    0.349479 0.261062 0.660835 0.245743
H67   H     H_    0.269599 0.187129 0.707208 0.256090
C98   C     C_3   0.769216 0.847095 0.348237 -0.865307
H68   H     H_    0.725009 0.896610 0.392571 0.263796
H69   H     H_    0.828454 0.869213 0.271396 0.262879
H70   H     H_    0.739477 0.803672 0.328820 0.234313
C99   C     C_3   0.672590 0.214596 0.365463 -0.909877
H71   H     H_    0.623112 0.169035 0.410735 0.251578
H72   H     H_    0.649993 0.260820 0.339422 0.245429
H73   H     H_    0.730669 0.187652 0.292330 0.258123
C100  C     C_3   0.230360 0.847499 0.651749 -0.864289
H74   H     H_    0.274402 0.897167 0.607513 0.264404
H75   H     H_    0.171083 0.869396 0.728695 0.262685
H76   H     H_    0.260283 0.804158 0.670969 0.233981
C101  C     C_3   0.827344 0.714560 0.634420 -0.914189
H77   H     H_    0.877285 0.669448 0.588938 0.252152
H78   H     H_    0.849361 0.760990 0.660977 0.245679
H79   H     H_    0.769484 0.687071 0.707237 0.256256
C102  C     C_3   0.268995 0.346925 0.348369 -0.864990
H80   H     H_    0.224731 0.396399 0.392726 0.263957
H81   H     H_    0.328184 0.369080 0.271502 0.262613
H82   H     H_    0.239283 0.303434 0.328997 0.234315
C103  C     C_3   0.172455 0.714721 0.365506 -0.909761
H83   H     H_    0.122928 0.669200 0.410783 0.251620
H84   H     H_    0.149922 0.760971 0.339410 0.245397
H85   H     H_    0.230520 0.687732 0.292405 0.258065
C104  C     C_3   0.730496 0.347448 0.651660 -0.864401
H86   H     H_    0.774536 0.397115 0.607416 0.264389
H87   H     H_    0.671222 0.369346 0.728603 0.262656
H88   H     H_    0.760418 0.304112 0.670884 0.234035

loop_
_geom_bond_atom_site_label_1
_geom_bond_atom_site_label_2
_geom_bond_distance
_ccdc_geom_bond_type
C7    C95   1.499876 S    
N16   N29   1.394676 A    
C78   C102  1.522870 S    
C27   N27   1.331406 A    
C20   N20   1.328289 A    
C51   N35   1.457133 S    
C30   H22   1.080468 S    
N36   O7    1.299718 A    
N33   O2    1.300058 A    
N33   O1    1.300048 A    
C70   C74   1.539984 S    
N13   N32   1.394816 A    
C29   H21   1.081733 S    
C10   H2    1.070850 S    
C3    N3    1.325790 A    
C5    C93   1.499818 S    
C53   C77   1.528865 S    
C72   C76   1.539940 S    
N29   Ni8   1.877646 S    
C19   H11   1.081744 S    
N25   Ni6   1.877646 S    
C18   N18   1.328062 A    
C31   H23   1.081729 S    
N34   O4    1.300547 A    
C51   C63   1.526947 S    
C79   C103  1.523277 S    
C92   H50   1.106248 S    
C66   C78   1.539858 S    
C57   C65   1.553617 S    
C71   C75   1.543167 S    
C103  H83   1.109839 S    
C46   C72   1.452197 S    
C22   N22   1.328058 A    
C36   C86   1.419775 S    
C63   H31   1.111488 S    
C18   C35   1.370265 A    
C98   H70   1.109722 S    
C64   H32   1.110323 S    
C2    C90   1.503870 S    
C23   N23   1.334330 A    
C80   C104  1.522793 S    
C50   C62   1.552530 S    
C62   C77   1.556708 S    
C93   H54   1.108041 S    
C26   N26   1.335113 A    
C32   C45   1.384316 A    
N1    Ni1   1.880501 S    
C14   N14   1.329220 A    
C100  H75   1.108552 S    
C59   C67   1.554223 S    
N23   Ni8   1.901744 S    
C97   H67   1.108040 S    
C25   H17   1.081732 S    
N35   O6    1.300005 A    
C60   H28   1.110300 S    
C3    C35   1.375135 A    
C101  H77   1.109844 S    
C54   C58   1.552489 S    
C50   C65   1.525565 S    
N7    Ni3   1.880505 S    
C81   C86   1.331914 D    
C54   C78   1.533298 S    
C53   C57   1.527000 S    
C28   C41   1.384301 A    
C52   N36   1.455217 S    
N20   Ni5   1.901743 S    
C27   C42   1.372538 A    
C97   H66   1.109802 S    
C23   C38   1.370915 A    
C2    N2    1.323753 A    
C40   C82   1.419772 S    
C22   C39   1.370257 A    
C94   H58   1.099686 S    
C61   C69   1.553709 S    
C51   C68   1.527461 S    
C6    C38   1.367231 A    
N1    N20   1.347903 A    
C8    C40   1.369501 A    
N3    Ni1   1.880505 S    
N30   Ni7   1.877648 S    
C56   N40   1.455198 S    
N27   Ni5   1.876865 S    
C101  H78   1.109824 S    
C49   N33   1.457047 S    
C4    C92   1.506615 S    
C4    N4    1.326567 A    
N3    N18   1.347765 A    
C11   H3    1.071194 S    
C99   H71   1.109828 S    
C68   C80   1.539883 S    
C5    N5    1.324939 A    
C19   N19   1.334362 A    
C52   C67   1.525883 S    
C13   C45   1.374082 A    
C5    C37   1.373363 A    
C54   C69   1.525600 S    
N37   O10   1.300077 A    
C83   C88   1.330984 D    
C21   H13   1.081773 S    
C8    N8    1.326650 A    
C49   C61   1.526968 S    
C90   H44   1.106761 S    
C100  H74   1.109964 S    
C55   N39   1.457038 S    
C55   C72   1.527491 S    
C89   H42   1.108042 S    
C65   C77   1.542898 S    
C8    C96   1.506671 S    
C96   H62   1.106212 S    
C56   C71   1.525780 S    
C9    N9    1.333430 A    
C47   C69   1.452663 S    
C83   H35   1.086095 S    
C17   H9    1.081772 S    
C32   N32   1.335288 A    
N11   N26   1.394679 A    
C60   C68   1.549110 S    
C33   C87   1.411535 S    
C52   C76   1.533410 S    
C92   H51   1.110012 S    
C55   C79   1.528924 S    
N15   Ni4   1.879178 S    
C60   C75   1.556804 S    
C15   C47   1.373876 A    
C103  H84   1.109803 S    
C19   C34   1.370975 A    
C56   C80   1.533354 S    
C24   C37   1.370323 A    
C76   C100  1.522840 S    
C28   N28   1.335319 A    
C89   H41   1.110530 S    
C37   C83   1.411697 S    
C1    N1    1.324862 A    
N38   O11   1.299505 A    
C58   C66   1.548908 S    
C82   C85   1.331931 D    
N9    N28   1.394817 A    
C100  H76   1.109706 S    
C85   H37   1.087677 S    
N39   O13   1.300024 A    
C104  H87   1.108518 S    
N31   Ni7   1.876863 S    
C11   C43   1.373815 A    
C30   C47   1.384654 A    
C93   H55   1.103672 S    
C7    N7    1.325793 A    
C12   H4    1.070679 S    
C91   H48   1.107865 S    
N37   O9    1.300032 A    
C73   C97   1.523367 S    
C62   C70   1.549040 S    
C21   N21   1.332789 A    
N35   O5    1.299972 A    
C81   H33   1.087671 S    
C16   C48   1.366033 A    
C15   H7    1.071074 S    
C26   C43   1.384618 A    
C96   H64   1.103406 S    
C53   N37   1.457107 S    
C16   H8    1.070685 S    
C98   H68   1.109983 S    
N14   Ni3   1.879163 S    
N39   O14   1.300066 A    
C64   C72   1.549174 S    
N17   Ni5   1.900958 S    
C64   C79   1.556837 S    
C25   N25   1.331142 A    
C12   C44   1.366088 A    
N12   N25   1.394676 A    
C62   H30   1.110329 S    
C91   H49   1.103723 S    
C22   H14   1.081807 S    
C95   H60   1.107867 S    
C97   H65   1.109839 S    
C92   H52   1.103521 S    
N22   Ni8   1.900956 S    
C63   C71   1.554202 S    
N34   O3    1.300399 A    
N40   O16   1.300263 A    
C99   H72   1.109771 S    
C50   C74   1.533280 S    
N26   Ni5   1.877647 S    
C90   H45   1.110942 S    
C44   C66   1.450858 S    
N13   Ni4   1.879163 S    
N16   Ni3   1.879178 S    
C31   N31   1.331464 A    
N4    N17   1.347767 A    
C75   C99   1.523225 S    
C77   C101  1.523399 S    
C31   C46   1.372589 A    
C18   H10   1.081808 S    
C91   H47   1.110516 S    
C49   C73   1.528834 S    
C102  H81   1.108546 S    
C58   C73   1.556696 S    
C89   H43   1.103632 S    
C50   N34   1.455272 S    
N10   N27   1.394819 A    
N2    Ni2   1.880499 S    
C27   H19   1.081729 S    
N8    N21   1.347767 A    
C30   N30   1.335151 A    
C1    C89   1.499830 S    
C29   N29   1.331194 A    
C67   C79   1.543174 S    
C86   H38   1.085850 S    
C23   H15   1.081743 S    
C29   C48   1.372327 A    
C61   H29   1.111514 S    
C94   H56   1.106408 S    
C24   H16   1.081819 S    
C103  H85   1.108190 S    
C1    C33   1.373311 A    
C2    C34   1.367284 A    
C14   H6    1.070856 S    
C59   H27   1.111514 S    
N12   Ni1   1.879178 S    
N18   Ni6   1.900956 S    
N10   Ni1   1.879163 S    
C82   H34   1.085837 S    
C84   C87   1.330932 D    
N9    Ni2   1.879163 S    
C25   C44   1.372259 A    
C57   H25   1.111524 S    
N24   Ni7   1.901743 S    
C104  H88   1.109676 S    
C90   H46   1.100115 S    
N19   Ni6   1.901744 S    
C55   C59   1.526914 S    
C28   H20   1.080440 S    
C58   H26   1.110317 S    
C7    C39   1.375142 A    
N36   O8    1.300286 A    
C14   C46   1.366623 A    
N14   N31   1.394821 A    
C51   C75   1.528929 S    
C9    H1    1.071610 S    
C101  H79   1.108078 S    
C96   H63   1.110020 S    
N2    N19   1.347901 A    
C3    C91   1.499885 S    
C17   N17   1.332812 A    
C6    N6    1.323723 A    
C98   H69   1.108561 S    
C63   C80   1.539942 S    
C11   N11   1.331833 A    
C95   H61   1.103754 S    
N4    Ni2   1.880507 S    
C45   C71   1.454203 S    
C20   H12   1.081820 S    
C93   H53   1.110531 S    
C104  H86   1.109947 S    
N5    N24   1.347903 A    
C13   H5    1.071578 S    
C57   C74   1.539960 S    
C10   N10   1.329173 A    
N21   Ni7   1.900958 S    
C15   N15   1.331808 A    
N6    N23   1.347901 A    
C6    C94   1.503752 S    
N6    Ni4   1.880499 S    
C69   C73   1.542951 S    
C16   N16   1.328917 A    
N7    N22   1.347765 A    
C87   H39   1.086021 S    
C53   C70   1.527499 S    
C48   C70   1.450978 S    
C88   H40   1.086336 S    
C34   C88   1.417889 S    
N40   O15   1.299722 A    
C99   H73   1.108163 S    
N28   Ni6   1.876866 S    
C35   C85   1.413698 S    
C32   H24   1.080453 S    
C24   N24   1.328324 A    
C61   C78   1.539914 S    
N8    Ni4   1.880507 S    
N32   Ni8   1.876867 S    
C56   C60   1.552636 S    
C17   C36   1.369584 A    
C13   N13   1.333366 A    
C59   C76   1.539970 S    
C84   H36   1.086340 S    
C38   C84   1.417736 S    
C95   H59   1.110512 S    
C52   C64   1.552699 S    
C102  H82   1.109705 S    
C42   C68   1.451997 S    
N5    Ni3   1.880501 S    
N11   Ni2   1.879178 S    
C12   N12   1.328880 A    
C49   C66   1.527400 S    
C43   C65   1.452563 S    
C54   N38   1.455218 S    
C10   C42   1.366641 A    
N15   N30   1.394678 A    
C39   C81   1.413691 S    
C102  H80   1.109968 S    
C21   C40   1.369517 A    
C9    C41   1.374155 A    
C41   C67   1.454328 S    
C20   C33   1.370290 A    
N38   O12   1.300225 A    
C94   H57   1.110594 S    
C4    C36   1.369512 A    
C74   C98   1.522868 S    
C26   H18   1.080460 S    
