data_mof_unit_34127.cif
_audit_creation_date              2012-12-11T17:12:45-0500
_audit_creation_method            fapswitch 2.2
_symmetry_space_group_name_H-M    P1
_symmetry_Int_Tables_number       1
_space_group_crystal_system       triclinic
_cell_length_a                    17.143827
_cell_length_b                    6.876216
_cell_length_c                    14.436073
_cell_angle_alpha                 90.114647
_cell_angle_beta                  109.793965
_cell_angle_gamma                 89.70744
_cell_volume                      1601.22268442

loop_
_atom_site_label
_atom_site_type_symbol
_atom_type_description
_atom_site_fract_x
_atom_site_fract_y
_atom_site_fract_z
_atom_type_partial_charge
O1    O     O_R   0.314130 0.635770 0.168990 -0.542621
O2    O     O_R   0.685870 0.364230 0.831010 -0.544177
O3    O     O_R   0.185870 0.135770 0.331010 -0.544532
O4    O     O_R   0.814130 0.864230 0.668990 -0.535642
O5    O     O_R   0.146800 0.302460 0.139760 -0.537718
O6    O     O_R   0.853200 0.697540 0.860240 -0.537412
O7    O     O_R   0.353200 0.802460 0.360240 -0.538313
O8    O     O_R   0.646800 0.197540 0.639760 -0.535717
C1    C     C_R   0.113858 0.476075 0.112950 0.727009
C2    C     C_R   0.886106 0.523926 0.887111 0.728574
C3    C     C_R   0.385911 0.975772 0.387504 0.721095
C4    C     C_R   0.613065 0.024676 0.614288 0.717473
O9    O     O_R   0.311100 0.305780 0.157130 -0.543423
O10   O     O_R   0.688900 0.694220 0.842870 -0.543763
O11   O     O_R   0.188900 0.805780 0.342870 -0.544423
O12   O     O_R   0.811100 0.194220 0.657130 -0.543512
O13   O     O_R   0.351340 0.139640 0.348510 -0.534320
O14   O     O_R   0.648660 0.860360 0.651490 -0.542009
O15   O     O_R   0.148660 0.639640 0.151490 -0.532993
O16   O     O_R   0.851340 0.360360 0.848510 -0.533414
C5    C     C_R   0.332645 0.475357 0.135594 0.727522
C6    C     C_R   0.668049 0.523782 0.865375 0.724727
C7    C     C_R   0.173158 0.977970 0.370747 0.721617
C8    C     C_R   0.829339 0.023005 0.631263 0.735603
C9    C     C_1   0.532744 0.009494 0.534347 -0.180222
C10   C     C_1   0.465951 0.991192 0.467845 -0.184954
C11   C     C_1   0.966447 0.508591 0.966939 -0.187199
C12   C     C_1   0.033506 0.491417 0.033144 -0.184984
O17   O     O_3   0.263010 0.470920 0.312770 -0.374440
O18   O     O_3   0.736990 0.529080 0.687230 -0.368241
O19   O     O_3   0.236990 0.970920 0.187230 -0.366692
O20   O     O_3   0.763010 0.029080 0.812770 -0.370556
V1    V     V_3+5 0.247590 0.194450 0.238360 1.408461
V2    V     V_3+5 0.752410 0.805550 0.761640 1.407181
V3    V     V_3+5 0.252410 0.694450 0.261640 1.405436
V4    V     V_3+5 0.747590 0.305550 0.738360 1.411895
C13   C     C_R   0.125745 0.999494 0.439846 -0.120505
C14   C     C_R   0.877672 0.005735 0.562438 -0.090915
C15   C     C_R   0.380247 0.489925 0.067465 -0.094147
C16   C     C_R   0.619721 0.504412 0.932954 -0.102571
C17   C     C_R   0.913275 0.846469 0.428599 0.115184
C18   C     C_R   0.091386 0.164888 0.572810 0.137383
C19   C     C_R   0.591816 0.340633 0.069570 0.131600
C20   C     C_R   0.403464 0.636207 0.924426 0.129509
C21   C     C_R   0.853540 0.887645 0.475485 0.107044
C22   C     C_R   0.145842 0.139455 0.517087 0.109662
C23   C     C_R   0.646979 0.381403 0.016866 0.111948
C24   C     C_R   0.348532 0.590053 0.976858 0.109563
C25   C     C_R   0.954886 0.097941 0.591557 -0.280644
C26   C     C_R   0.052595 0.895208 0.417899 -0.279857
C27   C     C_R   0.540297 0.585639 0.903477 -0.278795
C28   C     C_R   0.460610 0.415575 0.098507 -0.280573
C29   C     C_R   0.013404 0.066201 0.543478 0.062845
C30   C     C_R   0.993413 0.933118 0.464097 0.067707
C31   C     C_R   0.485560 0.554889 0.956399 0.061383
C32   C     C_R   0.512706 0.435263 0.041624 0.056996
H1    H     H_    0.040552 0.794237 0.357545 0.153959
H2    H     H_    0.968229 0.193804 0.654178 0.139237
H3    H     H_    0.482137 0.347325 0.170098 0.134523
H4    H     H_    0.521408 0.665703 0.835204 0.135328
C33   C     C_3   0.225133 0.259704 0.539970 -0.360150
C34   C     C_3   0.301496 0.143454 0.599569 -0.788014
H5    H     H_    0.296424 0.100580 0.671392 0.229205
H6    H     H_    0.308343 0.011622 0.558428 0.212587
H7    H     H_    0.357785 0.234020 0.613697 0.221510
H8    H     H_    0.234025 0.315334 0.472759 0.209064
H9    H     H_    0.222815 0.396366 0.579289 0.183675
C35   C     C_3   0.765540 0.810287 0.424236 -0.384706
C36   C     C_3   0.694761 0.887225 0.454460 -0.771997
H10   H     H_    0.692906 0.801100 0.517678 0.257444
H11   H     H_    0.700141 0.045606 0.469832 0.209294
H12   H     H_    0.634928 0.861626 0.394286 0.207990
H13   H     H_    0.747144 0.847805 0.344868 0.201051
H14   H     H_    0.766454 0.649103 0.430908 0.181160
C37   C     C_3   0.255666 0.637684 0.936708 -0.370497
C38   C     C_3   0.203463 0.452596 0.912745 -0.778166
H15   H     H_    0.226628 0.353783 0.866987 0.224853
H16   H     H_    0.205368 0.373853 0.980169 0.223510
H17   H     H_    0.137700 0.490507 0.872199 0.216911
H18   H     H_    0.237807 0.726776 0.990576 0.187986
H19   H     H_    0.236531 0.723366 0.868154 0.187938
C39   C     C_3   0.735680 0.300267 0.050157 -0.362867
C40   C     C_3   0.798867 0.461248 0.089425 -0.788119
H20   H     H_    0.797780 0.566749 0.031102 0.217047
H21   H     H_    0.784405 0.538656 0.148964 0.242253
H22   H     H_    0.862192 0.397880 0.119699 0.219063
H23   H     H_    0.749167 0.192058 0.109633 0.185930
H24   H     H_    0.748232 0.221826 0.989641 0.200997
C41   C     C_3   0.890094 0.722360 0.334866 -0.361206
C42   C     C_3   0.874867 0.851812 0.243710 -0.776427
H25   H     H_    0.808543 0.895023 0.213687 0.216376
H26   H     H_    0.912540 0.986493 0.260547 0.235950
H27   H     H_    0.891698 0.772275 0.186281 0.223240
H28   H     H_    0.938754 0.611670 0.340471 0.170922
H29   H     H_    0.835381 0.628876 0.323463 0.164346
C43   C     C_3   0.116198 0.298290 0.662437 -0.375971
C44   C     C_3   0.081164 0.503639 0.635150 -0.757224
H30   H     H_    0.101870 0.565556 0.576453 0.229775
H31   H     H_    0.012369 0.502193 0.608529 0.230133
H32   H     H_    0.103195 0.599969 0.700529 0.220419
H33   H     H_    0.096974 0.238315 0.722503 0.169367
H34   H     H_    0.184254 0.304260 0.697712 0.180341
C45   C     C_3   0.615437 0.190406 0.152411 -0.351236
C46   C     C_3   0.665441 0.283573 0.250586 -0.771935
H35   H     H_    0.629710 0.403802 0.268960 0.225744
H36   H     H_    0.679423 0.173216 0.309582 0.230199
H37   H     H_    0.724926 0.341746 0.248292 0.231581
H38   H     H_    0.560391 0.116776 0.159419 0.172070
H39   H     H_    0.649036 0.064687 0.135661 0.162004
C47   C     C_3   0.374532 0.769994 0.834932 -0.357326
C48   C     C_3   0.336422 0.652061 0.740714 -0.765659
H40   H     H_    0.315369 0.749969 0.676112 0.219115
H41   H     H_    0.382571 0.548383 0.730204 0.228046
H42   H     H_    0.282215 0.569222 0.744227 0.237639
H43   H     H_    0.330375 0.882086 0.842220 0.161900
H44   H     H_    0.425418 0.862085 0.828968 0.171685

loop_
_geom_bond_atom_site_label_1
_geom_bond_atom_site_label_2
_ccdc_geom_bond_type
C2    C11   S    
C16   C23   A    
C17   C41   S    
C31   C32   A    
O1    C5    A    
C43   H34   S    
O3    C7    A    
C48   H40   S    
C38   H17   S    
C46   H36   S    
C44   H30   S    
C14   C25   A    
C29   C30   A    
O7    C3    A    
C26   C30   A    
C18   C43   S    
O20   V4    S    
C38   H16   S    
C18   C29   A    
C18   C22   A    
O4    C8    A    
C39   H24   S    
O3    V1    S    
C35   H14   S    
C39   H23   S    
O17   V1    S    
O8    V4    S    
C23   C39   S    
C41   H28   S    
C36   H11   S    
C47   C48   S    
C14   C21   A    
C34   H6    S    
C33   H8    S    
C1    O15   A    
C2    O16   A    
C35   C36   S    
O5    V1    S    
O2    C6    A    
C8    C14   S    
O19   V1    S    
C45   H38   S    
C37   H18   S    
O11   C7    A    
C15   C28   A    
O12   C8    A    
C43   H33   S    
O9    V1    S    
C24   C37   S    
C36   H10   S    
O13   V1    S    
O11   V3    S    
C46   H35   S    
C44   H31   S    
O4    V2    S    
O18   V2    S    
C22   C33   S    
C38   H15   S    
C37   H19   S    
C3    C10   S    
C9    C10   T    
C7    C13   S    
C25   H2    S    
O6    V2    S    
O20   V2    S    
C41   H29   S    
C36   H12   S    
C37   C38   S    
O5    C1    A    
C34   H5    S    
C28   H3    S    
C33   H9    S    
C42   H26   S    
C40   H20   S    
C5    C15   S    
O8    C4    A    
C6    C16   S    
C43   C44   S    
C21   C35   S    
O9    C5    A    
C48   H41   S    
O14   V2    S    
C40   H21   S    
O19   V3    S    
C41   C42   S    
C47   H44   S    
C45   C46   S    
C44   H32   S    
O1    V3    S    
C42   H27   S    
O2    V4    S    
C3    O13   A    
C34   H7    S    
C26   H1    S    
O7    V3    S    
O10   V2    S    
O6    C2    A    
C16   C27   A    
O17   V3    S    
O18   V4    S    
C4    C9    S    
C45   H39   S    
O10   C6    A    
C35   H13   S    
O15   V3    S    
O12   V4    S    
C13   C26   A    
C20   C31   A    
C42   H25   S    
C25   C29   A    
C48   H42   S    
C27   C31   A    
C33   C34   S    
C19   C45   S    
C17   C30   A    
O16   V4    S    
C28   C32   A    
C19   C32   A    
C40   H22   S    
C39   C40   S    
C4    O14   A    
C11   C12   T    
C17   C21   A    
C27   H4    S    
C13   C22   A    
C19   C23   A    
C47   H43   S    
C46   H37   S    
C20   C24   A    
C1    C12   S    
C15   C24   A    
C20   C47   S    
