data_mof_unit_61597.cif
_audit_creation_date              2013-03-05T16:36:59-0500
_audit_creation_method            fapswitch 2.2
_symmetry_space_group_name_H-M    P1
_symmetry_Int_Tables_number       1
_space_group_crystal_system       triclinic
_cell_length_a                    16.003433
_cell_length_b                    14.781571
_cell_length_c                    10.944016
_cell_angle_alpha                 90.000073
_cell_angle_beta                  89.938663
_cell_angle_gamma                 90.000051
_cell_volume                      2588.86986454

loop_
_atom_site_label
_atom_site_type_symbol
_atom_site_description
_atom_site_fract_x
_atom_site_fract_y
_atom_site_fract_z
_atom_type_partial_charge
O1    O     O_R   0.380310 0.575320 0.500020 -0.568675
O2    O     O_R   0.619690 0.575320 0.499980 -0.568678
O3    O     O_R   0.380310 0.424640 0.499970 -0.552917
O4    O     O_R   0.619690 0.424640 0.500030 -0.552910
C1    C     C_R   0.340898 0.499955 0.499872 0.823609
C2    C     C_R   0.659102 0.499955 0.500127 0.823606
O5    O     O_R   0.500000 0.575320 0.321940 -0.523703
O6    O     O_R   0.500000 0.575320 0.678060 -0.523704
O7    O     O_R   0.500000 0.424640 0.321880 -0.596900
O8    O     O_R   0.500000 0.424640 0.678120 -0.596903
C3    C     C_R   0.504517 0.500013 0.265093 0.773330
C4    C     C_R   0.495483 0.500013 0.734907 0.773326
Cu1   Cu    Cu3+1 0.500000 0.589220 0.500000 1.110002
Cu2   Cu    Cu3+1 0.500000 0.410780 0.500000 1.074351
C5    C     C_2   0.505698 0.431457 0.934008 -0.178485
C6    C     C_2   0.494303 0.431457 0.065991 -0.178483
C7    C     C_2   0.478981 0.500403 0.864737 0.294054
C8    C     C_2   0.521020 0.500403 0.135263 0.294054
H1    H     H_    0.537075 0.373594 0.893383 0.186016
H2    H     H_    0.462926 0.373594 0.106616 0.186018
H3    H     H_    0.076493 0.640511 0.497498 0.189644
H4    H     H_    0.923507 0.640509 0.502606 0.189644
C9    C     C_R   0.956595 0.576530 0.501819 -0.174654
C10   C     C_R   0.043404 0.576531 0.498241 -0.174646
C11   C     C_R   0.912699 0.494865 0.503402 -0.026240
C12   C     C_R   0.087301 0.494868 0.496601 -0.026242
C13   C     C_R   0.955833 0.411540 0.501494 0.253680
C14   C     C_R   0.044167 0.411542 0.498455 0.253687
C15   C     C_1   0.823134 0.497950 0.502084 0.083246
C16   C     C_1   0.176866 0.497951 0.497918 0.083231
C17   C     C_1   0.251855 0.499580 0.498983 -0.078521
C18   C     C_1   0.748145 0.499580 0.501018 -0.078512
C19   C     C_R   0.521290 0.951939 0.606472 0.322656
C20   C     C_R   0.478710 0.951939 0.393527 0.322656
C21   C     C_R   0.500000 0.902862 0.500000 -0.288384
C22   C     C_R   0.478697 0.048077 0.393533 0.323962
C23   C     C_R   0.521304 0.048078 0.606466 0.323961
C24   C     C_R   0.500000 0.097149 0.500000 -0.273940
C25   C     C_1   0.500000 0.802579 0.500000 0.413953
C26   C     C_1   0.500000 0.197424 0.500000 0.411923
N1    N     N_1   0.500000 0.276710 0.500000 -0.137027
N2    N     N_1   0.500000 0.723290 0.500000 -0.132871
Cl1   Cl    Cl    0.414230 0.588111 0.921843 -0.454724
Cl2   Cl    Cl    0.585770 0.588111 0.078158 -0.454725
N3    N     N_R   0.910432 0.327600 0.498063 0.159027
O9    O     O_R   0.929789 0.265724 0.418333 -0.241732
O10   O     O_R   0.848972 0.313028 0.573471 -0.293950
N4    N     N_R   0.089570 0.327603 0.501828 0.159029
O11   O     O_R   0.070233 0.265708 0.581539 -0.241750
O12   O     O_R   0.151004 0.313046 0.426372 -0.293928
Cl3   Cl    Cl    0.548242 0.107296 0.741150 -0.425265
Cl4   Cl    Cl    0.451758 0.107295 0.258849 -0.425260
Cl5   Cl    Cl    0.548169 0.892736 0.741188 -0.382468
Cl6   Cl    Cl    0.451830 0.892735 0.258812 -0.382466

loop_
_geom_bond_atom_site_label_1
_geom_bond_atom_site_label_2
_geom_bond_distance
_ccdc_geom_bond_type
C4    C7    1.444931 S    
C2    C18   1.425048 S    
O7    Cu2   1.960085 S    
C7    Cl1   1.773068 S    
C3    C8    1.444931 S    
C20   Cl6   1.768013 S    
C23   C24   1.414508 A    
C8    Cl2   1.773068 S    
C11   C13   1.412078 A    
C12   C14   1.412070 A    
C22   Cl4   1.768066 S    
O6    C4    1.277218 A    
C16   C17   1.200389 T    
C6    H2    1.086683 S    
C13   N3    1.438355 S    
N4    O12   1.301187 A    
N3    O10   1.301216 A    
O4    Cu2   1.926375 S    
Cu1   Cu2   2.637622 S    
O5    C3    1.277218 A    
O7    C3    1.277761 A    
C14   N4    1.438343 S    
H4    C9    1.083898 S    
O2    C2    1.280176 A    
O3    Cu2   1.926377 S    
O8    C4    1.277760 A    
Cu2   N1    1.981767 S    
O1    C1    1.280176 A    
C22   C24   1.414510 A    
Cu1   N2    1.981767 S    
C24   C26   1.482229 S    
C10   C12   1.396756 A    
C12   C16   1.434156 S    
C15   C18   1.200389 T    
C20   C22   1.421074 A    
C9    C11   1.396759 A    
C19   Cl5   1.768013 S    
C21   C25   1.482342 S    
C23   Cl3   1.768067 S    
C1    C17   1.425050 S    
O1    Cu1   1.926439 S    
C9    C10   1.389754 A    
C5    C6    1.455699 S    
O6    Cu1   1.959494 S    
N3    O9    1.301261 A    
O5    Cu1   1.959493 S    
C11   C15   1.434157 S    
O4    C2    1.279531 A    
C20   C21   1.414556 A    
O8    Cu2   1.960084 S    
H3    C10   1.083898 S    
C13   C14   1.414006 A    
C5    C7    1.340472 D    
O2    Cu1   1.926437 S    
C25   N2    1.172019 T    
N4    O11   1.301251 A    
C26   N1    1.171969 T    
C19   C21   1.414556 A    
C5    H1    1.086684 S    
C6    C8    1.340472 D    
C19   C23   1.421074 A    
O3    C1    1.279531 A    
