data_mof_unit_66028.cif
_audit_creation_date              2012-12-10T17:06:06-0500
_audit_creation_method            fapswitch 2.2
_symmetry_space_group_name_H-M    P1
_symmetry_Int_Tables_number       1
_space_group_crystal_system       triclinic
_cell_length_a                    23.468959
_cell_length_b                    30.558187
_cell_length_c                    19.342613
_cell_angle_alpha                 89.64043
_cell_angle_beta                  126.693995
_cell_angle_gamma                 90.487223
_cell_volume                      11122.6213299

loop_
_atom_site_label
_atom_site_type_symbol
_atom_type_description
_atom_site_fract_x
_atom_site_fract_y
_atom_site_fract_z
_atom_type_partial_charge
C1    C     C_R   0.695482 0.810131 0.880552 0.883968
C2    C     C_R   0.306800 0.189777 0.119460 0.870632
C3    C     C_R   0.306783 0.809651 0.119679 0.846076
C4    C     C_R   0.693437 0.189758 0.880531 0.859311
C5    C     C_R   0.195602 0.310176 0.881397 0.834605
C6    C     C_R   0.806547 0.689747 0.119432 0.862056
C7    C     C_R   0.804241 0.310030 0.119376 0.883212
C8    C     C_R   0.193586 0.689843 0.880390 0.870136
C9    C     C_R   0.676175 0.845381 0.749453 0.044689
C10   C     C_R   0.297596 0.116468 0.170517 0.016379
C11   C     C_R   0.312563 0.848026 0.236098 -0.041942
C12   C     C_R   0.702897 0.116617 0.829754 0.018901
C13   C     C_R   0.200455 0.363403 0.787200 0.058584
C14   C     C_R   0.797105 0.616333 0.170511 0.013641
C15   C     C_R   0.817864 0.347747 0.244636 0.039619
C16   C     C_R   0.200145 0.615684 0.831384 0.016229
C17   C     C_R   0.666713 0.844097 0.815614 -0.103116
C18   C     C_R   0.334848 0.156036 0.184396 -0.132887
C19   C     C_R   0.337951 0.841441 0.186782 -0.101830
C20   C     C_R   0.665673 0.155950 0.815691 -0.127855
C21   C     C_R   0.165261 0.344572 0.819050 -0.093265
C22   C     C_R   0.834527 0.655869 0.184239 -0.127437
C23   C     C_R   0.833350 0.343913 0.184106 -0.109444
C24   C     C_R   0.166037 0.656402 0.814862 -0.137876
C25   C     C_R   0.622614 0.873907 0.816446 -0.214646
C26   C     C_R   0.404010 0.162375 0.257716 -0.211697
C27   C     C_R   0.391652 0.866887 0.197298 -0.216466
C28   C     C_R   0.596809 0.162039 0.741922 -0.218343
C29   C     C_R   0.097302 0.357274 0.788156 -0.245050
C30   C     C_R   0.903984 0.661921 0.256897 -0.215362
C31   C     C_R   0.882037 0.371954 0.187442 -0.212502
C32   C     C_R   0.099563 0.664229 0.737721 -0.211612
C33   C     C_R   0.585689 0.904726 0.751838 -0.002955
C34   C     C_R   0.439045 0.130364 0.320126 -0.042450
C35   C     C_R   0.422775 0.900014 0.257358 -0.019397
C36   C     C_R   0.561993 0.130087 0.679468 -0.038859
C37   C     C_R   0.063646 0.389863 0.726737 -0.043867
C38   C     C_R   0.939166 0.629776 0.318897 -0.041804
C39   C     C_R   0.915763 0.404504 0.249091 -0.028318
C40   C     C_R   0.063801 0.632387 0.674849 -0.047869
C41   C     C_R   0.588053 0.903070 0.680685 -0.092762
C42   C     C_R   0.402810 0.090545 0.308300 -0.144792
C43   C     C_R   0.401268 0.906750 0.311146 -0.143496
C44   C     C_R   0.598083 0.090532 0.691510 -0.146343
C45   C     C_R   0.091666 0.402236 0.681391 -0.140633
C46   C     C_R   0.902590 0.590169 0.307730 -0.141009
C47   C     C_R   0.908613 0.404452 0.316693 -0.110951
C48   C     C_R   0.096810 0.591117 0.690477 -0.146048
C49   C     C_R   0.062030 0.558321 0.623853 0.942317
C50   C     C_R   0.939929 0.439608 0.379502 0.940617
C51   C     C_R   0.937697 0.557836 0.375326 0.957166
C52   C     C_R   0.059045 0.438022 0.618218 0.925062
C53   C     C_R   0.562504 0.057936 0.624491 0.924784
C54   C     C_R   0.438332 0.940041 0.378227 0.915200
C55   C     C_R   0.437820 0.058019 0.375595 0.946698
C56   C     C_R   0.559291 0.939242 0.619873 0.905318
C57   C     C_R   0.640004 0.750885 0.998413 0.935297
C58   C     C_R   0.359776 0.249201 0.001000 0.882607
C59   C     C_R   0.359668 0.750807 0.000803 0.926118
C60   C     C_R   0.638297 0.246908 0.994436 0.935129
C61   C     C_R   0.140007 0.250889 0.998422 0.932920
C62   C     C_R   0.861197 0.747850 0.004386 0.939072
C63   C     C_R   0.859932 0.251106 0.001367 0.936026
C64   C     C_R   0.140511 0.749428 0.999632 0.887989
C65   C     C_1   0.579492 0.751446 0.997911 -0.067930
C66   C     C_1   0.419931 0.247493 0.000655 -0.116680
C67   C     C_1   0.419637 0.751485 0.000196 -0.071609
C68   C     C_1   0.576189 0.244726 0.990969 -0.048752
C69   C     C_1   0.079525 0.251501 0.997980 -0.066591
C70   C     C_1   0.923043 0.746647 0.007488 -0.044892
C71   C     C_1   0.919980 0.251868 0.000886 -0.063880
C72   C     C_1   0.080804 0.748659 0.000866 -0.091740
C73   C     C_1   0.528847 0.751699 0.998301 0.055848
C74   C     C_1   0.469006 0.245742 0.997147 0.035436
C75   C     C_1   0.470042 0.751729 0.999313 0.056951
C76   C     C_1   0.525920 0.244484 0.992307 0.080724
C77   C     C_1   0.028983 0.251874 0.998574 0.057420
C78   C     C_1   0.973662 0.746731 0.006954 0.080374
C79   C     C_1   0.970321 0.252054 0.999872 0.059469
C80   C     C_1   0.031362 0.747688 0.003691 0.061837
C81   C     C_R   0.732530 0.824659 0.754077 -0.109726
C82   C     C_R   0.226333 0.109020 0.097150 -0.115278
C83   C     C_R   0.254725 0.823690 0.222600 -0.197159
C84   C     C_R   0.773978 0.109527 0.903319 -0.113526
C85   C     C_R   0.275530 0.363436 0.831383 -0.187198
C86   C     C_R   0.725697 0.609137 0.097455 -0.114330
C87   C     C_R   0.757631 0.329178 0.235153 -0.117867
C88   C     C_R   0.268917 0.606569 0.908128 -0.115825
C89   C     C_R   0.735482 0.826983 0.683902 -0.260538
C90   C     C_R   0.204705 0.066171 0.067931 -0.206872
C91   C     C_R   0.209498 0.844911 0.235719 -0.200433
C92   C     C_R   0.795939 0.066741 0.932214 -0.204317
C93   C     C_R   0.302598 0.374547 0.785790 -0.209499
C94   C     C_R   0.703529 0.566393 0.067929 -0.207121
C95   C     C_R   0.748349 0.334862 0.299663 -0.250652
C96   C     C_R   0.283107 0.563877 0.940155 -0.208384
C97   C     C_R   0.680611 0.845409 0.605862 -0.040685
C98   C     C_R   0.243284 0.031350 0.123346 -0.076351
C99   C     C_R   0.234494 0.881304 0.289789 -0.081211
C100  C     C_R   0.758342 0.031822 0.876353 -0.076600
C101  C     C_R   0.257603 0.383197 0.697615 -0.043521
C102  C     C_R   0.741774 0.531325 0.122769 -0.085031
C103  C     C_R   0.801270 0.353584 0.378271 -0.043636
C104  C     C_R   0.239677 0.529857 0.885641 -0.086041
C105  C     C_R   0.621397 0.862000 0.598271 -0.076649
C106  C     C_R   0.296148 0.041263 0.211058 -0.128462
C107  C     C_R   0.307278 0.891798 0.336098 0.036963
C108  C     C_R   0.705035 0.041770 0.788702 -0.125936
C109  C     C_R   0.183675 0.385394 0.655683 -0.038710
C110  C     C_R   0.795447 0.540848 0.210500 -0.101836
C111  C     C_R   0.864664 0.366731 0.391890 -0.068593
C112  C     C_R   0.193300 0.538817 0.796561 -0.120072
C113  C     C_R   0.627372 0.870104 0.675023 0.053480
C114  C     C_R   0.332567 0.082478 0.231536 0.046435
C115  C     C_R   0.342048 0.882271 0.296913 0.069581
C116  C     C_R   0.668293 0.082677 0.768404 0.047342
C117  C     C_R   0.157170 0.383235 0.705651 0.096224
C118  C     C_R   0.832013 0.582177 0.231323 0.047073
C119  C     C_R   0.864998 0.372864 0.318948 0.066167
C120  C     C_R   0.163561 0.581698 0.770816 0.041674
H1    H     H_    0.617382 0.873365 0.868568 0.161146
H2    H     H_    0.431606 0.192751 0.265586 0.203017
H3    H     H_    0.407813 0.861626 0.155801 0.167953
H4    H     H_    0.569199 0.192170 0.733694 0.200682
H5    H     H_    0.073284 0.344311 0.817719 0.168228
H6    H     H_    0.931793 0.692155 0.264455 0.200234
H7    H     H_    0.890818 0.369783 0.138455 0.178750
H8    H     H_    0.074332 0.695603 0.727431 0.211967
H9    H     H_    0.781938 0.814955 0.690643 0.195687
H10   H     H_    0.154506 0.060028 0.005796 0.216091
H11   H     H_    0.159640 0.829678 0.214617 0.216323
H12   H     H_    0.846175 0.060880 0.994384 0.215671
H13   H     H_    0.359488 0.377005 0.819094 0.186564
H14   H     H_    0.653066 0.560524 0.005931 0.216692
H15   H     H_    0.698966 0.324698 0.288272 0.201656
H16   H     H_    0.329751 0.556880 0.004882 0.215867
O1    O     O_R   0.678330 0.769930 0.856640 -0.625519
O2    O     O_R   0.321670 0.230070 0.143360 -0.612404
O3    O     O_R   0.321670 0.769930 0.143360 -0.604190
O4    O     O_R   0.678330 0.230070 0.856640 -0.616927
O5    O     O_R   0.178330 0.269930 0.856640 -0.609024
O6    O     O_R   0.821670 0.730070 0.143360 -0.615838
O7    O     O_R   0.821670 0.269930 0.143360 -0.622423
O8    O     O_R   0.178330 0.730070 0.856640 -0.614933
O9    O     O_R   0.730030 0.821640 0.960080 -0.595234
O10   O     O_R   0.269970 0.178360 0.039920 -0.620316
O11   O     O_R   0.269970 0.821640 0.039920 -0.613986
O12   O     O_R   0.730030 0.178360 0.960080 -0.625338
O13   O     O_R   0.230030 0.321640 0.960080 -0.588059
O14   O     O_R   0.769970 0.678360 0.039920 -0.624282
O15   O     O_R   0.769970 0.321640 0.039920 -0.594964
O16   O     O_R   0.230030 0.678360 0.960080 -0.621078
O17   O     O_R   0.641350 0.724120 0.948260 -0.575740
O18   O     O_R   0.358650 0.275880 0.051740 -0.568217
O19   O     O_R   0.358650 0.724120 0.051740 -0.571246
O20   O     O_R   0.641350 0.275880 0.948260 -0.585232
O21   O     O_R   0.141350 0.224120 0.948260 -0.575423
O22   O     O_R   0.858650 0.775880 0.051740 -0.589228
O23   O     O_R   0.858650 0.224120 0.051740 -0.575461
O24   O     O_R   0.141350 0.775880 0.948260 -0.614686
O25   O     O_R   0.693050 0.775840 0.051700 -0.619830
O26   O     O_R   0.306950 0.224160 0.948300 -0.625938
O27   O     O_R   0.306950 0.775840 0.948300 -0.623922
O28   O     O_R   0.693050 0.224160 0.051700 -0.610354
O29   O     O_R   0.193050 0.275840 0.051700 -0.617837
O30   O     O_R   0.806950 0.724160 0.948300 -0.608670
O31   O     O_R   0.806950 0.275840 0.948300 -0.620273
O32   O     O_R   0.193050 0.724160 0.051700 -0.576072
O33   O     O_R   0.999060 0.545790 0.591600 -0.589466
O34   O     O_R   0.000940 0.454210 0.408400 -0.594696
O35   O     O_R   0.000940 0.545790 0.408400 -0.583701
O36   O     O_R   0.999060 0.454210 0.591600 -0.605327
O37   O     O_R   0.499060 0.045790 0.591600 -0.602991
O38   O     O_R   0.500940 0.954210 0.408400 -0.603425
O39   O     O_R   0.500940 0.045790 0.408400 -0.588968
O40   O     O_R   0.499060 0.954210 0.591600 -0.588954
O41   O     O_R   0.092510 0.545780 0.591590 -0.573996
O42   O     O_R   0.907490 0.454220 0.408410 -0.605563
O43   O     O_R   0.907490 0.545780 0.408410 -0.587723
O44   O     O_R   0.092510 0.454220 0.591590 -0.590753
O45   O     O_R   0.592510 0.045780 0.591590 -0.582492
O46   O     O_R   0.407490 0.954220 0.408410 -0.588182
O47   O     O_R   0.407490 0.045780 0.408410 -0.581745
O48   O     O_R   0.592510 0.954220 0.591590 -0.600304
Zn1   Zn    Zn3+2 0.715450 0.715450 0.930910 1.049214
Zn2   Zn    Zn3+2 0.284550 0.284550 0.069090 1.078440
Zn3   Zn    Zn3+2 0.284550 0.715450 0.069090 1.102510
Zn4   Zn    Zn3+2 0.715450 0.284550 0.930910 1.052373
Zn5   Zn    Zn3+2 0.215450 0.215450 0.930910 1.048543
Zn6   Zn    Zn3+2 0.784550 0.784550 0.069090 1.054270
Zn7   Zn    Zn3+2 0.784550 0.215450 0.069090 1.048244
Zn8   Zn    Zn3+2 0.215450 0.784550 0.930910 1.026110
Zn9   Zn    Zn3+2 0.937580 0.500000 0.499990 1.109984
Zn10  Zn    Zn3+2 0.062420 0.500000 0.500010 1.130588
Zn11  Zn    Zn3+2 0.437580 1.000000 0.499990 1.117677
Zn12  Zn    Zn3+2 0.562420 1.000000 0.500010 1.104030
C121  C     C_2   0.796801 0.807490 0.834039 0.909871
O49   O     O_2   0.826527 0.828739 0.900444 -0.583349
O50   O     O_R   0.828123 0.769150 0.832477 -0.792225
H17   H     H_    0.797446 0.752587 0.776081 0.320153
C122  C     C_2   0.170311 0.142848 0.061008 0.971669
O51   O     O_2   0.118824 0.141025 0.985341 -0.552490
O52   O     O_R   0.172581 0.175145 0.113569 -0.798342
H18   H     H_    0.213383 0.171748 0.176835 0.314559
C123  C     C_2   0.253300 0.775050 0.223984 1.001311
O53   O     O_2   0.196762 0.755787 0.189981 -0.591137
O54   O     O_R   0.316034 0.750715 0.272388 -0.715611
H19   H     H_    0.360594 0.769434 0.306470 0.320382
C124  C     C_2   0.829950 0.143785 0.939230 0.971095
O55   O     O_2   0.881410 0.142152 0.014925 -0.552855
O56   O     O_R   0.827809 0.176202 0.886330 -0.797991
H20   H     H_    0.787098 0.172624 0.823066 0.316121
C125  C     C_2   0.327660 0.362440 0.926970 0.971911
O57   O     O_2   0.314412 0.381367 0.971094 -0.514008
O58   O     O_R   0.395077 0.344215 0.967846 -0.749308
H21   H     H_    0.401407 0.328529 0.926955 0.294342
C126  C     C_2   0.670090 0.643216 0.061751 0.971851
O59   O     O_2   0.618375 0.641544 0.986193 -0.552408
O60   O     O_R   0.672971 0.675574 0.114636 -0.796501
H22   H     H_    0.713861 0.672033 0.177826 0.315235
C127  C     C_2   0.696381 0.309952 0.155541 0.913888
O61   O     O_2   0.668395 0.329535 0.087392 -0.573547
O62   O     O_R   0.664994 0.271829 0.159333 -0.790727
H23   H     H_    0.694088 0.257086 0.217906 0.321008
C128  C     C_2   0.328993 0.638245 0.947791 0.983961
O63   O     O_2   0.377616 0.635847 0.024694 -0.548192
O64   O     O_R   0.333261 0.669412 0.897747 -0.796862
H24   H     H_    0.294060 0.666710 0.833739 0.311894
C129  C     C_2   0.688360 0.849445 0.535250 1.012447
O65   O     O_2   0.724563 0.823256 0.529657 -0.603120
O66   O     O_R   0.655997 0.884153 0.476589 -0.760808
H25   H     H_    0.665354 0.883557 0.431772 0.364555
C130  C     C_2   0.220087 0.985671 0.092849 0.982526
O67   O     O_2   0.160317 0.978106 0.027574 -0.603625
O68   O     O_R   0.267582 0.951260 0.137288 -0.774246
H26   H     H_    0.245882 0.921802 0.109738 0.353571
C131  C     C_2   0.189101 0.902211 0.310107 0.972517
O69   O     O_2   0.133279 0.884924 0.287777 -0.603476
O70   O     O_R   0.209122 0.942486 0.352677 -0.744991
H27   H     H_    0.173678 0.953601 0.362119 0.352367
C132  C     C_2   0.783438 0.986350 0.906570 1.000872
O71   O     O_2   0.843474 0.979697 0.971886 -0.593275
O72   O     O_R   0.737623 0.951019 0.861796 -0.758483
H28   H     H_    0.760907 0.921823 0.888650 0.368022
C133  C     C_2   0.289785 0.390403 0.651615 0.927866
O73   O     O_2   0.343743 0.370795 0.674621 -0.599927
O74   O     O_R   0.260314 0.420734 0.584309 -0.758026
H29   H     H_    0.287564 0.422919 0.558949 0.358810
C134  C     C_2   0.717341 0.485818 0.091583 0.991786
O75   O     O_2   0.657061 0.478797 0.026821 -0.592125
O76   O     O_R   0.764117 0.450942 0.134745 -0.768089
H30   H     H_    0.741357 0.421669 0.107149 0.365926
C135  C     C_2   0.788046 0.361202 0.443306 1.024948
O77   O     O_2   0.745182 0.338454 0.443878 -0.600859
O78   O     O_R   0.822931 0.395552 0.502199 -0.765521
H31   H     H_    0.807841 0.398353 0.541327 0.352045
C136  C     C_2   0.247287 0.485179 0.920007 1.011751
O79   O     O_2   0.300570 0.475069 0.991083 -0.568577
O80   O     O_R   0.191184 0.455351 0.872829 -0.772043
H32   H     H_    0.199554 0.427361 0.905888 0.367651
C137  C     C_2   0.549923 0.858368 0.513477 0.917650
O81   O     O_2   0.497079 0.868395 0.507477 -0.643390
O82   O     O_R   0.541796 0.838735 0.442879 -0.768272
H33   H     H_    0.490231 0.834119 0.392223 0.343885
C138  C     C_2   0.280695 0.022999 0.269434 0.965662
O83   O     O_2   0.274513 0.983600 0.273662 -0.584049
O84   O     O_R   0.267609 0.051470 0.314831 -0.759580
H34   H     H_    0.256151 0.035370 0.351181 0.364798
C139  C     C_2   0.346068 0.886973 0.430519 0.960965
O85   O     O_2   0.370272 0.851258 0.463935 -0.579115
O86   O     O_R   0.347976 0.921276 0.479333 -0.719231
H35   H     H_    0.372572 0.912824 0.541853 0.371707
C140  C     C_2   0.719056 0.023611 0.729220 0.946035
O87   O     O_2   0.723177 0.984153 0.723449 -0.585104
O88   O     O_R   0.732708 0.052325 0.683989 -0.759448
H36   H     H_    0.742935 0.036431 0.646670 0.347361
C141  C     C_2   0.136713 0.373548 0.563357 0.963149
O89   O     O_2   0.114217 0.336020 0.543271 -0.582708
O90   O     O_R   0.122475 0.403516 0.500130 -0.711721
H37   H     H_    0.092355 0.390369 0.440138 0.351822
C142  C     C_2   0.781881 0.521220 0.269827 0.944457
O91   O     O_2   0.777701 0.481566 0.274321 -0.584529
O92   O     O_R   0.767872 0.548706 0.315578 -0.759867
H38   H     H_    0.757732 0.531833 0.352473 0.349234
C143  C     C_2   0.932684 0.359868 0.478830 0.914273
O93   O     O_2   0.988897 0.367348 0.490731 -0.665285
O94   O     O_R   0.933113 0.339826 0.544354 -0.754708
H39   H     H_    0.982604 0.331726 0.596172 0.356446
C144  C     C_2   0.210927 0.514835 0.745281 0.940063
O95   O     O_2   0.216659 0.475085 0.750529 -0.617188
O96   O     O_R   0.229549 0.538239 0.699009 -0.754288
H40   H     H_    0.242925 0.518393 0.669011 0.359157
C145  C     C_2   0.547276 0.938760 0.762822 0.917164
O97   O     O_2   0.580651 0.964852 0.822228 -0.599423
O98   O     O_R   0.473078 0.939869 0.707695 -0.785931
H41   H     H_    0.453101 0.964446 0.722168 0.349330
C146  C     C_2   0.513831 0.140389 0.395191 0.949936
O99   O     O_2   0.538402 0.126407 0.467167 -0.575812
O100  O     O_R   0.555885 0.167330 0.383351 -0.793227
H42   H     H_    0.605298 0.172236 0.438657 0.362095
C147  C     C_2   0.473100 0.928887 0.255705 0.978262
O101  O     O_2   0.465704 0.968625 0.251401 -0.612787
O102  O     O_R   0.526776 0.910355 0.254536 -0.786140
H43   H     H_    0.557189 0.933225 0.252298 0.349799
C148  C     C_2   0.487464 0.139883 0.603956 0.949084
O103  O     O_2   0.463587 0.126567 0.531934 -0.575985
O104  O     O_R   0.444905 0.165863 0.615440 -0.799154
H44   H     H_    0.395728 0.170706 0.559832 0.360027
C149  C     C_2   0.001880 0.410270 0.716235 0.995626
O105  O     O_2   0.001929 0.449582 0.727757 -0.587517
O106  O     O_R   0.946531 0.383792 0.700814 -0.768284
H45   H     H_    0.909037 0.401099 0.699080 0.346221
C150  C     C_2   0.014632 0.639420 0.392530 0.948155
O107  O     O_2   0.040086 0.626117 0.465170 -0.583745
O108  O     O_R   0.056344 0.665278 0.378492 -0.791133
H46   H     H_    0.106289 0.670053 0.432944 0.361553
C151  C     C_2   0.954640 0.438735 0.237387 0.948916
O109  O     O_2   0.947334 0.477425 0.246100 -0.618989
O110  O     O_R   0.996880 0.426692 0.211871 -0.796182
H47   H     H_    0.019800 0.452819 0.204619 0.357952
C152  C     C_2   0.991288 0.643985 0.596083 0.950440
O111  O     O_2   0.964496 0.624890 0.527862 -0.581881
O112  O     O_R   0.953584 0.677869 0.600091 -0.797311
H48   H     H_    0.905479 0.682991 0.543067 0.362672

loop_
_geom_bond_atom_site_label_1
_geom_bond_atom_site_label_2
_ccdc_geom_bond_type
O38   Zn12  S    
C146  O100  S    
O96   H40   S    
C34   C42   A    
C64   C72   S    
C110  C118  A    
O14   Zn1   S    
C48   C120  A    
C110  C142  S    
C147  O101  D    
C39   C47   A    
C50   O42   A    
C91   H11   S    
O86   H35   S    
C4    O12   A    
C5    O13   A    
C12   C84   A    
C121  O50   S    
C44   C53   S    
O62   H23   S    
C3    C19   S    
O27   Zn8   S    
O28   Zn7   S    
C11   C115  A    
C56   O48   A    
C97   C105  A    
O12   Zn7   S    
C149  O106  S    
O50   H17   S    
O32   Zn3   S    
C133  O73   D    
C73   C75   S    
O16   Zn3   S    
C49   O41   A    
C77   C79   S    
O15   Zn4   S    
O42   Zn9   S    
O112  H48   S    
C2    O2    A    
O82   H33   S    
C108  C140  S    
C93   C101  A    
C112  C120  A    
C84   C124  S    
O33   Zn9   S    
C20   C28   A    
C27   C35   A    
C21   C29   A    
C10   C82   A    
C36   C148  S    
C23   C31   A    
O58   H21   S    
C24   C32   A    
C41   C56   S    
C129  O65   D    
C42   C55   S    
C43   C54   S    
O64   H24   S    
C12   C20   A    
C13   C21   A    
C149  O105  D    
C94   H14   S    
C63   C71   S    
C139  O86   S    
C36   C44   A    
C37   C45   A    
C58   O26   A    
C135  O78   S    
O43   Zn9   S    
C40   C48   A    
C96   C104  A    
C106  C138  S    
C59   O19   A    
C41   C113  A    
C83   C91   A    
C98   C106  A    
C17   C25   A    
C54   O38   A    
C143  O94   S    
O19   Zn3   S    
C10   C18   A    
C4    C20   S    
C57   O25   A    
C44   C116  A    
C129  O66   S    
C152  O111  D    
C13   C85   A    
O7    Zn7   S    
C144  O95   D    
C136  O80   S    
C25   H1    S    
O6    Zn6   S    
C3    O11   A    
C29   H5    S    
O9    Zn6   S    
C69   C77   T    
C63   O23   A    
C52   O36   A    
C71   C79   T    
C53   O37   A    
O18   Zn2   S    
C30   C38   A    
C134  O75   D    
C127  O61   D    
C74   C76   S    
C56   O40   A    
C87   C127  S    
C105  C113  A    
C8    O16   A    
C93   H13   S    
O22   Zn6   S    
C135  O77   D    
C78   C80   S    
C150  O108  S    
C66   C74   T    
C111  C119  A    
C136  O79   D    
O45   Zn12  S    
C59   C67   S    
C85   C93   A    
C42   C114  A    
C148  O104  S    
C87   C95   A    
C35   C43   A    
C130  O67   D    
C63   O31   A    
C141  O89   D    
C112  C144  S    
C122  O52   S    
C51   O43   A    
C95   C103  A    
C128  O63   D    
C47   C50   S    
C123  O54   S    
C60   O28   A    
C100  C108  A    
C14   C86   A    
C104  C112  A    
C45   C52   S    
C126  O59   D    
C46   C51   S    
C90   H10   S    
C145  O97   D    
O68   H26   S    
C107  C115  A    
C124  O55   D    
C5    C21   S    
C138  O84   S    
C60   C68   S    
C62   O30   A    
C3    O3    A    
C1    O1    A    
C45   C117  A    
C124  O56   S    
C22   C30   A    
O25   Zn6   S    
C109  C141  S    
O84   H34   S    
C28   H4    S    
C68   C76   T    
C1    C17   S    
O29   Zn2   S    
C9    C113  A    
C32   H8    S    
C141  O90   S    
C125  O58   S    
C83   C123  S    
C7    C23   S    
O31   Zn4   S    
C8    C24   S    
C15   C119  A    
C61   O29   A    
O40   Zn11  S    
C121  O49   D    
C38   C46   A    
C59   O27   A    
O13   Zn2   S    
C67   C75   T    
O92   H38   S    
O46   Zn11  S    
C84   C92   A    
C91   C99   A    
O78   H31   S    
C25   C33   A    
C12   C116  A    
C88   C96   A    
C102  C134  S    
O70   H27   S    
C18   C26   A    
O106  H45   S    
C101  C133  S    
C109  C117  A    
O76   H30   S    
C96   H16   S    
C125  O57   D    
C11   C19   A    
O2    Zn2   S    
C128  O64   S    
C81   C121  S    
C2    C18   S    
C101  C109  A    
O72   H28   S    
C38   C150  S    
C46   C118  A    
C103  C111  A    
C146  O99   D    
C151  O110  S    
C58   O18   A    
C1    O9    A    
O47   Zn11  S    
O90   H37   S    
C62   O22   A    
O10   Zn5   S    
C31   H7    S    
C6    O6    A    
C10   C114  A    
C81   C89   A    
C6    C22   S    
O20   Zn4   S    
O108  H46   S    
C139  O85   D    
O36   Zn9   S    
C7    O7    A    
O1    Zn1   S    
C147  O102  S    
O41   Zn10  S    
O54   H19   S    
O4    Zn4   S    
O23   Zn7   S    
O5    Zn5   S    
O24   Zn8   S    
O60   H22   S    
O34   Zn10  S    
O8    Zn8   S    
C11   C83   A    
O48   Zn12  S    
C57   O17   A    
O104  H44   S    
O100  H42   S    
C60   O20   A    
C143  O93   D    
C61   O21   A    
O94   H39   S    
C64   O24   A    
C50   O34   A    
C7    O15   A    
C48   C49   S    
C133  O74   S    
C103  C135  S    
C102  C110  A    
C142  O92   S    
O39   Zn12  S    
O98   H41   S    
C92   H12   S    
C57   C65   S    
C82   C122  S    
C13   C117  A    
C99   C107  A    
C82   C90   A    
C33   C41   A    
C108  C116  A    
C16   C120  A    
C64   O32   A    
C49   O33   A    
C14   C22   A    
C150  O107  D    
C137  O81   D    
C39   C151  S    
O110  H47   S    
C99   C131  S    
C28   C36   A    
C72   C80   T    
C148  O103  D    
C29   C37   A    
C16   C88   A    
C55   O47   A    
C26   H2    S    
C89   H9    S    
O26   Zn5   S    
C100  C132  S    
O52   H18   S    
C30   H6    S    
C70   C78   T    
O30   Zn1   S    
C122  O51   D    
C35   C147  S    
C123  O53   D    
C34   C146  S    
C106  C114  A    
C132  O71   D    
C40   C152  S    
C65   C73   T    
C86   C94   A    
C140  O88   S    
C58   C66   S    
C97   C129  S    
O56   H20   S    
C152  O112  S    
O37   Zn11  S    
C54   O46   A    
C19   C27   A    
C138  O83   D    
C145  O98   S    
C43   C115  A    
C15   C23   A    
C16   C24   A    
O102  H43   S    
C62   C70   S    
C151  O109  D    
O35   Zn10  S    
O3    Zn3   S    
C26   C34   A    
C134  O76   S    
C137  O82   S    
C27   H3    S    
C14   C118  A    
C142  O91   D    
C89   C97   A    
C132  O72   S    
C86   C126  S    
C52   O44   A    
C85   C125  S    
C4    O4    A    
C5    O5    A    
C88   C128  S    
O11   Zn8   S    
C95   H15   S    
C140  O87   D    
C111  C143  S    
C8    O8    A    
C6    O14   A    
C130  O68   S    
C55   O39   A    
C9    C17   A    
C107  C139  S    
O88   H36   S    
C131  O70   S    
O80   H32   S    
O44   Zn10  S    
C92   C100  A    
C15   C87   A    
C61   C69   S    
O74   H29   S    
C53   O45   A    
C2    O10   A    
C37   C149  S    
C51   O35   A    
C127  O62   S    
C98   C130  S    
O17   Zn1   S    
C47   C119  A    
C144  O96   S    
C31   C39   A    
C104  C136  S    
C32   C40   A    
C126  O60   S    
O21   Zn5   S    
C105  C137  S    
O66   H25   S    
C131  O69   D    
C90   C98   A    
C33   C145  S    
C94   C102  A    
C9    C81   A    
