data_mof_unit_16162.cif
_audit_creation_date              2012-12-11T14:28:31-0500
_audit_creation_method            fapswitch 2.2
_symmetry_space_group_name_H-M    P1
_symmetry_Int_Tables_number       1
_space_group_crystal_system       triclinic
_cell_length_a                    11.195125
_cell_length_b                    19.456757
_cell_length_c                    18.382769
_cell_angle_alpha                 89.727474
_cell_angle_beta                  90.008777
_cell_angle_gamma                 90.20807
_cell_volume                      4004.0782061

loop_
_atom_site_label
_atom_site_type_symbol
_atom_type_description
_atom_site_fract_x
_atom_site_fract_y
_atom_site_fract_z
_atom_type_partial_charge
C1    C     C_R   0.319739 0.968170 0.645996 0.519545
C2    C     C_R   0.319932 0.969346 0.852687 0.523246
C3    C     C_R   0.318031 0.029150 0.351524 0.521867
C4    C     C_R   0.319678 0.030618 0.147365 0.521496
C5    C     C_R   0.820599 0.468612 0.646654 0.530602
C6    C     C_R   0.819931 0.469347 0.852686 0.522179
C7    C     C_R   0.821171 0.530402 0.352294 0.523224
C8    C     C_R   0.819679 0.530618 0.147365 0.522448
C9    C     C_3   0.202437 0.712437 0.461172 0.032977
C10   C     C_3   0.180562 0.711122 0.033915 0.046031
C11   C     C_3   0.183769 0.292416 0.531014 0.035672
C12   C     C_3   0.180927 0.289034 0.966037 0.046179
C13   C     C_3   0.621035 0.191161 0.477331 0.020892
C14   C     C_3   0.680549 0.211118 0.033909 0.045844
C15   C     C_3   0.721588 0.737391 0.554844 -0.002485
C16   C     C_3   0.680969 0.789020 0.966016 0.045728
C17   C     C_3   0.106896 0.753139 0.419889 0.047889
C18   C     C_3   0.109213 0.760479 0.081813 0.043439
C19   C     C_3   0.092702 0.251670 0.576114 0.053914
C20   C     C_3   0.109112 0.239646 0.918115 0.043728
C21   C     C_3   0.587612 0.249726 0.425566 0.056037
C22   C     C_3   0.609207 0.260477 0.081809 0.043222
C23   C     C_3   0.591003 0.749363 0.574798 0.050785
C24   C     C_3   0.609145 0.739634 0.918094 0.043218
C25   C     C_R   0.316335 0.989491 0.419956 -0.044316
C26   C     C_R   0.325773 0.997118 0.076199 -0.047201
C27   C     C_R   0.324584 0.996432 0.571881 -0.047100
C28   C     C_R   0.326296 0.002779 0.923919 -0.047971
C29   C     C_R   0.834252 0.495277 0.422197 -0.048876
C30   C     C_R   0.825780 0.497120 0.076198 -0.047482
C31   C     C_R   0.830812 0.498888 0.574047 -0.042109
C32   C     C_R   0.826290 0.502780 0.923917 -0.047355
C33   C     C_R   0.527888 0.964626 0.415300 -0.098198
C34   C     C_R   0.545394 0.991789 0.075248 -0.091461
C35   C     C_R   0.545916 0.989665 0.563790 -0.083719
C36   C     C_R   0.546064 0.007744 0.925488 -0.091248
C37   C     C_R   0.056823 0.502246 0.424819 -0.094494
C38   C     C_R   0.045407 0.491806 0.075235 -0.091412
C39   C     C_R   0.054075 0.495205 0.574743 -0.079166
C40   C     C_R   0.046052 0.507765 0.925474 -0.091237
C41   C     C_R   0.638138 0.969607 0.448132 -0.147265
C42   C     C_R   0.652014 0.993781 0.037629 -0.144105
C43   C     C_R   0.647533 0.977144 0.523052 -0.142094
C44   C     C_R   0.652362 0.005672 0.963453 -0.143504
C45   C     C_R   0.162853 0.497311 0.463134 -0.150847
C46   C     C_R   0.152021 0.493819 0.037609 -0.143967
C47   C     C_R   0.161366 0.493614 0.537727 -0.144410
C48   C     C_R   0.152353 0.505714 0.963435 -0.143519
C49   C     C_R   0.431346 0.987812 0.531299 -0.008529
C50   C     C_R   0.435623 0.001840 0.961930 -0.001199
C51   C     C_R   0.424420 0.978702 0.455441 -0.014155
C52   C     C_R   0.435329 0.997807 0.038469 -0.000741
C53   C     C_R   0.942709 0.497125 0.537423 -0.005471
C54   C     C_R   0.935619 0.501848 0.961923 -0.000876
C55   C     C_R   0.944211 0.500606 0.460704 -0.008467
C56   C     C_R   0.935334 0.497815 0.038463 -0.000651
C57   C     C_R   0.213429 0.004408 0.534846 0.015905
C58   C     C_R   0.217804 0.008050 0.962976 0.013773
C59   C     C_R   0.208234 0.990088 0.460613 0.022911
C60   C     C_R   0.217445 0.992032 0.036909 0.014199
C61   C     C_R   0.724061 0.502131 0.533069 0.004312
C62   C     C_R   0.717799 0.508045 0.962977 0.013819
C63   C     C_R   0.727885 0.482817 0.460465 0.003634
C64   C     C_R   0.717449 0.492028 0.036911 0.013920
C65   C     C_R   0.105257 0.022937 0.570489 -0.074410
C66   C     C_R   0.107753 0.024580 0.929157 -0.078229
C67   C     C_R   0.094138 0.980678 0.427906 -0.071190
C68   C     C_R   0.106986 0.975474 0.070454 -0.078549
C69   C     C_R   0.612607 0.521746 0.562532 -0.085534
C70   C     C_R   0.607743 0.524570 0.929162 -0.078344
C71   C     C_R   0.621051 0.462535 0.425640 -0.072128
C72   C     C_R   0.606996 0.475465 0.070459 -0.078557
C73   C     C_R   0.995555 0.019490 0.535593 -0.139305
C74   C     C_R   0.000255 0.013521 0.964647 -0.153113
C75   C     C_R   0.989757 0.996016 0.464884 -0.142124
C76   C     C_R   0.999850 0.986343 0.034582 -0.153758
C77   C     C_R   0.507414 0.510388 0.523861 -0.141064
C78   C     C_R   0.500250 0.513503 0.964656 -0.153313
C79   C     C_R   0.511301 0.477360 0.456904 -0.123839
C80   C     C_R   0.499855 0.486327 0.034591 -0.153687
C81   C     C_R   0.187286 0.772958 0.636842 0.566381
C82   C     C_R   0.185869 0.773297 0.863131 0.568605
C83   C     C_R   0.177266 0.229041 0.363869 0.559766
C84   C     C_R   0.185858 0.226762 0.136773 0.568911
C85   C     C_R   0.643281 0.260794 0.641510 0.556985
C86   C     C_R   0.685866 0.273296 0.863131 0.566340
C87   C     C_R   0.688922 0.727249 0.362935 0.566200
C88   C     C_R   0.685857 0.726762 0.136769 0.569412
C89   C     C_R   0.542589 0.769650 0.645188 0.531899
C90   C     C_R   0.551482 0.765929 0.850216 0.534591
C91   C     C_R   0.547280 0.232077 0.352437 0.534362
C92   C     C_R   0.551298 0.234056 0.149677 0.533627
C93   C     C_R   0.047042 0.268615 0.647613 0.537980
C94   C     C_R   0.051454 0.265939 0.850238 0.531951
C95   C     C_R   0.050248 0.732640 0.350903 0.531026
C96   C     C_R   0.051301 0.734057 0.149679 0.533616
C97   C     C_3   0.156100 0.820920 0.450608 -0.141728
C98   C     C_3   0.180077 0.822076 0.050762 -0.151266
C99   C     C_3   0.134304 0.183321 0.544914 -0.138935
C100  C     C_3   0.179348 0.178097 0.949109 -0.151261
C101  C     C_3   0.683111 0.295919 0.460146 -0.153061
C102  C     C_3   0.680077 0.322072 0.050758 -0.151275
C103  C     C_3   0.549781 0.690362 0.525882 -0.124450
C104  C     C_3   0.679361 0.678082 0.949098 -0.151053
C105  C     C_3   0.252068 0.779846 0.493978 -0.134070
C106  C     C_3   0.251028 0.772514 0.001967 -0.146116
C107  C     C_3   0.226558 0.223518 0.498987 -0.151136
C108  C     C_3   0.250788 0.227678 0.997952 -0.146396
C109  C     C_3   0.714709 0.235911 0.512521 -0.120017
C110  C     C_3   0.751022 0.272508 0.001962 -0.145917
C111  C     C_3   0.681953 0.677943 0.503834 -0.132064
C112  C     C_3   0.750808 0.727660 0.997942 -0.146365
C113  C     C_3   0.163368 0.771927 0.557689 0.049492
C114  C     C_3   0.157536 0.776509 0.941811 0.045534
C115  C     C_3   0.134677 0.231721 0.438581 0.052351
C116  C     C_3   0.157282 0.223536 0.058107 0.045484
C117  C     C_3   0.618560 0.259206 0.565483 0.065321
C118  C     C_3   0.657527 0.276507 0.941808 0.046573
C119  C     C_3   0.665896 0.730972 0.441731 0.042096
C120  C     C_3   0.657294 0.723531 0.058095 0.045472
C121  C     C_3   0.069526 0.814002 0.516316 -0.129308
C122  C     C_3   0.090484 0.830132 0.987155 -0.129851
C123  C     C_3   0.041987 0.190257 0.482350 -0.112832
C124  C     C_3   0.089689 0.169891 0.012708 -0.129594
C125  C     C_3   0.588087 0.320386 0.515971 -0.136819
C126  C     C_3   0.590483 0.330131 0.987152 -0.129723
C127  C     C_3   0.536183 0.743065 0.463296 -0.130435
C128  C     C_3   0.589692 0.669888 0.012696 -0.129566
C129  C     C_3   0.021819 0.745888 0.484258 -0.133023
C130  C     C_3   0.016964 0.771971 0.020928 -0.130313
C131  C     C_3   0.000213 0.259003 0.515339 -0.123024
C132  C     C_3   0.016748 0.228026 0.978988 -0.129924
C133  C     C_3   0.492581 0.274366 0.480174 -0.134632
C134  C     C_3   0.516956 0.271973 0.020925 -0.130558
C135  C     C_3   0.577705 0.801836 0.512712 -0.104469
C136  C     C_3   0.516773 0.728028 0.978966 -0.130118
C137  C     C_3   0.116331 0.705919 0.524713 0.021312
C138  C     C_3   0.085076 0.718982 0.974979 0.030515
C139  C     C_3   0.091354 0.298496 0.470088 0.026357
C140  C     C_3   0.085399 0.281031 0.024976 0.030519
C141  C     C_3   0.526588 0.213707 0.531161 -0.000266
C142  C     C_3   0.585062 0.218982 0.974976 0.030723
C143  C     C_3   0.707941 0.789121 0.491960 0.029373
C144  C     C_3   0.585432 0.781030 0.024953 0.030348
Cr1   Cr    Cr6+3 0.488160 0.884660 0.750000 0.979774
Cr2   Cr    Cr6+3 0.488160 0.115340 0.250000 0.978804
Cr3   Cr    Cr6+3 0.988160 0.384660 0.750000 0.978835
Cr4   Cr    Cr6+3 0.988160 0.615340 0.250000 0.971851
Cr5   Cr    Cr6+3 0.173480 0.883120 0.750000 0.994942
Cr6   Cr    Cr6+3 0.173480 0.116880 0.250000 0.997000
Cr7   Cr    Cr6+3 0.673480 0.383120 0.750000 0.996998
Cr8   Cr    Cr6+3 0.673480 0.616880 0.250000 0.999671
Cr9   Cr    Cr6+3 0.333410 0.727260 0.750000 0.980044
Cr10  Cr    Cr6+3 0.333410 0.272740 0.250000 0.980247
Cr11  Cr    Cr6+3 0.833410 0.227260 0.750000 0.987894
Cr12  Cr    Cr6+3 0.833410 0.772740 0.250000 0.974838
H1    H     H_    0.342091 0.800179 0.503629 0.100194
H2    H     H_    0.336909 0.795163 0.988147 0.106579
H3    H     H_    0.309304 0.200509 0.479375 0.111854
H4    H     H_    0.336383 0.204938 0.011627 0.106668
H5    H     H_    0.794805 0.207783 0.530666 0.126390
H6    H     H_    0.836896 0.295162 0.988130 0.106566
H7    H     H_    0.732119 0.630004 0.495368 0.122377
H8    H     H_    0.836399 0.704921 0.011628 0.106722
H9    H     H_    0.915484 0.034983 0.563853 0.099533
H10   H     H_    0.918987 0.026108 0.937057 0.102454
H11   H     H_    0.905112 0.991514 0.437668 0.095121
H12   H     H_    0.918199 0.973611 0.061824 0.102365
H13   H     H_    0.423785 0.526406 0.546716 0.093045
H14   H     H_    0.418979 0.526078 0.937065 0.102310
H15   H     H_    0.430809 0.464290 0.428038 0.099059
H16   H     H_    0.418207 0.473584 0.061834 0.102416
H17   H     H_    0.180886 0.862438 0.412761 0.109199
H18   H     H_    0.227218 0.860094 0.084939 0.106660
H19   H     H_    0.164839 0.143420 0.582715 0.104947
H20   H     H_    0.226447 0.140294 0.914901 0.106153
H21   H     H_    0.748271 0.328671 0.430394 0.103459
H22   H     H_    0.727226 0.360088 0.084934 0.106581
H23   H     H_    0.485142 0.651363 0.545269 0.121518
H24   H     H_    0.726458 0.640276 0.914892 0.106406
H25   H     H_    0.017959 0.856442 0.540953 0.141863
H26   H     H_    0.051457 0.876463 0.962039 0.156433
H27   H     H_    0.982282 0.149867 0.460150 0.132650
H28   H     H_    0.050108 0.123518 0.037752 0.155904
H29   H     H_    0.573987 0.371900 0.539274 0.160126
H30   H     H_    0.551462 0.376462 0.962033 0.156404
H31   H     H_    0.465294 0.748375 0.421874 0.128790
H32   H     H_    0.550091 0.623520 0.037737 0.155859
H33   H     H_    0.930642 0.724172 0.479166 0.115218
H34   H     H_    0.928673 0.791366 0.036694 0.127940
H35   H     H_    0.916858 0.286925 0.526362 0.113893
H36   H     H_    0.928157 0.208685 0.963262 0.127863
H37   H     H_    0.408891 0.295706 0.458403 0.136133
H38   H     H_    0.428671 0.291377 0.036691 0.127857
H39   H     H_    0.532016 0.851760 0.518100 0.145009
H40   H     H_    0.428173 0.708700 0.963240 0.127824
H41   H     H_    0.715781 0.973619 0.413821 0.096499
H42   H     H_    0.733586 0.988513 0.067513 0.095677
H43   H     H_    0.734098 0.981462 0.548419 0.102824
H44   H     H_    0.734241 0.010943 0.933874 0.095544
H45   H     H_    0.246099 0.495953 0.434057 0.095500
H46   H     H_    0.233603 0.488569 0.067488 0.095474
H47   H     H_    0.243438 0.493931 0.568167 0.089676
H48   H     H_    0.234223 0.511005 0.933850 0.095181
H49   H     H_    0.524733 0.954771 0.357402 0.133622
H50   H     H_    0.550813 0.979659 0.132592 0.128960
H51   H     H_    0.560085 0.006084 0.619159 0.135428
H52   H     H_    0.552134 0.019813 0.868155 0.128941
H53   H     H_    0.067212 0.496528 0.366887 0.138957
H54   H     H_    0.050840 0.479679 0.132579 0.128303
H55   H     H_    0.063560 0.505088 0.632100 0.137347
H56   H     H_    0.052108 0.519834 0.868140 0.128303
H57   H     H_    0.085001 0.961531 0.372939 0.125479
H58   H     H_    0.103069 0.953607 0.124715 0.130946
H59   H     H_    0.104391 0.042683 0.625429 0.128713
H60   H     H_    0.104404 0.046437 0.874882 0.131123
H61   H     H_    0.622643 0.439268 0.372196 0.123352
H62   H     H_    0.603088 0.453598 0.124721 0.131404
H63   H     H_    0.606855 0.546625 0.614997 0.129912
H64   H     H_    0.604386 0.546426 0.874887 0.131596
O1    O     O_R   0.575450 0.828820 0.667950 -0.522529
O2    O     O_R   0.575450 0.828820 0.832050 -0.522543
O3    O     O_R   0.575450 0.171180 0.332050 -0.525960
O4    O     O_R   0.575450 0.171180 0.167950 -0.521357
O5    O     O_R   0.075450 0.328820 0.667950 -0.529602
O6    O     O_R   0.075450 0.328820 0.832050 -0.524347
O7    O     O_R   0.075450 0.671180 0.332050 -0.525852
O8    O     O_R   0.075450 0.671180 0.167950 -0.522160
O9    O     O_R   0.416860 0.942890 0.674680 -0.512118
O10   O     O_R   0.416860 0.942890 0.825320 -0.507220
O11   O     O_R   0.416860 0.057110 0.325320 -0.508980
O12   O     O_R   0.416860 0.057110 0.174680 -0.508025
O13   O     O_R   0.916860 0.442890 0.674680 -0.512763
O14   O     O_R   0.916860 0.442890 0.825320 -0.510063
O15   O     O_R   0.916860 0.557110 0.325320 -0.516278
O16   O     O_R   0.916860 0.557110 0.174680 -0.507964
O17   O     O_R   0.213790 0.953680 0.668330 -0.531905
O18   O     O_R   0.213790 0.953680 0.831670 -0.532606
O19   O     O_R   0.213790 0.046320 0.331670 -0.531926
O20   O     O_R   0.213790 0.046320 0.168330 -0.534462
O21   O     O_R   0.713790 0.453680 0.668330 -0.525523
O22   O     O_R   0.713790 0.453680 0.831670 -0.532904
O23   O     O_R   0.713790 0.546320 0.331670 -0.522112
O24   O     O_R   0.713790 0.546320 0.168330 -0.533546
O25   O     O_R   0.121360 0.817890 0.672660 -0.504949
O26   O     O_R   0.121360 0.817890 0.827340 -0.504011
O27   O     O_R   0.121360 0.182110 0.327340 -0.500297
O28   O     O_R   0.121360 0.182110 0.172660 -0.504468
O29   O     O_R   0.621360 0.317890 0.672660 -0.509842
O30   O     O_R   0.621360 0.317890 0.827340 -0.508610
O31   O     O_R   0.621360 0.682110 0.327340 -0.497133
O32   O     O_R   0.621360 0.682110 0.172660 -0.504316
O33   O     O_R   0.206850 0.711370 0.665820 -0.531252
O34   O     O_R   0.206850 0.711370 0.834180 -0.530597
O35   O     O_R   0.206850 0.288630 0.334180 -0.534840
O36   O     O_R   0.206850 0.288630 0.165820 -0.530771
O37   O     O_R   0.706850 0.211370 0.665820 -0.533825
O38   O     O_R   0.706850 0.211370 0.834180 -0.533772
O39   O     O_R   0.706850 0.788630 0.334180 -0.533800
O40   O     O_R   0.706850 0.788630 0.165820 -0.529717
O41   O     O_R   0.457710 0.733190 0.672630 -0.529808
O42   O     O_R   0.457710 0.733190 0.827370 -0.528244
O43   O     O_R   0.457710 0.266810 0.327370 -0.530312
O44   O     O_R   0.457710 0.266810 0.172630 -0.529499
O45   O     O_R   0.957710 0.233190 0.672630 -0.515231
O46   O     O_R   0.957710 0.233190 0.827370 -0.529976
O47   O     O_R   0.957710 0.766810 0.327370 -0.536740
O48   O     O_R   0.957710 0.766810 0.172630 -0.529493
O49   O     O_3   0.331690 0.831680 0.750000 -0.296721
O50   O     O_3   0.331690 0.168320 0.250000 -0.289675
O51   O     O_3   0.831690 0.331680 0.750000 -0.276966
O52   O     O_3   0.831690 0.668320 0.250000 -0.295368
C145  C     C_3   0.080158 0.642449 0.563427 -0.380306
H65   H     H_    0.022137 0.653439 0.610667 0.141526
H66   H     H_    0.028758 0.614008 0.522747 0.154120
H67   H     H_    0.162157 0.616137 0.581887 0.164779
C146  C     C_3   0.019902 0.664037 0.933303 -0.384854
H68   H     H_    0.955012 0.687705 0.895106 0.133758
H69   H     H_    0.085125 0.633816 0.902271 0.170111
H70   H     H_    0.972230 0.631246 0.972851 0.139109
C147  C     C_3   0.039261 0.351433 0.420109 -0.372091
H71   H     H_    0.989099 0.326374 0.375259 0.136868
H72   H     H_    0.972911 0.379412 0.451687 0.135662
H73   H     H_    0.112306 0.382238 0.396397 0.168995
C148  C     C_3   0.020700 0.335826 0.066687 -0.385040
H74   H     H_    0.955487 0.312045 0.104778 0.134030
H75   H     H_    0.086175 0.366049 0.097827 0.170292
H76   H     H_    0.973480 0.368628 0.027129 0.139520
C149  C     C_3   0.454099 0.164134 0.578570 -0.412746
H77   H     H_    0.389608 0.192994 0.612410 0.128419
H78   H     H_    0.406788 0.126510 0.544134 0.131778
H79   H     H_    0.514678 0.135002 0.615055 0.144123
C150  C     C_3   0.519895 0.164029 0.933308 -0.385438
H80   H     H_    0.455008 0.187691 0.895106 0.132731
H81   H     H_    0.585123 0.133804 0.902284 0.169883
H82   H     H_    0.472220 0.131243 0.972860 0.139340
C151  C     C_3   0.794739 0.844274 0.467646 -0.385093
H83   H     H_    0.755608 0.870761 0.421577 0.165322
H84   H     H_    0.818988 0.878594 0.513094 0.125807
H85   H     H_    0.873302 0.824159 0.440914 0.149503
C152  C     C_3   0.520737 0.835830 0.066652 -0.384696
H86   H     H_    0.455504 0.812056 0.104735 0.134540
H87   H     H_    0.586214 0.866043 0.097800 0.170651
H88   H     H_    0.473542 0.868633 0.027084 0.139374
C153  C     C_3   0.276653 0.654457 0.429414 -0.378625
H89   H     H_    0.333300 0.631053 0.471829 0.117999
H90   H     H_    0.217327 0.614244 0.408082 0.170902
H91   H     H_    0.331281 0.673427 0.383266 0.136705
C154  C     C_3   0.252311 0.648222 0.055888 -0.381524
H92   H     H_    0.289658 0.623387 0.006779 0.119363
H93   H     H_    0.326773 0.663806 0.092206 0.132885
H94   H     H_    0.195591 0.611434 0.085380 0.182515
C155  C     C_3   0.270882 0.345695 0.560868 -0.383502
H95   H     H_    0.308618 0.377044 0.515913 0.119721
H96   H     H_    0.226652 0.380375 0.599309 0.172837
H97   H     H_    0.343588 0.319648 0.591124 0.131538
C156  C     C_3   0.253268 0.352012 0.944055 -0.381942
H98   H     H_    0.290635 0.376964 0.993183 0.119542
H99   H     H_    0.327748 0.336469 0.907894 0.132173
H100  H     H_    0.197011 0.388689 0.914372 0.181592
C157  C     C_3   0.657214 0.119940 0.459698 -0.372388
H101  H     H_    0.698083 0.098620 0.509507 0.122256
H102  H     H_    0.574867 0.093320 0.442918 0.196671
H103  H     H_    0.725483 0.119429 0.415901 0.144027
C158  C     C_3   0.752275 0.148206 0.055869 -0.381356
H104  H     H_    0.789613 0.123376 0.006756 0.119279
H105  H     H_    0.826740 0.163774 0.092192 0.133129
H106  H     H_    0.695534 0.111420 0.085349 0.182591
C159  C     C_3   0.811665 0.734021 0.617232 -0.400792
H107  H     H_    0.900616 0.751219 0.600200 0.149263
H108  H     H_    0.785157 0.768810 0.661929 0.158177
H109  H     H_    0.815668 0.680748 0.638885 0.116466
C160  C     C_3   0.753336 0.851985 0.944022 -0.381855
H110  H     H_    0.790712 0.876942 0.993146 0.119506
H111  H     H_    0.827809 0.836424 0.907864 0.132662
H112  H     H_    0.697100 0.888668 0.914332 0.181768

loop_
_geom_bond_atom_site_label_1
_geom_bond_atom_site_label_2
_ccdc_geom_bond_type
C6    C32   S    
Cr1   O10   S    
C7    C29   S    
C119  C143  S    
Cr4   O52   S    
C120  C144  S    
C110  C118  S    
C36   C50   A    
Cr10  O44   S    
C160  H110  S    
C147  H73   S    
C16   C112  S    
C4    O12   A    
C92   O4    A    
C121  H25   S    
C16   C144  S    
Cr8   O24   S    
C57   C59   A    
Cr1   O1    S    
C8    O24   A    
C58   C60   A    
C145  H67   S    
C62   C70   A    
C61   C63   A    
C123  H27   S    
Cr10  O43   S    
C23   C103  S    
C49   C51   A    
C34   C42   A    
C84   O36   A    
C50   C52   A    
C23   C89   S    
C140  C148  S    
C88   O32   A    
C97   C105  S    
C128  H32   S    
C73   C75   A    
C42   C44   A    
C20   C132  S    
C21   C133  S    
C116  C140  S    
Cr3   O6    S    
Cr10  O35   S    
C45   C47   A    
C112  H8    S    
C46   C48   A    
C115  C123  S    
C139  C147  S    
C42   H42   S    
C27   C57   A    
C87   O39   A    
C112  C120  S    
Cr11  O38   S    
C19   C99   S    
C29   C55   A    
C152  H86   S    
C30   C56   A    
C100  C124  S    
C156  H100  S    
C15   C111  S    
Cr11  O51   S    
C104  C128  S    
C12   C20   S    
C13   C21   S    
C85   C117  S    
Cr11  O45   S    
C41   H41   S    
C63   C71   A    
C113  C137  S    
C36   C44   A    
C33   C51   A    
C80   H16   S    
C37   C45   A    
C157  H101  S    
C130  C138  S    
C91   O43   A    
C39   C47   A    
C152  H88   S    
C40   C48   A    
C20   C94   S    
C34   C52   A    
C24   C90   S    
C28   C58   A    
C72   H62   S    
C98   C106  S    
C61   C69   A    
C33   C41   A    
C148  H75   S    
C10   C18   S    
C76   H12   S    
C95   O7    A    
C2    C28   S    
C32   C62   A    
C93   O5    A    
C134  H38   S    
C129  C137  S    
C126  C134  S    
Cr6   O19   S    
C83   O27   A    
C10   C138  S    
C81   O33   A    
Cr10  O50   S    
C130  H34   S    
C144  C152  S    
C96   O48   A    
C14   C142  S    
C85   O29   A    
Cr5   O26   S    
C69   C77   A    
Cr4   O8    S    
Cr6   O50   S    
C71   C79   A    
C110  H6    S    
Cr6   O28   S    
C33   H49   S    
C74   C76   A    
C96   O8    A    
C105  C113  S    
C65   H59   S    
C89   O1    A    
C78   C80   A    
C155  H96   S    
C9    C105  S    
C66   C74   A    
Cr4   O16   S    
C78   H14   S    
C124  C132  S    
C125  H29   S    
C36   H52   S    
C158  H105  S    
C97   C121  S    
C59   C67   A    
C95   O47   A    
C153  H90   S    
C129  H33   S    
C35   C49   A    
C62   C64   A    
C35   C43   A    
C132  H36   S    
C24   C136  S    
C135  C143  S    
C6    O14   A    
C84   C116  S    
C146  H68   S    
C12   C156  S    
C151  H84   S    
Cr7   O30   S    
Cr2   O11   S    
C154  H93   S    
C100  C108  S    
C82   O26   A    
C39   H55   S    
C83   C115  S    
C103  C127  S    
C73   H9    S    
C3    O11   A    
C104  C112  S    
C94   O6    A    
C1    O17   A    
C87   C119  S    
C150  H80   S    
Cr7   O21   S    
Cr2   O4    S    
C127  H31   S    
Cr12  O48   S    
C157  H103  S    
C37   H53   S    
C149  H77   S    
C13   C157  S    
C38   H54   S    
C15   C143  S    
C44   H44   S    
C40   C54   A    
C102  H22   S    
C10   C106  S    
C67   C75   A    
Cr8   O32   S    
C14   C110  S    
Cr1   O9    S    
C121  C129  S    
C102  C126  S    
C147  H72   S    
C48   H48   S    
C84   O28   A    
Cr4   O15   S    
C85   O37   A    
C14   C22   S    
Cr9   O33   S    
C72   C80   A    
C145  H66   S    
C114  C138  S    
C66   H60   S    
C90   O42   A    
C38   C46   A    
C99   H19   S    
C131  C139  S    
C2    O10   A    
C37   C55   A    
Cr3   O14   S    
C38   C56   A    
C133  H37   S    
C146  H70   S    
C22   C92   S    
C6    O22   A    
C25   C59   A    
C17   C97   S    
C27   C49   A    
C119  C127  S    
C29   C63   A    
C30   C64   A    
C41   C43   A    
C31   C61   A    
Cr3   O5    S    
C109  C117  S    
Cr10  O36   S    
C11   C19   S    
C127  C135  S    
C136  H40   S    
C150  H82   S    
C128  C136  S    
Cr11  O37   S    
C93   O45   A    
C101  C109  S    
C149  H79   S    
C103  C111  S    
C151  H83   S    
C79   H15   S    
C156  H99   S    
C11   C139  S    
C86   O38   A    
Cr3   O51   S    
C9    C137  S    
C105  H1    S    
C100  H20   S    
C12   C140  S    
C17   C95   S    
C13   C141  S    
C88   C120  S    
C68   H58   S    
C19   C93   S    
Cr12  O39   S    
C160  H111  S    
C45   H45   S    
C32   C54   A    
C152  H87   S    
C7    O15   A    
C126  H30   S    
C97   H17   S    
Cr8   O23   S    
Cr1   O2    S    
C83   O35   A    
C117  C141  S    
C148  H74   S    
C134  C142  S    
C107  H3    S    
C20   C100  S    
Cr2   O50   S    
Cr5   O18   S    
C4    O20   A    
C77   C79   A    
C47   H47   S    
C86   C118  S    
C8    O16   A    
C35   H51   S    
C22   C134  S    
Cr6   O20   S    
C102  C110  S    
C68   C76   A    
C91   O3    A    
C74   H10   S    
C143  C151  S    
C12   C108  S    
C21   C91   S    
Cr5   O25   S    
C116  C124  S    
C123  C131  S    
C69   H63   S    
C57   C65   A    
C4    C26   S    
C120  C128  S    
C124  H28   S    
Cr12  O52   S    
C132  C140  S    
C99   C107  S    
C40   H56   S    
C133  C141  S    
C71   H61   S    
C23   C135  S    
C8    C30   S    
C108  C116  S    
Cr5   O49   S    
C136  C144  S    
C11   C155  S    
C155  H95   S    
C39   C53   A    
C103  H23   S    
C158  H104  S    
Cr11  O46   S    
C101  H21   S    
C88   O40   A    
C135  H39   S    
C46   H46   S    
C9    C153  S    
C60   C68   A    
C153  H89   S    
C81   C113  S    
Cr5   O17   S    
C82   O34   A    
C3    O19   A    
C86   O30   A    
Cr9   O34   S    
C70   C78   A    
C18   C96   S    
C159  H107  S    
Cr7   O29   S    
Cr2   O12   S    
C154  H92   S    
C34   H50   S    
C142  C150  S    
C106  C114  S    
C111  C119  S    
C15   C159  S    
C90   O2    A    
C148  H76   S    
C98   H18   S    
C14   C158  S    
C65   C73   A    
Cr1   O49   S    
C28   C50   A    
C58   C66   A    
C157  H102  S    
C13   C109  S    
C21   C101  S    
C15   C23   S    
C16   C24   S    
C5    O13   A    
Cr4   O7    S    
C160  H112  S    
C53   C55   A    
C19   C131  S    
Cr6   O27   S    
C94   O46   A    
C54   C56   A    
C17   C129  S    
C81   O25   A    
C111  H7    S    
C82   C114  S    
C2    O18   A    
C155  H97   S    
C151  H85   S    
C147  H71   S    
C106  H2    S    
C70   H64   S    
C24   C104  S    
C158  H106  S    
C25   C51   A    
C26   C52   A    
C101  C125  S    
C153  H91   S    
C145  H65   S    
C159  H108  S    
C113  C121  S    
C92   O44   A    
C31   C53   A    
Cr9   O42   S    
C107  C115  S    
C98   C122  S    
Cr3   O13   S    
C9    C17   S    
C146  H69   S    
C138  C146  S    
C11   C107  S    
C159  H109  S    
C67   H57   S    
Cr9   O41   S    
C99   C123  S    
C16   C160  S    
C154  H94   S    
C125  C133  S    
C10   C154  S    
Cr9   O49   S    
C115  C139  S    
C118  C142  S    
C75   H11   S    
C141  C149  S    
C108  H4    S    
C131  H35   S    
C118  C126  S    
C22   C102  S    
C5    O21   A    
C87   O31   A    
C150  H81   S    
C109  H5    S    
Cr7   O22   S    
Cr2   O3    S    
Cr7   O51   S    
C104  H24   S    
Cr12  O47   S    
C26   C60   A    
Cr8   O52   S    
C137  C145  S    
C149  H78   S    
C64   C72   A    
C156  H98   S    
C18   C130  S    
C114  C122  S    
C1    O9    A    
C122  H26   S    
C3    C25   S    
C89   O41   A    
C77   H13   S    
C7    O23   A    
C1    C27   S    
C43   H43   S    
C18   C98   S    
C5    C31   S    
C117  C125  S    
C122  C130  S    
Cr8   O31   S    
Cr12  O40   S    
