data_mof_unit_61056.cif
_audit_creation_date              2012-12-10T18:22:18-0500
_audit_creation_method            fapswitch 2.2
_symmetry_space_group_name_H-M    P1
_symmetry_Int_Tables_number       1
_space_group_crystal_system       triclinic
_cell_length_a                    23.412795
_cell_length_b                    23.412369
_cell_length_c                    51.874834
_cell_angle_alpha                 90.001317
_cell_angle_beta                  90.001643
_cell_angle_gamma                 89.999783
_cell_volume                      28435.1381482

loop_
_atom_site_label
_atom_site_type_symbol
_atom_type_description
_atom_site_fract_x
_atom_site_fract_y
_atom_site_fract_z
_atom_type_partial_charge
C1    C     C_R   0.999999 0.500007 0.179219 0.853492
C2    C     C_R   0.011075 0.449636 0.609391 -0.214068
C3    C     C_1   0.687124 0.187053 0.249905 -0.002343
C4    C     C_1   0.812878 0.687057 0.749905 -0.002175
C5    C     C_1   0.187121 0.312943 0.250094 -0.002209
C6    C     C_1   0.687122 0.187056 0.750096 -0.002145
C7    C     C_1   0.312877 0.812944 0.249903 -0.002086
C8    C     C_1   0.231272 0.731350 0.249896 0.009801
C9    C     C_1   0.768727 0.268651 0.750103 0.009711
C10   C     C_1   0.268725 0.231347 0.250102 0.009778
C11   C     C_1   0.731274 0.768652 0.749897 0.009700
C12   C     C_1   0.768728 0.268650 0.249897 0.009787
C13   C     C_R   0.549964 0.987341 0.390584 -0.214497
C14   C     C_1   0.231267 0.731348 0.750148 0.009270
C15   C     C_1   0.731269 0.768654 0.250147 0.009353
C16   C     C_1   0.268732 0.231347 0.749853 0.009262
C17   C     C_1   0.231347 0.268730 0.749853 0.009153
C18   C     C_1   0.768655 0.731271 0.250147 0.009284
C19   C     C_1   0.268652 0.768732 0.750148 0.009160
C20   C     C_1   0.731343 0.231267 0.249890 0.009621
C21   C     C_1   0.768660 0.731271 0.749890 0.009618
C22   C     C_1   0.231339 0.268729 0.250109 0.009667
C23   C     C_1   0.731340 0.231270 0.750110 0.009633
C24   C     C_R   0.450040 0.012667 0.609416 -0.214514
C25   C     C_1   0.268659 0.768731 0.249889 0.009702
C26   C     C_R   0.450150 0.989983 0.054852 0.543368
C27   C     C_R   0.549846 0.010022 0.945148 0.543333
C28   C     C_R   0.991153 0.450302 0.054836 0.544890
C29   C     C_R   0.008775 0.550654 0.945160 0.544068
C30   C     C_R   0.549850 0.010012 0.054853 0.543360
C31   C     C_R   0.450149 0.989977 0.945147 0.543320
C32   C     C_R   0.008721 0.550469 0.054875 0.544891
C33   C     C_R   0.991010 0.450524 0.945130 0.544132
C34   C     C_R   0.950210 0.510314 0.554852 0.543292
C35   C     C_R   0.011056 0.449641 0.390609 -0.214032
C36   C     C_R   0.049784 0.489683 0.445148 0.543287
C37   C     C_R   0.509368 0.950218 0.554886 0.544084
C38   C     C_R   0.490632 0.049780 0.445113 0.544087
C39   C     C_R   0.049787 0.489675 0.554852 0.543279
C40   C     C_R   0.950208 0.510322 0.445148 0.543281
C41   C     C_R   0.490711 0.050186 0.554821 0.544026
C42   C     C_R   0.509293 0.949812 0.445179 0.544026
C43   C     C_R   0.551240 0.010685 0.027477 -0.037855
C44   C     C_R   0.448758 0.989308 0.972522 -0.037870
C45   C     C_R   0.009415 0.551912 0.027498 -0.037905
C46   C     C_R   0.988927 0.550355 0.609391 -0.214033
C47   C     C_R   0.990347 0.449080 0.972505 -0.037804
C48   C     C_R   0.448759 0.989310 0.027476 -0.037870
C49   C     C_R   0.551238 0.010690 0.972524 -0.037865
C50   C     C_R   0.990411 0.448971 0.027459 -0.037887
C51   C     C_R   0.009428 0.552010 0.972539 -0.037995
C52   C     C_R   0.051170 0.488989 0.527477 -0.037863
C53   C     C_R   0.948824 0.511008 0.472523 -0.037867
C54   C     C_R   0.490001 0.051476 0.527443 -0.037988
C55   C     C_R   0.510002 0.948522 0.472557 -0.037990
C56   C     C_R   0.948826 0.511004 0.527476 -0.037868
C57   C     C_R   0.449934 0.012355 0.390609 -0.192394
C58   C     C_R   0.051169 0.488993 0.472523 -0.037870
C59   C     C_R   0.510044 0.948728 0.527513 -0.037805
C60   C     C_R   0.489956 0.051270 0.472487 -0.037808
C61   C     C_R   0.499999 0.999998 0.013727 -0.097532
C62   C     C_R   0.499998 0.999999 0.986272 -0.097532
C63   C     C_R   0.999906 0.500468 0.013729 -0.097699
C64   C     C_R   0.999893 0.500520 0.986272 -0.097535
C65   C     C_R   0.999998 0.499997 0.513727 -0.097569
C66   C     C_R   0.999997 0.500000 0.486272 -0.097566
C67   C     C_R   0.500012 0.000051 0.513728 -0.097622
C68   C     C_R   0.550064 0.987632 0.609391 -0.192401
C69   C     C_R   0.499990 0.999947 0.486272 -0.097621
C70   C     C_R   0.602285 0.021609 0.013624 0.074531
C71   C     C_R   0.397713 0.978385 0.986376 0.074538
C72   C     C_R   0.019214 0.603209 0.013662 0.074566
C73   C     C_R   0.980533 0.397786 0.986340 0.074553
C74   C     C_R   0.397713 0.978386 0.013622 0.074537
C75   C     C_R   0.602283 0.021612 0.986378 0.074522
C76   C     C_R   0.980570 0.397731 0.013586 0.074513
C77   C     C_R   0.019219 0.603256 0.986414 0.074498
C78   C     C_R   0.102143 0.477740 0.513623 0.074521
C79   C     C_R   0.488719 0.949686 0.890608 -0.214060
C80   C     C_R   0.897852 0.522257 0.486377 0.074516
C81   C     C_R   0.479691 0.102598 0.513552 0.074467
C82   C     C_R   0.520312 0.897400 0.486448 0.074465
C83   C     C_R   0.897852 0.522255 0.513622 0.074512
C84   C     C_R   0.102142 0.477742 0.486377 0.074509
C85   C     C_R   0.520338 0.897503 0.513694 0.074578
C86   C     C_R   0.479663 0.102495 0.486306 0.074575
C87   C     C_3   0.917368 0.609380 0.349444 0.124793
C88   C     C_3   0.904776 0.662525 0.333570 -0.778564
C89   C     C_3   0.082665 0.390662 0.650565 0.124765
C90   C     C_R   0.511319 0.050303 0.109393 -0.213919
C91   C     C_3   0.095276 0.337518 0.666437 -0.778577
C92   C     C_3   0.606599 0.914177 0.349342 0.124017
C93   C     C_3   0.659397 0.899919 0.333520 -0.779842
C94   C     C_3   0.393413 0.085842 0.650655 0.123982
C95   C     C_3   0.340625 0.100108 0.666482 -0.779854
C96   C     C_3   0.082630 0.390619 0.349454 0.124508
C97   C     C_3   0.095229 0.337482 0.333575 -0.777752
C98   C     C_3   0.917345 0.609350 0.650556 0.124487
C99   C     C_3   0.904738 0.662493 0.666429 -0.777770
C100  C     C_3   0.398798 0.086627 0.344703 0.149606
C101  C     C_R   0.949967 0.487606 0.890611 -0.192392
C102  C     C_3   0.369929 0.121336 0.365904 -0.856964
C103  C     C_3   0.601178 0.913350 0.655300 0.149599
C104  C     C_3   0.630029 0.878626 0.634099 -0.856984
C105  C     C_3   0.416903 0.891009 0.849419 0.124623
C106  C     C_3   0.404086 0.837899 0.833556 -0.778616
C107  C     C_3   0.583195 0.108898 0.150590 0.124268
C108  C     C_3   0.596064 0.162009 0.166444 -0.777527
C109  C     C_3   0.899292 0.412925 0.844716 0.149268
C110  C     C_3   0.870663 0.378061 0.865931 -0.856734
C111  C     C_3   0.099091 0.588729 0.155459 0.149031
C112  C     C_R   0.000001 0.499898 0.820785 0.865170
C113  C     C_R   0.049709 0.513768 0.109419 -0.192537
C114  C     C_3   0.127304 0.624262 0.134358 -0.856926
C115  C     C_3   0.583092 0.108984 0.849422 0.124361
C116  C     C_3   0.595913 0.162094 0.833561 -0.777791
C117  C     C_3   0.416808 0.891095 0.150584 0.124273
C118  C     C_3   0.403939 0.837987 0.166439 -0.777555
C119  C     C_3   0.106089 0.586495 0.849274 0.123812
C120  C     C_3   0.158842 0.600982 0.833464 -0.779895
C121  C     C_3   0.900906 0.411424 0.155359 0.148909
C122  C     C_3   0.872709 0.376015 0.134210 -0.856805
C123  C     C_R   0.511273 0.050315 0.890609 -0.213981
C124  C     C_R   0.488683 0.949692 0.109392 -0.213932
C125  C     C_R   0.049854 0.513185 0.890582 -0.214544
C126  C     C_R   0.950222 0.486720 0.109410 -0.192499
C127  C     C_R   0.987779 0.550608 0.363520 0.387527
C128  C     C_R   0.012231 0.449394 0.636480 0.387548
C129  C     C_R   0.550181 0.986420 0.363493 0.391849
C130  C     C_R   0.449823 0.013588 0.636507 0.391851
C131  C     C_R   0.012214 0.449396 0.363520 0.387579
C132  C     C_R   0.500000 0.999999 0.179211 0.877015
C133  C     C_R   0.987772 0.550600 0.636479 0.387546
C134  C     C_R   0.449847 0.014435 0.363566 0.428742
C135  C     C_R   0.550150 0.985553 0.636434 0.428742
C136  C     C_R   0.487569 0.949446 0.863519 0.387639
C137  C     C_R   0.512472 0.050542 0.136482 0.387688
C138  C     C_R   0.949907 0.485438 0.863568 0.428912
C139  C     C_R   0.049781 0.515498 0.136466 0.432713
C140  C     C_R   0.512423 0.050555 0.863520 0.387619
C141  C     C_R   0.487531 0.949454 0.136481 0.387646
C142  C     C_R   0.050087 0.513993 0.863489 0.391970
C143  C     C_R   0.499999 0.000000 0.820789 0.877047
C144  C     C_R   0.950185 0.484784 0.136455 0.432751
C145  C     C_R   0.999997 0.500002 0.349582 -0.264352
C146  C     C_R   0.000001 0.499998 0.650418 -0.264289
C147  C     C_R   0.500022 0.000455 0.349574 -0.283748
C148  C     C_R   0.499978 0.999544 0.650426 -0.283741
C149  C     C_R   0.499997 0.000000 0.849581 -0.264297
C150  C     C_R   0.500001 0.999998 0.150419 -0.264326
C151  C     C_R   0.000016 0.499635 0.849574 -0.283687
C152  C     C_R   0.999992 0.500087 0.150433 -0.303128
C153  C     C_R   0.999995 0.500003 0.404293 0.193644
C154  C     C_R   0.499999 0.999888 0.679215 0.865320
C155  C     C_R   0.000000 0.499995 0.595707 0.193607
C156  C     C_R   0.499923 0.999684 0.404283 0.178765
C157  C     C_R   0.500078 0.000314 0.595717 0.178760
C158  C     C_R   0.499996 0.000000 0.904293 0.193656
C159  C     C_R   0.500001 0.999997 0.095708 0.193538
C160  C     C_R   0.999874 0.500610 0.904282 0.178901
C161  C     C_R   0.999956 0.500295 0.095726 0.163861
C162  C     C_R   0.895260 0.604711 0.250018 0.810188
C163  C     C_R   0.104740 0.395289 0.749981 0.809370
C164  C     C_R   0.395261 0.895289 0.249982 0.810967
C165  C     C_R   0.500002 0.000112 0.320785 0.865332
C166  C     C_R   0.604739 0.104711 0.750018 0.810968
C167  C     C_R   0.104739 0.395289 0.250017 0.810190
C168  C     C_R   0.895261 0.604710 0.749983 0.810959
C169  C     C_R   0.604740 0.104709 0.249983 0.809373
C170  C     C_R   0.395259 0.895290 0.750018 0.809364
C171  C     C_R   0.895287 0.395261 0.750012 0.806528
C172  C     C_R   0.104712 0.604739 0.249988 0.806632
C173  C     C_R   0.395291 0.104742 0.749981 0.810257
C174  C     C_R   0.604709 0.895258 0.250019 0.810264
C175  C     C_R   0.104709 0.604742 0.750019 0.810229
C176  C     C_R   0.000000 0.499999 0.679210 0.877132
C177  C     C_R   0.895287 0.395262 0.249987 0.806674
C178  C     C_R   0.604713 0.895262 0.749988 0.806526
C179  C     C_R   0.395287 0.104738 0.250012 0.806539
C180  C     C_1   0.149674 0.649744 0.249954 -0.170786
C181  C     C_1   0.850325 0.350257 0.750045 -0.170743
C182  C     C_1   0.350324 0.149742 0.250045 -0.170714
C183  C     C_1   0.649676 0.850258 0.749955 -0.170786
C184  C     C_1   0.850324 0.350257 0.249954 -0.170745
C185  C     C_1   0.149667 0.649747 0.750074 -0.172287
C186  C     C_1   0.649667 0.850253 0.250073 -0.172186
C187  C     C_R   1.000000 0.500001 0.320790 0.877424
C188  C     C_1   0.350333 0.149747 0.749927 -0.172248
C189  C     C_1   0.149744 0.350329 0.749928 -0.171822
C190  C     C_1   0.850257 0.649672 0.250072 -0.172057
C191  C     C_1   0.350254 0.850331 0.750072 -0.171840
C192  C     C_1   0.649739 0.149672 0.249939 -0.171740
C193  C     C_1   0.850264 0.649675 0.749938 -0.172099
C194  C     C_1   0.149736 0.350324 0.250061 -0.171991
C195  C     C_1   0.649736 0.149675 0.750062 -0.172131
C196  C     C_1   0.350263 0.850325 0.249937 -0.172096
C197  C     C_1   0.187053 0.687134 0.249923 -0.002301
C198  C     C_R   0.988934 0.550365 0.390609 -0.214060
C199  C     C_1   0.812945 0.312867 0.750076 -0.002479
C200  C     C_1   0.312944 0.187131 0.250076 -0.002432
C201  C     C_1   0.687056 0.812869 0.749924 -0.002506
C202  C     C_1   0.812945 0.312867 0.249923 -0.002305
C203  C     C_1   0.187048 0.687133 0.750120 -0.002180
C204  C     C_1   0.687050 0.812868 0.250119 -0.002132
C205  C     C_1   0.312951 0.187132 0.749881 -0.002208
C206  C     C_1   0.187130 0.312948 0.749883 -0.002558
C207  C     C_1   0.812871 0.687054 0.250118 -0.002337
C208  C     C_1   0.312868 0.812950 0.750118 -0.002532
H1    H     H_    0.980853 0.589610 0.401047 0.170476
H2    H     H_    0.519606 0.089505 0.098956 0.170589
H3    H     H_    0.873898 0.407625 0.826790 0.176448
H4    H     H_    0.828000 0.396191 0.870467 0.267860
H5    H     H_    0.865282 0.333212 0.859406 0.219396
H6    H     H_    0.897370 0.378111 0.883605 0.270143
H7    H     H_    0.124245 0.594291 0.173439 0.176168
H8    H     H_    0.055496 0.605719 0.159639 0.104928
H9    H     H_    0.100753 0.623918 0.116638 0.270313
H10   H     H_    0.131868 0.669137 0.140974 0.219405
H11   H     H_    0.170307 0.606900 0.129865 0.268011
H12   H     H_    0.604226 0.071874 0.839894 0.124990
H13   H     H_    0.911017 0.478359 0.901071 0.176352
H14   H     H_    0.601496 0.115009 0.869038 0.149656
H15   H     H_    0.576420 0.200193 0.842797 0.255640
H16   H     H_    0.642820 0.168483 0.832234 0.198353
H17   H     H_    0.578299 0.157232 0.813807 0.272913
H18   H     H_    0.398387 0.885103 0.130970 0.149700
H19   H     H_    0.395718 0.928221 0.160120 0.124967
H20   H     H_    0.421572 0.842814 0.186192 0.272885
H21   H     H_    0.357026 0.831650 0.167772 0.198359
H22   H     H_    0.423383 0.799872 0.157194 0.255714
H23   H     H_    0.111356 0.605265 0.868864 0.149610
H24   H     H_    0.088500 0.523756 0.098978 0.177892
H25   H     H_    0.068345 0.606268 0.839660 0.124725
H26   H     H_    0.154723 0.583050 0.813735 0.272667
H27   H     H_    0.163647 0.648067 0.832064 0.198223
H28   H     H_    0.197516 0.582869 0.842786 0.255823
H29   H     H_    0.875751 0.405740 0.173329 0.176109
H30   H     H_    0.944505 0.394422 0.159520 0.104983
H31   H     H_    0.899262 0.376483 0.116491 0.270382
H32   H     H_    0.868162 0.331095 0.140765 0.219398
H33   H     H_    0.829700 0.393389 0.129737 0.267987
H34   H     H_    0.519527 0.089523 0.901048 0.170520
H35   H     H_    0.480397 0.910490 0.098954 0.170574
H36   H     H_    0.088778 0.522768 0.901004 0.171884
H37   H     H_    0.911419 0.476798 0.098963 0.177876
H38   H     H_    0.669471 0.073534 0.022166 0.180359
H39   H     H_    0.684971 0.002331 0.022176 0.185591
H40   H     H_    0.330526 0.926460 0.977834 0.180248
H41   H     H_    0.019167 0.410393 0.598954 0.170507
H42   H     H_    0.315027 0.997663 0.977822 0.185592
H43   H     H_    0.998183 0.685450 0.022245 0.185843
H44   H     H_    0.069700 0.671467 0.022229 0.180308
H45   H     H_    0.930005 0.329552 0.977783 0.180361
H46   H     H_    0.001517 0.315536 0.977749 0.185914
H47   H     H_    0.315027 0.997664 0.022173 0.185608
H48   H     H_    0.330528 0.926461 0.022162 0.180307
H49   H     H_    0.669470 0.073537 0.977839 0.180358
H50   H     H_    0.684969 0.002334 0.977825 0.185577
H51   H     H_    0.930050 0.329472 0.022110 0.180332
H52   H     H_    0.588950 0.978018 0.401007 0.171958
H53   H     H_    0.001558 0.315443 0.022100 0.185927
H54   H     H_    0.998141 0.685515 0.977892 0.185601
H55   H     H_    0.069666 0.671573 0.977900 0.180280
H56   H     H_    0.168987 0.425375 0.522163 0.180201
H57   H     H_    0.184952 0.496477 0.522177 0.185573
H58   H     H_    0.831007 0.574622 0.477837 0.180205
H59   H     H_    0.815043 0.503521 0.477823 0.185583
H60   H     H_    0.428572 0.170426 0.522050 0.180200
H61   H     H_    0.499953 0.185082 0.522038 0.185614
H62   H     H_    0.571430 0.829572 0.477950 0.180205
H63   H     H_    0.411056 0.021998 0.598992 0.171959
H64   H     H_    0.500049 0.814917 0.477961 0.185616
H65   H     H_    0.831008 0.574618 0.522164 0.180259
H66   H     H_    0.815044 0.503517 0.522174 0.185573
H67   H     H_    0.168987 0.425379 0.477836 0.180261
H68   H     H_    0.184951 0.496480 0.477826 0.185575
H69   H     H_    0.571501 0.829759 0.522277 0.180261
H70   H     H_    0.500125 0.815073 0.522312 0.185841
H71   H     H_    0.499876 0.184925 0.477687 0.185847
H72   H     H_    0.428500 0.170239 0.477723 0.180263
H73   H     H_    0.899038 0.615529 0.369065 0.149470
H74   H     H_    0.019137 0.410397 0.401047 0.170510
H75   H     H_    0.896028 0.572359 0.339938 0.125122
H76   H     H_    0.922319 0.657541 0.313809 0.273106
H77   H     H_    0.857899 0.669147 0.332261 0.198149
H78   H     H_    0.924481 0.700543 0.342783 0.255418
H79   H     H_    0.103976 0.427692 0.660077 0.124995
H80   H     H_    0.101013 0.384531 0.630945 0.149471
H81   H     H_    0.075603 0.299492 0.657216 0.255433
H82   H     H_    0.142156 0.330925 0.667753 0.198094
H83   H     H_    0.077712 0.342484 0.686194 0.273142
H84   H     H_    0.568949 0.894127 0.339768 0.124860
H85   H     H_    0.980836 0.589597 0.598953 0.170536
H86   H     H_    0.612024 0.895544 0.368949 0.149637
H87   H     H_    0.697986 0.918313 0.342802 0.255746
H88   H     H_    0.664479 0.852856 0.332169 0.198247
H89   H     H_    0.655120 0.917718 0.313773 0.272716
H90   H     H_    0.387977 0.104468 0.631046 0.149643
H91   H     H_    0.431070 0.105892 0.660222 0.124840
H92   H     H_    0.344916 0.082320 0.686230 0.272719
H93   H     H_    0.335544 0.147172 0.667829 0.198225
H94   H     H_    0.302031 0.081708 0.657207 0.255767
H95   H     H_    0.100943 0.384457 0.369078 0.149619
H96   H     H_    0.410936 0.021408 0.401067 0.176450
H97   H     H_    0.103981 0.427643 0.339957 0.125133
H98   H     H_    0.077700 0.342478 0.313812 0.272994
H99   H     H_    0.142107 0.330857 0.332273 0.198368
H100  H     H_    0.075515 0.299460 0.342780 0.255547
H101  H     H_    0.896018 0.572323 0.660062 0.125095
H102  H     H_    0.899010 0.615491 0.630934 0.149626
H103  H     H_    0.924425 0.700516 0.657213 0.255567
H104  H     H_    0.857859 0.669097 0.667740 0.198348
H105  H     H_    0.922292 0.657520 0.686188 0.272979
H106  H     H_    0.373393 0.091756 0.326770 0.176573
H107  H     H_    0.589061 0.978571 0.598933 0.176461
H108  H     H_    0.441962 0.104642 0.340488 0.104919
H109  H     H_    0.396620 0.121481 0.383582 0.270233
H110  H     H_    0.364269 0.166142 0.359367 0.219426
H111  H     H_    0.327378 0.102942 0.370438 0.267852
H112  H     H_    0.558009 0.895350 0.659518 0.104887
H113  H     H_    0.626586 0.908216 0.673232 0.176570
H114  H     H_    0.672587 0.897004 0.629563 0.267859
H115  H     H_    0.635674 0.833820 0.640637 0.219405
H116  H     H_    0.603335 0.878489 0.616421 0.270243
H117  H     H_    0.395764 0.928118 0.839892 0.124910
H118  H     H_    0.480465 0.910478 0.901045 0.170465
H119  H     H_    0.398502 0.884982 0.869035 0.149490
H120  H     H_    0.423585 0.799801 0.842791 0.255501
H121  H     H_    0.357180 0.831504 0.832228 0.198103
H122  H     H_    0.421696 0.842764 0.813802 0.273077
H123  H     H_    0.601621 0.114882 0.130976 0.149688
H124  H     H_    0.604280 0.071774 0.160129 0.124877
H125  H     H_    0.578428 0.157189 0.186195 0.272934
H126  H     H_    0.642977 0.168344 0.167780 0.198323
H127  H     H_    0.576625 0.200123 0.157196 0.255711
H128  H     H_    0.942560 0.395171 0.840494 0.104819
N1    N     N_R   0.500000 0.999997 0.067795 -0.340657
N2    N     N_3   0.345467 0.966995 0.972780 -0.380098
N3    N     N_3   0.029490 0.655661 0.027277 -0.379965
N4    N     N_3   0.970217 0.345340 0.972726 -0.379875
N5    N     N_3   0.345467 0.966997 0.027217 -0.380026
N6    N     N_3   0.654529 0.033002 0.972783 -0.380036
N7    N     N_3   0.970276 0.345233 0.027162 -0.379949
N8    N     N_3   0.029466 0.655762 0.972838 -0.380156
N9    N     N_3   0.154313 0.466008 0.527219 -0.380127
N10   N     N_3   0.845681 0.533989 0.472781 -0.380114
N11   N     N_3   0.468933 0.155026 0.527110 -0.380185
N12   N     N_R   0.499997 1.000000 0.932206 -0.340662
N13   N     N_3   0.531070 0.844972 0.472890 -0.380177
N14   N     N_3   0.845682 0.533984 0.527218 -0.380076
N15   N     N_3   0.154312 0.466013 0.472782 -0.380070
N16   N     N_3   0.531142 0.845179 0.527327 -0.379924
N17   N     N_3   0.468859 0.154819 0.472673 -0.379916
N18   N     N_R   0.999945 0.500359 0.067805 -0.339473
N19   N     N_R   0.999886 0.500611 0.932199 -0.340085
N20   N     N_R   0.999999 0.499994 0.567794 -0.340634
N21   N     N_R   0.999996 0.500004 0.432206 -0.340642
N22   N     N_R   0.500054 0.000251 0.567800 -0.340035
N23   N     N_R   0.499947 0.999747 0.432200 -0.340040
N24   N     N_3   0.654531 0.032997 0.027220 -0.380026
O1    O     O_3   1.000000 0.500000 0.250000 -0.440754
O2    O     O_R   0.044090 0.500000 0.807650 -0.596219
O3    O     O_R   0.500000 0.955910 0.192350 -0.601531
O4    O     O_R   0.500000 0.044090 0.807650 -0.601535
O5    O     O_R   0.544090 1.000000 0.692350 -0.616553
O6    O     O_R   0.455910 1.000000 0.307650 -0.616548
O7    O     O_R   1.000000 0.544090 0.692350 -0.601542
O8    O     O_R   1.000000 0.455910 0.307650 -0.601259
O9    O     O_R   0.455910 1.000000 0.692350 -0.596216
O10   O     O_R   0.544090 1.000000 0.307650 -0.596216
O11   O     O_R   1.000000 0.455910 0.692350 -0.601323
O12   O     O_3   1.000000 0.500000 0.750000 -0.441468
O13   O     O_R   1.000000 0.544090 0.307650 -0.601274
O14   O     O_R   0.893990 0.562090 0.235170 -0.615388
O15   O     O_R   0.106010 0.437910 0.764830 -0.616355
O16   O     O_R   0.437910 0.893990 0.235170 -0.636129
O17   O     O_R   0.562090 0.106010 0.764830 -0.636177
O18   O     O_R   0.106010 0.437910 0.235170 -0.615417
O19   O     O_R   0.893990 0.562090 0.764830 -0.615251
O20   O     O_R   0.562090 0.106010 0.235170 -0.636351
O21   O     O_R   0.437910 0.893990 0.764830 -0.636429
O22   O     O_R   0.893990 0.437910 0.764830 -0.633781
O23   O     O_3   0.500000 1.000000 0.250000 -0.441491
O24   O     O_R   0.106010 0.562090 0.235170 -0.633059
O25   O     O_R   0.437910 0.106010 0.764830 -0.616123
O26   O     O_R   0.562090 0.893990 0.235170 -0.616081
O27   O     O_R   0.106010 0.562090 0.764830 -0.635319
O28   O     O_R   0.893990 0.437910 0.235170 -0.633004
O29   O     O_R   0.562090 0.893990 0.764830 -0.616416
O30   O     O_R   0.437910 0.106010 0.235170 -0.616359
O31   O     O_R   0.393990 0.062090 0.735170 -0.635427
O32   O     O_R   0.606010 0.937910 0.264830 -0.635451
O33   O     O_R   0.937910 0.393990 0.735170 -0.616463
O34   O     O_3   0.500000 1.000000 0.750000 -0.441462
O35   O     O_R   0.062090 0.606010 0.264830 -0.616483
O36   O     O_R   0.606010 0.937910 0.735170 -0.633961
O37   O     O_R   0.393990 0.062090 0.264830 -0.633993
O38   O     O_R   0.062090 0.606010 0.735170 -0.616132
O39   O     O_R   0.937910 0.393990 0.264830 -0.616480
O40   O     O_R   0.393990 0.937910 0.264830 -0.615262
O41   O     O_R   0.606010 0.062090 0.735170 -0.615246
O42   O     O_R   0.937910 0.606010 0.264830 -0.636451
O43   O     O_R   0.062090 0.393990 0.735170 -0.636524
O44   O     O_R   0.606010 0.062090 0.264830 -0.616399
O45   O     O_R   0.044090 0.500000 0.192350 -0.611182
O46   O     O_R   0.393990 0.937910 0.735170 -0.616356
O47   O     O_R   0.062090 0.393990 0.264830 -0.636414
O48   O     O_R   0.937910 0.606010 0.735170 -0.636264
O49   O     O_2   0.402060 0.981272 0.068618 -0.537828
O50   O     O_2   0.597933 0.018746 0.931381 -0.537846
O51   O     O_2   0.983752 0.401951 0.068574 -0.539715
O52   O     O_2   0.016384 0.598955 0.931410 -0.538365
O53   O     O_2   0.597941 0.018722 0.068620 -0.537849
O54   O     O_2   0.402061 0.981253 0.931379 -0.537923
O55   O     O_2   0.016155 0.598762 0.068652 -0.539690
O56   O     O_R   0.955910 0.500000 0.807650 -0.616464
O57   O     O_2   0.983434 0.402252 0.931353 -0.539007
O58   O     O_2   0.902172 0.519309 0.568617 -0.537948
O59   O     O_2   0.097823 0.480687 0.431382 -0.537935
O60   O     O_2   0.517360 0.902038 0.568680 -0.539187
O61   O     O_2   0.482636 0.097960 0.431320 -0.539166
O62   O     O_2   0.097826 0.480678 0.568618 -0.538023
O63   O     O_2   0.902169 0.519320 0.431381 -0.537982
O64   O     O_2   0.482714 0.098452 0.568551 -0.538531
O65   O     O_2   0.517293 0.901547 0.431448 -0.538513
O66   O     O_3   0.977056 0.601295 0.350754 -0.577370
O67   O     O_R   0.500000 0.044090 0.192350 -0.601294
O68   O     O_3   0.022973 0.398711 0.649246 -0.577330
O69   O     O_3   0.600475 0.974092 0.350705 -0.576103
O70   O     O_3   0.399531 0.025925 0.649295 -0.576100
O71   O     O_3   0.022941 0.398709 0.350754 -0.577377
O72   O     O_3   0.977035 0.601285 0.649245 -0.577398
O73   O     O_3   0.399401 0.027777 0.351051 -0.589072
O74   O     O_3   0.600593 0.972199 0.648949 -0.589066
O75   O     O_3   0.476626 0.898806 0.850752 -0.577291
O76   O     O_3   0.523463 0.101173 0.149248 -0.577252
O77   O     O_3   0.899542 0.471783 0.851055 -0.589023
O78   O     O_R   0.500000 0.955910 0.807650 -0.601291
O79   O     O_3   0.099891 0.529934 0.149010 -0.587809
O80   O     O_3   0.523368 0.101195 0.850755 -0.577357
O81   O     O_3   0.476540 0.898824 0.149247 -0.577317
O82   O     O_3   0.100319 0.526552 0.850697 -0.576051
O83   O     O_3   0.900089 0.470258 0.148987 -0.587817
O84   O     O_R   0.955910 0.500000 0.192350 -0.611164
Zn1   Zn    Zn3+2 1.000000 0.563030 0.272130 0.995759
Zn2   Zn    Zn3+2 0.500000 0.936970 0.227870 0.997034
Zn3   Zn    Zn3+2 0.936970 0.500000 0.772130 0.992187
Zn4   Zn    Zn3+2 0.063030 0.500000 0.227870 0.991933
Zn5   Zn    Zn3+2 0.500000 0.936970 0.772130 0.995317
Zn6   Zn    Zn3+2 0.500000 0.063030 0.227870 0.995436
Zn7   Zn    Zn3+2 0.063030 0.500000 0.772130 0.996573
Zn8   Zn    Zn3+2 0.936970 0.500000 0.227870 0.991989
Zn9   Zn    Zn3+2 1.000000 0.436970 0.727870 0.995186
Zn10  Zn    Zn3+2 0.436970 1.000000 0.272130 0.992042
Zn11  Zn    Zn3+2 0.563030 0.000000 0.727870 0.992044
Zn12  Zn    Zn3+2 0.000000 0.436970 0.272130 0.995808
Zn13  Zn    Zn3+2 1.000000 0.563030 0.727870 0.996834
Zn14  Zn    Zn3+2 0.563030 1.000000 0.272130 0.996458
Zn15  Zn    Zn3+2 0.436970 0.000000 0.727870 0.996468
Zn16  Zn    Zn3+2 0.500000 0.063030 0.772130 0.996953

loop_
_geom_bond_atom_site_label_1
_geom_bond_atom_site_label_2
_ccdc_geom_bond_type
C41   O64   S    
C173  C188  S    
C34   C56   A    
C38   N23   A    
C42   O65   S    
O6    Zn10  S    
C132  C150  S    
C32   C45   A    
C159  N1    S    
C160  N19   S    
O32   Zn14  S    
C46   C155  A    
C137  O76   S    
C91   H83   S    
C97   H98   S    
C113  H24   S    
C37   O60   S    
C17   C206  S    
C104  H115  S    
C111  H7    S    
C157  N22   S    
C166  O17   A    
C139  C152  A    
C105  H119  S    
C176  O7    A    
C28   N18   A    
C198  H1    S    
O1    Zn12  S    
H38   N24   S    
C40   O63   S    
C146  C176  S    
C98   H102  S    
C166  O41   A    
C103  H112  S    
C96   H95   S    
O14   Zn8   S    
C81   C86   A    
C119  H23   S    
C117  O81   S    
O1    Zn4   S    
C93   H89   S    
C80   C83   A    
C131  O71   S    
C57   C156  A    
H69   N16   S    
C74   N5    S    
C188  C205  T    
H72   N17   S    
C183  C201  T    
C48   C74   A    
H57   N9    S    
C47   C64   A    
C60   C86   A    
C118  H20   S    
C130  C148  A    
C167  O47   A    
C93   H88   S    
C10   C200  S    
C108  H125  S    
C144  O83   S    
C142  C151  A    
C30   O53   S    
O16   Zn2   S    
C42   C55   A    
C71   C74   A    
O34   Zn15  S    
C189  C206  T    
C101  C138  A    
C12   C20   T    
C112  C151  S    
O78   Zn5   S    
C136  O75   S    
C169  O44   A    
C127  C145  A    
C105  O75   S    
H71   N17   S    
H68   N15   S    
C89   H79   S    
C128  O68   S    
C33   C47   A    
C30   C43   A    
O43   Zn9   S    
O37   Zn10  S    
C174  O32   A    
C177  C184  S    
C127  C198  A    
C162  C190  S    
C43   C61   A    
C56   C83   A    
C158  N12   S    
C138  O77   S    
C91   H81   S    
C97   H100  S    
C49   C62   A    
C14   C19   T    
C171  C181  S    
C51   C64   A    
O17   Zn16  S    
O35   Zn1   S    
C143  O4    A    
C132  O67   A    
C138  C151  A    
C82   C85   A    
C35   H74   S    
C32   O55   S    
C116  H15   S    
O4    Zn16  S    
C82   N13   S    
C100  O73   S    
C137  C150  A    
O22   Zn3   S    
C129  C147  A    
C113  C161  A    
C143  C149  S    
O40   Zn10  S    
H58   N10   S    
C106  H120  S    
C98   C99   S    
C67   C69   A    
C7    C196  T    
C109  H3    S    
C83   N14   S    
C54   C81   A    
C52   C65   A    
C5    C194  T    
C15   C18   T    
C98   O72   S    
C115  H14   S    
C88   H77   S    
C79   C158  A    
C125  C160  A    
C27   N12   A    
C106  H121  S    
C79   C136  A    
H64   N13   S    
H39   N24   S    
C94   O70   S    
C29   O52   S    
C112  O2    A    
C110  H6    S    
O36   Zn11  S    
O41   Zn11  S    
C58   C84   A    
C107  O76   S    
C177  O28   A    
C141  O81   S    
C115  C116  S    
C139  O79   S    
C1    C152  S    
C1    O84   A    
C90   C159  A    
C104  H114  S    
C147  C165  S    
C59   C67   A    
O12   Zn7   S    
C119  H25   S    
C122  H32   S    
C101  C160  A    
C162  O14   A    
C107  C108  S    
C113  C139  A    
C12   C202  S    
C92   O69   S    
C89   C91   S    
C57   H96   S    
C39   O62   S    
C102  H111  S    
C163  O43   A    
H61   N11   S    
C50   C63   A    
C99   H104  S    
C94   C95   S    
C167  O18   A    
O46   Zn15  S    
C114  H10   S    
C88   H76   S    
C105  H117  S    
H45   N4    S    
C141  C150  A    
C122  H33   S    
C133  O72   S    
C117  H18   S    
C31   O54   S    
H51   N7    S    
C81   N11   S    
O38   Zn13  S    
O1    Zn1   S    
C90   H2    S    
C53   C80   A    
C16   C205  S    
O23   Zn6   S    
C24   C157  A    
C9    C23   T    
O31   Zn15  S    
C153  C198  A    
C170  C191  S    
C11   C21   T    
C130  O70   S    
C18   C207  S    
C59   C85   A    
C13   C156  A    
C96   H97   S    
H55   N8    S    
C92   H84   S    
C95   H93   S    
C107  H124  S    
C55   C69   A    
C94   H90   S    
C127  O66   S    
H42   N2    S    
C37   C59   A    
C38   C60   A    
C177  O39   A    
H44   N3    S    
O33   Zn9   S    
C171  O33   A    
C168  C193  S    
C19   C208  S    
C170  O46   A    
C85   N16   S    
C115  H12   S    
C181  C199  T    
C29   C51   A    
O45   Zn4   S    
C109  H128  S    
H70   N16   S    
C68   C135  A    
C110  H4    S    
C35   C153  A    
O56   Zn3   S    
C100  H106  S    
C164  C196  S    
C43   C70   A    
C73   N4    S    
H48   N5    S    
C104  H116  S    
C144  C152  A    
C117  C118  S    
O12   Zn9   S    
C154  O5    A    
C128  C146  A    
C165  O6    A    
C60   C69   A    
H66   N14   S    
O3    Zn2   S    
C126  C144  A    
C132  O3    A    
H50   N6    S    
O9    Zn15  S    
C78   N9    S    
C61   C62   A    
C142  O82   S    
C178  O36   A    
C63   C64   A    
C24   C130  A    
C190  C207  T    
O30   Zn6   S    
C102  H109  S    
O84   Zn8   S    
O20   Zn6   S    
C70   C75   A    
O28   Zn8   S    
C13   C129  A    
H65   N14   S    
C87   O66   S    
C140  C149  A    
O8    Zn12  S    
C9    C199  S    
C33   O57   S    
C87   C88   S    
C95   H92   S    
C75   N6    S    
C136  C149  A    
C10   C22   T    
C134  C147  A    
C156  N23   S    
C2    C155  A    
C145  C187  S    
C72   N3    S    
C26   N1    A    
O67   Zn6   S    
C120  H27   S    
C164  O16   A    
C118  H21   S    
C121  H30   S    
C92   H86   S    
H54   N8    S    
C93   H87   S    
C125  H36   S    
C108  H126  S    
H60   N11   S    
O34   Zn16  S    
C89   O68   S    
C16   C17   T    
C126  C161  A    
H62   N13   S    
C163  O15   A    
C178  C183  S    
C26   C48   A    
C179  C182  S    
C172  C180  S    
C119  O82   S    
C126  H37   S    
C8    C25   T    
C39   N20   A    
C4    C193  T    
C148  C154  S    
C52   C78   A    
C169  O20   A    
C6    C195  T    
C100  H108  S    
C15   C204  S    
C172  O35   A    
C80   N10   S    
C155  N20   S    
C97   H99   S    
O23   Zn2   S    
C99   H105  S    
C182  C200  T    
C111  H8    S    
C47   C73   A    
C31   N12   A    
C40   C53   A    
C68   H107  S    
C116  H16   S    
C51   C77   A    
C96   C97   S    
C13   H52   S    
C175  C185  S    
O21   Zn5   S    
C42   N23   A    
C98   H101  S    
C164  O40   A    
C3    C20   S    
C163  C189  S    
C124  H35   S    
C1    O45   A    
C162  O42   A    
C121  C122  S    
C108  H127  S    
C37   N22   A    
C73   C76   A    
C57   C134  A    
O5    Zn11  S    
C68   C157  A    
O23   Zn10  S    
C35   C131  A    
O34   Zn5   S    
C101  H13   S    
C86   N17   S    
O47   Zn12  S    
O27   Zn7   S    
H43   N3    S    
C36   O59   S    
C119  C120  S    
O18   Zn4   S    
C106  H122  S    
C105  C106  S    
C116  H17   S    
C36   C58   A    
C7    C25   S    
C2    H41   S    
C71   N2    S    
C185  C203  T    
C27   O50   S    
C187  O8    A    
C109  C110  S    
C46   C133  A    
C129  O69   S    
C92   C93   S    
C111  C114  S    
O15   Zn7   S    
H40   N2    S    
O48   Zn13  S    
C87   H75   S    
C29   N19   A    
H53   N7    S    
C89   H80   S    
C103  C104  S    
C172  O24   A    
C133  C146  A    
C3    C192  T    
C178  O29   A    
C174  C186  S    
O26   Zn2   S    
C36   N21   A    
C33   N19   A    
C84   N15   S    
C2    C128  A    
O1    Zn8   S    
C91   H82   S    
C174  O26   A    
C124  C141  A    
C121  O83   S    
C99   H103  S    
C175  O38   A    
C114  H11   S    
O7    Zn13  S    
C111  O79   S    
O12   Zn13  S    
C154  O9    A    
O44   Zn14  S    
O39   Zn12  S    
O11   Zn9   S    
C76   N7    S    
C153  N21   S    
C118  H22   S    
C50   C76   A    
C179  O37   A    
C173  O31   A    
C56   C65   A    
C124  C159  A    
C44   C71   A    
C11   C201  S    
C109  O77   S    
C180  C197  T    
C112  O56   A    
C120  H26   S    
C28   C50   A    
C58   C66   A    
C5    C22   S    
C175  O27   A    
C34   O58   S    
O10   Zn14  S    
O42   Zn1   S    
C131  C145  A    
C94   H91   S    
C103  O74   S    
O34   Zn11  S    
C39   C52   A    
C45   C72   A    
O25   Zn16  S    
C8    C197  S    
C46   H85   S    
C179  O30   A    
C32   N18   A    
C134  O73   S    
C184  C202  T    
C31   C44   A    
C24   H63   S    
C27   C49   A    
C110  H5    S    
C166  C195  S    
C135  O74   S    
C161  N18   S    
C79   H118  S    
C26   O49   S    
C54   C67   A    
C170  O21   A    
C44   C62   A    
C123  C140  A    
C45   C63   A    
O24   Zn4   S    
C38   O61   S    
C87   H73   S    
C72   C77   A    
C96   O71   S    
C88   H78   S    
C122  H31   S    
C125  C142  A    
C14   C203  S    
C100  C102  S    
C115  O80   S    
C186  C204  T    
C187  O13   A    
C55   C82   A    
C107  H123  S    
C53   C66   A    
C140  O80   S    
O13   Zn1   S    
C171  O22   A    
C102  H110  S    
O12   Zn3   S    
C135  C148  A    
C77   N8    S    
H59   N10   S    
C167  C194  S    
C70   N24   S    
C114  H9    S    
O19   Zn3   S    
C90   C137  A    
H67   N15   S    
C41   N22   A    
H49   N6    S    
C117  H19   S    
C165  O10   A    
C103  H113  S    
C40   N21   A    
C28   O51   S    
C34   N20   A    
C173  O25   A    
O2    Zn7   S    
C123  C158  A    
H46   N4    S    
C120  H28   S    
C4    C21   S    
C48   C61   A    
C30   N1    A    
C176  O11   A    
C121  H29   S    
C6    C23   S    
C95   H94   S    
C191  C208  T    
O23   Zn14  S    
C41   C54   A    
C143  O78   A    
C78   C84   A    
C168  O48   A    
O29   Zn5   S    
C65   C66   A    
C168  O19   A    
H47   N5    S    
H56   N9    S    
C169  C192  S    
C123  H34   S    
C49   C75   A    
