data_mof_unit_43286.cif
_audit_creation_date              2012-12-10T22:16:58-0500
_audit_creation_method            fapswitch 2.2
_symmetry_space_group_name_H-M    P1
_symmetry_Int_Tables_number       1
_space_group_crystal_system       triclinic
_cell_length_a                    32.722002
_cell_length_b                    32.723465
_cell_length_c                    32.72222
_cell_angle_alpha                 89.996124
_cell_angle_beta                  90.000461
_cell_angle_gamma                 89.996619
_cell_volume                      35038.2098197

loop_
_atom_site_label
_atom_site_type_symbol
_atom_type_description
_atom_site_fract_x
_atom_site_fract_y
_atom_site_fract_z
_atom_type_partial_charge
C1    C     C_R   0.369408 0.422044 0.869326 0.342951
C2    C     C_R   0.419513 0.366883 0.866877 0.335030
C3    C     C_R   0.959758 0.744686 0.540243 0.889286
C4    C     C_R   0.459750 0.744696 0.040265 0.886216
C5    C     C_R   0.040243 0.255313 0.540243 0.889431
C6    C     C_R   0.540246 0.744689 0.959755 0.888118
C7    C     C_R   0.959734 0.255304 0.459748 0.884753
C8    C     C_R   0.744692 0.959754 0.540247 0.888994
C9    C     C_R   0.255348 0.459788 0.959788 0.885904
C10   C     C_R   0.744703 0.040270 0.459744 0.884965
C11   C     C_R   0.255350 0.540209 0.040210 0.886319
C12   C     C_R   0.255314 0.040242 0.540243 0.889365
C13   C     C_R   0.577911 0.130613 0.369461 0.344619
C14   C     C_R   0.744734 0.540284 0.959701 0.888500
C15   C     C_R   0.255303 0.959734 0.459749 0.884880
C16   C     C_R   0.744736 0.459715 0.040299 0.888075
C17   C     C_R   0.040212 0.540212 0.255348 0.886190
C18   C     C_R   0.540285 0.959702 0.744736 0.888118
C19   C     C_R   0.959787 0.459788 0.255348 0.885685
C20   C     C_R   0.459715 0.040299 0.744736 0.888640
C21   C     C_R   0.959700 0.540285 0.744736 0.888004
C22   C     C_R   0.459787 0.959787 0.255347 0.886200
C23   C     C_R   0.040296 0.459719 0.744732 0.888906
C24   C     C_R   0.419576 0.633054 0.133051 0.334905
C25   C     C_R   0.540213 0.040211 0.255348 0.885688
C26   C     C_R   0.959755 0.755310 0.959755 0.888537
C27   C     C_R   0.040269 0.244739 0.959732 0.889215
C28   C     C_R   0.040250 0.755305 0.040263 0.885861
C29   C     C_R   0.959761 0.244642 0.040224 0.885243
C30   C     C_R   0.244649 0.959791 0.040210 0.885908
C31   C     C_R   0.755263 0.959714 0.959700 0.891143
C32   C     C_R   0.244679 0.040222 0.959777 0.886106
C33   C     C_R   0.755317 0.040277 0.040279 0.887656
C34   C     C_R   0.040270 0.040268 0.755260 0.889223
C35   C     C_R   0.419430 0.133220 0.633224 0.335437
C36   C     C_R   0.040253 0.959734 0.244699 0.888024
C37   C     C_R   0.959749 0.959762 0.755325 0.885631
C38   C     C_R   0.959758 0.040226 0.244645 0.887726
C39   C     C_R   0.459726 0.755293 0.459740 0.887320
C40   C     C_R   0.540269 0.244700 0.459746 0.887587
C41   C     C_R   0.540239 0.755325 0.540252 0.888321
C42   C     C_R   0.459758 0.244681 0.540257 0.887869
C43   C     C_R   0.244677 0.459761 0.540253 0.888059
C44   C     C_R   0.755293 0.459727 0.459741 0.887389
C45   C     C_R   0.244700 0.540268 0.459745 0.887490
C46   C     C_R   0.578101 0.630720 0.869225 0.342494
C47   C     C_R   0.755318 0.540243 0.540258 0.888114
C48   C     C_R   0.540260 0.540246 0.755314 0.887755
C49   C     C_R   0.540252 0.459762 0.244674 0.887725
C50   C     C_R   0.459740 0.459726 0.755292 0.887854
C51   C     C_R   0.459747 0.540267 0.244700 0.887856
C52   C     C_R   0.403109 0.403103 0.850553 -0.138344
C53   C     C_R   0.149397 0.596865 0.403148 -0.139143
C54   C     C_R   0.596905 0.403119 0.149415 -0.138880
C55   C     C_R   0.850537 0.596914 0.596941 -0.138650
C56   C     C_R   0.403176 0.596832 0.149369 -0.138376
C57   C     C_R   0.422042 0.869327 0.369410 0.342617
C58   C     C_R   0.149414 0.403124 0.596898 -0.138032
C59   C     C_R   0.596968 0.596948 0.850502 -0.138512
C60   C     C_R   0.850559 0.403110 0.403115 -0.138857
C61   C     C_R   0.596879 0.850580 0.596909 -0.138657
C62   C     C_R   0.596859 0.149399 0.403148 -0.139328
C63   C     C_R   0.403094 0.149451 0.596931 -0.138416
C64   C     C_R   0.403106 0.850560 0.403116 -0.138638
C65   C     C_R   0.903091 0.903122 0.850576 -0.138578
C66   C     C_R   0.147793 0.095299 0.904699 -0.140775
C67   C     C_R   0.096812 0.903170 0.149364 -0.138330
C68   C     C_R   0.578047 0.369343 0.130695 0.344719
C69   C     C_R   0.849058 0.098342 0.098334 -0.144947
C70   C     C_R   0.902595 0.097320 0.149877 -0.138415
C71   C     C_R   0.148301 0.904180 0.095817 -0.143527
C72   C     C_R   0.095603 0.095620 0.851849 -0.137817
C73   C     C_R   0.850220 0.902796 0.902792 -0.136901
C74   C     C_R   0.096809 0.850639 0.096820 -0.138705
C75   C     C_R   0.095599 0.148146 0.904382 -0.137843
C76   C     C_R   0.902599 0.149875 0.097311 -0.138500
C77   C     C_R   0.903773 0.851283 0.903801 -0.141138
C78   C     C_R   0.904132 0.404143 0.351652 -0.143382
C79   C     C_R   0.133099 0.633107 0.419526 0.335235
C80   C     C_R   0.649799 0.597229 0.902762 -0.138126
C81   C     C_R   0.097184 0.402812 0.649756 -0.137178
C82   C     C_R   0.351690 0.595825 0.095819 -0.143518
C83   C     C_R   0.902770 0.597221 0.649796 -0.137806
C84   C     C_R   0.649792 0.402777 0.097214 -0.137507
C85   C     C_R   0.095851 0.595865 0.351655 -0.143244
C86   C     C_R   0.351653 0.404143 0.904132 -0.143168
C87   C     C_R   0.596243 0.351263 0.096209 -0.140943
C88   C     C_R   0.404142 0.904134 0.351652 -0.143254
C89   C     C_R   0.596249 0.648747 0.903764 -0.141002
C90   C     C_R   0.630661 0.869297 0.578054 0.345057
C91   C     C_R   0.402782 0.097222 0.649791 -0.137557
C92   C     C_R   0.403180 0.649366 0.096823 -0.138666
C93   C     C_R   0.595858 0.095856 0.351656 -0.143378
C94   C     C_R   0.403149 0.350600 0.903133 -0.139187
C95   C     C_R   0.597217 0.902782 0.649791 -0.137322
C96   C     C_R   0.649425 0.096881 0.403126 -0.139161
C97   C     C_R   0.096180 0.351299 0.596209 -0.141043
C98   C     C_R   0.350605 0.903142 0.403155 -0.139479
C99   C     C_R   0.903798 0.648712 0.596222 -0.141274
C100  C     C_R   0.351289 0.096197 0.596219 -0.141132
C101  C     C_R   0.866888 0.366895 0.419526 0.335336
C102  C     C_R   0.903139 0.350608 0.403155 -0.139664
C103  C     C_R   0.648738 0.903783 0.596247 -0.140763
C104  C     C_R   0.096876 0.649427 0.403125 -0.138986
C105  C     C_1   0.288066 0.439322 0.939320 -0.185493
C106  C     C_1   0.060677 0.560678 0.288067 -0.186112
C107  C     C_1   0.712490 0.438866 0.061223 -0.185397
C108  C     C_1   0.938771 0.561134 0.712492 -0.184019
C109  C     C_1   0.288080 0.560664 0.060665 -0.184427
C110  C     C_1   0.061209 0.438882 0.712472 -0.182818
C111  C     C_1   0.712488 0.561133 0.938772 -0.184186
C112  C     C_R   0.130609 0.577919 0.369461 0.345027
C113  C     C_R   0.369340 0.130711 0.578050 0.345495
C114  C     C_1   0.939319 0.439321 0.288065 -0.186868
C115  C     C_1   0.561135 0.938779 0.712489 -0.185086
C116  C     C_1   0.439036 0.287705 0.938942 -0.184965
C117  C     C_1   0.560679 0.060676 0.288067 -0.186798
C118  C     C_1   0.439048 0.712283 0.061043 -0.184495
C119  C     C_1   0.438867 0.061226 0.712489 -0.183741
C120  C     C_1   0.560853 0.712130 0.939146 -0.185545
C121  C     C_1   0.439321 0.939319 0.288064 -0.186119
C122  C     C_1   0.560853 0.287869 0.060849 -0.185850
C123  C     C_1   0.061069 0.712314 0.439023 -0.187078
C124  C     C_R   0.869280 0.630665 0.578057 0.344937
C125  C     C_1   0.712133 0.939148 0.560856 -0.185273
C126  C     C_1   0.938945 0.287709 0.439039 -0.185924
C127  C     C_1   0.287887 0.060837 0.560839 -0.182731
C128  C     C_1   0.939161 0.712113 0.560840 -0.183751
C129  C     C_1   0.287708 0.938947 0.439039 -0.185572
C130  C     C_1   0.060835 0.287887 0.560837 -0.182675
C131  C     C_1   0.712314 0.061070 0.439021 -0.187456
C132  C     C_1   0.787513 0.938869 0.938780 -0.181222
C133  C     C_1   0.060780 0.060776 0.787911 -0.182631
C134  C     C_1   0.211917 0.939337 0.060664 -0.184510
C135  C     C_R   0.366892 0.866891 0.419525 0.335224
C136  C     C_1   0.938896 0.060999 0.212294 -0.183558
C137  C     C_1   0.787362 0.061366 0.061366 -0.180857
C138  C     C_1   0.060956 0.938954 0.212287 -0.182882
C139  C     C_1   0.211851 0.060582 0.939418 -0.183995
C140  C     C_1   0.938976 0.939067 0.787752 -0.184460
C141  C     C_1   0.939155 0.787878 0.939156 -0.183807
C142  C     C_1   0.938903 0.212289 0.060993 -0.185413
C143  C     C_1   0.060778 0.212086 0.939225 -0.182899
C144  C     C_1   0.060950 0.787719 0.061040 -0.184339
C145  C     C_1   0.787674 0.438922 0.439012 -0.185407
C146  C     C_R   0.130689 0.369355 0.578034 0.345613
C147  C     C_1   0.561059 0.560966 0.787711 -0.185342
C148  C     C_1   0.212248 0.439065 0.561025 -0.182995
C149  C     C_1   0.439040 0.561049 0.212290 -0.183180
C150  C     C_1   0.787728 0.560951 0.561046 -0.183859
C151  C     C_1   0.561023 0.439067 0.212243 -0.183384
C152  C     C_1   0.212298 0.561061 0.439032 -0.183706
C153  C     C_1   0.439009 0.438918 0.787671 -0.185161
C154  C     C_1   0.438920 0.787675 0.439012 -0.185174
C155  C     C_1   0.439052 0.212266 0.561041 -0.183542
C156  C     C_1   0.561060 0.212298 0.439034 -0.183952
C157  C     C_R   0.633104 0.133102 0.419526 0.335321
C158  C     C_1   0.560933 0.787755 0.561023 -0.183357
C159  C     C_R   0.614876 0.063349 0.063350 -0.061038
C160  C     C_R   0.936659 0.936659 0.614865 -0.060515
C161  C     C_R   0.385140 0.063339 0.936661 -0.059823
C162  C     C_R   0.063349 0.936651 0.385129 -0.060490
C163  C     C_R   0.614867 0.936657 0.936656 -0.060429
C164  C     C_R   0.936656 0.063343 0.385134 -0.060621
C165  C     C_R   0.385136 0.936658 0.063342 -0.060059
C166  C     C_R   0.063341 0.063340 0.614864 -0.059910
C167  C     C_R   0.063346 0.614869 0.063347 -0.060598
C168  C     C_R   0.866810 0.919471 0.866816 0.335764
C169  C     C_R   0.063340 0.385140 0.936661 -0.059913
C170  C     C_R   0.936656 0.385134 0.063344 -0.060644
C171  C     C_R   0.936663 0.614857 0.936663 -0.059996
C172  C     C_R   0.114865 0.563341 0.063342 -0.060156
C173  C     C_R   0.936658 0.436658 0.114864 -0.059916
C174  C     C_R   0.885132 0.563344 0.936655 -0.060337
C175  C     C_R   0.063346 0.436656 0.885131 -0.060541
C176  C     C_R   0.114864 0.436660 0.936659 -0.059837
C177  C     C_R   0.936656 0.563343 0.885133 -0.060198
C178  C     C_R   0.885127 0.436652 0.063349 -0.060261
C179  C     C_R   0.129971 0.077294 0.869996 0.346512
C180  C     C_R   0.063344 0.563344 0.114868 -0.059977
C181  C     C_R   0.436657 0.063345 0.885133 -0.060276
C182  C     C_R   0.563348 0.114869 0.063346 -0.059797
C183  C     C_R   0.436661 0.936659 0.114863 -0.059978
C184  C     C_R   0.563344 0.885135 0.936657 -0.059743
C185  C     C_R   0.563350 0.936652 0.885127 -0.060216
C186  C     C_R   0.436659 0.885136 0.063343 -0.060698
C187  C     C_R   0.563347 0.063344 0.114869 -0.059910
C188  C     C_R   0.436659 0.114864 0.936658 -0.060390
C189  C     C_R   0.936662 0.885140 0.563340 -0.060225
C190  C     C_R   0.130512 0.922108 0.130590 0.345108
C191  C     C_R   0.885128 0.063348 0.436653 -0.060038
C192  C     C_R   0.063342 0.114864 0.563342 -0.060183
C193  C     C_R   0.114871 0.936652 0.436654 -0.060200
C194  C     C_R   0.063351 0.885126 0.436651 -0.059967
C195  C     C_R   0.114864 0.063339 0.563341 -0.060199
C196  C     C_R   0.936656 0.114865 0.436657 -0.060221
C197  C     C_R   0.885133 0.936657 0.563345 -0.059927
C198  C     C_R   0.614875 0.563349 0.563352 -0.060289
C199  C     C_R   0.436652 0.436651 0.614873 -0.060000
C200  C     C_R   0.385131 0.563347 0.436655 -0.060196
C201  C     C_R   0.866263 0.081004 0.133713 0.338911
C202  C     C_R   0.563350 0.436652 0.385129 -0.060483
C203  C     C_R   0.614874 0.436650 0.436652 -0.060006
C204  C     C_R   0.436657 0.563344 0.385135 -0.060463
C205  C     C_R   0.385129 0.436652 0.563349 -0.060437
C206  C     C_R   0.563354 0.563351 0.614878 -0.060005
C207  C     C_R   0.563350 0.614872 0.563350 -0.060554
C208  C     C_R   0.563350 0.385129 0.436654 -0.060279
C209  C     C_R   0.436654 0.385130 0.563349 -0.060221
C210  C     C_R   0.436654 0.614868 0.436655 -0.059956
C211  C     C_R   0.598578 0.046617 0.098577 -0.226743
C212  C     C_R   0.080411 0.866950 0.133047 0.335128
C213  C     C_R   0.901427 0.953385 0.598573 -0.225431
C214  C     C_R   0.401434 0.046613 0.901433 -0.222014
C215  C     C_R   0.098574 0.953382 0.401427 -0.223764
C216  C     C_R   0.598576 0.953381 0.901423 -0.226324
C217  C     C_R   0.901425 0.046619 0.401427 -0.227397
C218  C     C_R   0.401434 0.953389 0.098566 -0.221933
C219  C     C_R   0.098567 0.046608 0.598567 -0.220463
C220  C     C_R   0.953389 0.098565 0.401434 -0.224284
C221  C     C_R   0.046617 0.598575 0.098575 -0.225443
C222  C     C_R   0.953395 0.901437 0.598565 -0.222159
C223  C     C_R   0.633186 0.419466 0.133175 0.336099
C224  C     C_R   0.921954 0.869348 0.869300 0.345726
C225  C     C_R   0.046615 0.401432 0.901430 -0.221418
C226  C     C_R   0.046623 0.901422 0.401422 -0.226911
C227  C     C_R   0.953393 0.401435 0.098565 -0.223452
C228  C     C_R   0.046611 0.098567 0.598568 -0.220433
C229  C     C_R   0.953393 0.598561 0.901436 -0.222655
C230  C     C_R   0.901423 0.401425 0.046621 -0.226833
C231  C     C_R   0.401437 0.098563 0.953392 -0.222076
C232  C     C_R   0.098571 0.598570 0.046614 -0.222204
C233  C     C_R   0.598567 0.901434 0.953392 -0.222774
C234  C     C_R   0.098563 0.401438 0.953395 -0.221159
C235  C     C_R   0.077774 0.130520 0.869478 0.345386
C236  C     C_R   0.598579 0.098577 0.046620 -0.226676
C237  C     C_R   0.901435 0.598562 0.953392 -0.222701
C238  C     C_R   0.401432 0.901432 0.046614 -0.222199
C239  C     C_R   0.098568 0.546610 0.098568 -0.221942
C240  C     C_R   0.901425 0.453383 0.098573 -0.226347
C241  C     C_R   0.901423 0.546620 0.901423 -0.228602
C242  C     C_R   0.098573 0.453385 0.901427 -0.225106
C243  C     C_R   0.453386 0.098572 0.901427 -0.228192
C244  C     C_R   0.546616 0.098570 0.098571 -0.222851
C245  C     C_R   0.453392 0.901433 0.098568 -0.225389
C246  C     C_R   0.921362 0.131171 0.131168 0.343335
C247  C     C_R   0.546620 0.901426 0.901424 -0.226074
C248  C     C_R   0.901433 0.901434 0.546613 -0.221829
C249  C     C_R   0.901424 0.098574 0.453383 -0.229499
C250  C     C_R   0.098568 0.098567 0.546611 -0.220765
C251  C     C_R   0.098578 0.901422 0.453383 -0.229232
C252  C     C_R   0.598583 0.546622 0.598584 -0.229173
C253  C     C_R   0.401423 0.453379 0.598578 -0.226653
C254  C     C_R   0.401430 0.546617 0.401431 -0.223707
C255  C     C_R   0.598578 0.453379 0.401423 -0.227086
C256  C     C_R   0.453387 0.598570 0.401430 -0.226816
C257  C     C_R   0.129964 0.129996 0.922710 0.346323
C258  C     C_R   0.546623 0.598579 0.598581 -0.226895
C259  C     C_R   0.453384 0.401424 0.598577 -0.228922
C260  C     C_R   0.546620 0.401427 0.401426 -0.223954
C261  C     C_R   0.401426 0.401427 0.546620 -0.223397
C262  C     C_R   0.401425 0.598574 0.453383 -0.229147
C263  C     C_R   0.598576 0.598575 0.546620 -0.223682
C264  C     C_R   0.598579 0.401423 0.453383 -0.229273
C265  C     C_1   0.316551 0.422900 0.922893 0.100724
C266  C     C_1   0.077096 0.577106 0.316552 0.100140
C267  C     C_1   0.684459 0.422051 0.078087 0.096240
C268  C     C_R   0.130510 0.869412 0.077883 0.345769
C269  C     C_1   0.921899 0.577945 0.684463 0.097701
C270  C     C_1   0.316576 0.577079 0.077075 0.101759
C271  C     C_1   0.078064 0.422079 0.684430 0.098418
C272  C     C_1   0.684459 0.577946 0.921899 0.097633
C273  C     C_1   0.922891 0.422899 0.316549 0.099338
C274  C     C_1   0.577945 0.921911 0.684459 0.096507
C275  C     C_1   0.422345 0.315864 0.922185 0.098136
C276  C     C_1   0.577101 0.077100 0.316552 0.099431
C277  C     C_1   0.422363 0.684114 0.077784 0.098148
C278  C     C_1   0.422056 0.078095 0.684458 0.098076
C279  C     C_R   0.868738 0.868814 0.921492 0.344116
C280  C     C_1   0.577401 0.683776 0.922600 0.099670
C281  C     C_1   0.422898 0.922892 0.316549 0.100074
C282  C     C_1   0.577401 0.316226 0.077385 0.099380
C283  C     C_1   0.077827 0.684164 0.422321 0.096336
C284  C     C_1   0.683777 0.922608 0.577405 0.100122
C285  C     C_1   0.922191 0.315870 0.422350 0.097187
C286  C     C_1   0.316252 0.077370 0.577378 0.102422
C287  C     C_1   0.922627 0.683748 0.577379 0.101501
C288  C     C_1   0.315869 0.922194 0.422349 0.097512
C289  C     C_1   0.077362 0.316256 0.577374 0.102547
C290  C     C_R   0.866266 0.133714 0.080992 0.338573
C291  C     C_1   0.684163 0.077832 0.422321 0.096064
C292  C     C_1   0.815549 0.922064 0.921916 0.099063
C293  C     C_1   0.077146 0.077150 0.816450 0.104871
C294  C     C_1   0.183417 0.922924 0.077074 0.101658
C295  C     C_1   0.921991 0.077816 0.184280 0.098857
C296  C     C_1   0.815046 0.078520 0.078514 0.104461
C297  C     C_1   0.077635 0.922208 0.184116 0.099094
C298  C     C_1   0.183193 0.076844 0.923154 0.104742
C299  C     C_1   0.922213 0.922372 0.815905 0.098246
C300  C     C_1   0.922612 0.816242 0.922623 0.101369
C301  C     C_R   0.369396 0.922091 0.369469 0.345362
C302  C     C_1   0.921997 0.184276 0.077807 0.097799
C303  C     C_1   0.077142 0.183545 0.922851 0.104617
C304  C     C_1   0.077629 0.815890 0.077782 0.098220
C305  C     C_1   0.815821 0.422158 0.422310 0.097229
C306  C     C_1   0.577839 0.577685 0.815841 0.097574
C307  C     C_1   0.184091 0.422370 0.577782 0.099219
C308  C     C_1   0.422357 0.577794 0.184120 0.098818
C309  C     C_1   0.815869 0.577658 0.577818 0.098870
C310  C     C_1   0.577782 0.422370 0.184087 0.098713
C311  C     C_1   0.184138 0.577816 0.422340 0.098593
C312  C     C_R   0.630654 0.077946 0.369424 0.342354
C313  C     C_1   0.422305 0.422153 0.815816 0.097605
C314  C     C_1   0.422155 0.815822 0.422310 0.097470
C315  C     C_1   0.422347 0.184121 0.577809 0.099075
C316  C     C_1   0.577811 0.184138 0.422341 0.098419
C317  C     C_1   0.577628 0.815910 0.577785 0.098915
C318  C     C_3   0.371736 0.491402 0.871364 0.111660
C319  C     C_3   0.354103 0.530375 0.853218 -0.801093
C320  C     C_3   0.128423 0.508573 0.371927 0.110616
C321  C     C_3   0.146483 0.469524 0.354380 -0.795890
C322  C     C_3   0.679585 0.441470 0.179727 0.121423
C323  C     C_R   0.631219 0.921463 0.631292 0.342208
C324  C     C_3   0.698823 0.479088 0.199054 -0.798596
C325  C     C_3   0.820180 0.558753 0.679682 0.124116
C326  C     C_3   0.800779 0.521217 0.699006 -0.808477
C327  C     C_3   0.371896 0.508545 0.128458 0.110116
C328  C     C_3   0.354321 0.469521 0.146546 -0.795554
C329  C     C_3   0.179722 0.441445 0.679587 0.122952
C330  C     C_3   0.199061 0.479048 0.698843 -0.798358
C331  C     C_3   0.679689 0.558730 0.820183 0.123708
C332  C     C_3   0.699004 0.521179 0.800804 -0.808192
C333  C     C_3   0.871357 0.491404 0.371728 0.112294
C334  C     C_R   0.866766 0.580579 0.633236 0.335589
C335  C     C_R   0.368824 0.078503 0.631252 0.345295
C336  C     C_3   0.853198 0.530373 0.354099 -0.801860
C337  C     C_3   0.558512 0.820274 0.679587 0.121847
C338  C     C_3   0.520888 0.800955 0.698827 -0.798419
C339  C     C_3   0.440904 0.320249 0.820285 0.124723
C340  C     C_3   0.478259 0.300678 0.800780 -0.808675
C341  C     C_3   0.508562 0.128423 0.371925 0.110921
C342  C     C_3   0.469510 0.146481 0.354376 -0.796318
C343  C     C_3   0.441083 0.679649 0.179631 0.122648
C344  C     C_3   0.478495 0.699153 0.199096 -0.798691
C345  C     C_3   0.441290 0.179798 0.679657 0.124656
C346  C     C_R   0.078481 0.368837 0.631235 0.345578
C347  C     C_3   0.478843 0.199189 0.698957 -0.808540
C348  C     C_3   0.508762 0.628155 0.871675 0.112468
C349  C     C_3   0.469619 0.645691 0.853800 -0.801904
C350  C     C_3   0.491405 0.871356 0.371728 0.111979
C351  C     C_3   0.530373 0.853106 0.354192 -0.801444
C352  C     C_3   0.508720 0.372015 0.128113 0.111232
C353  C     C_3   0.469515 0.354536 0.145901 -0.796653
C354  C     C_3   0.179702 0.679712 0.440956 0.123856
C355  C     C_3   0.199208 0.699244 0.478328 -0.808545
C356  C     C_3   0.628008 0.871865 0.508726 0.111280
C357  C     C_R   0.922088 0.369397 0.369470 0.344650
C358  C     C_3   0.645494 0.854066 0.469529 -0.796968
C359  C     C_3   0.820302 0.320273 0.440961 0.123417
C360  C     C_3   0.800809 0.300729 0.478336 -0.808606
C361  C     C_3   0.372020 0.128153 0.508722 0.110339
C362  C     C_3   0.354560 0.145970 0.469519 -0.795538
C363  C     C_3   0.871831 0.627997 0.508729 0.111084
C364  C     C_3   0.854018 0.645472 0.469531 -0.796863
C365  C     C_3   0.320267 0.820307 0.440961 0.123845
C366  C     C_3   0.300710 0.800827 0.478335 -0.808533
C367  C     C_3   0.128145 0.372006 0.508705 0.110178
C368  C     C_R   0.077938 0.630658 0.369422 0.342928
C369  C     C_3   0.145963 0.354524 0.469515 -0.795435
C370  C     C_3   0.679714 0.179700 0.440955 0.123467
C371  C     C_3   0.699250 0.199202 0.478326 -0.808730
C372  C     C_3   0.820417 0.941452 0.820241 0.122358
C373  C     C_3   0.801199 0.979060 0.800866 -0.797725
C374  C     C_3   0.128885 0.007900 0.870930 0.101112
C375  C     C_3   0.147339 0.969534 0.852322 -0.787239
C376  C     C_3   0.128097 0.991458 0.128450 0.110182
C377  C     C_3   0.145598 0.030478 0.146612 -0.795581
C378  C     C_3   0.820192 0.057347 0.179760 0.112560
C379  C     C_R   0.921494 0.631174 0.631253 0.344496
C380  C     C_3   0.801694 0.019056 0.198482 -0.792961
C381  C     C_3   0.058901 0.820351 0.179628 0.122526
C382  C     C_3   0.021488 0.800855 0.199099 -0.798435
C383  C     C_3   0.991283 0.872001 0.871855 0.110367
C384  C     C_3   0.030478 0.854512 0.854052 -0.796206
C385  C     C_3   0.008344 0.131163 0.868837 0.101241
C386  C     C_3   0.970941 0.150655 0.849349 -0.771120
C387  C     C_3   0.990595 0.127348 0.127350 0.119599
C388  C     C_3   0.030391 0.144303 0.144316 -0.804671
C389  C     C_3   0.128856 0.129045 0.992105 0.101318
C390  C     C_R   0.631259 0.631187 0.921480 0.344365
C391  C     C_3   0.147286 0.147651 0.030483 -0.787259
C392  C     C_3   0.128088 0.871556 0.008531 0.109918
C393  C     C_3   0.145648 0.853458 0.969506 -0.795786
C394  C     C_3   0.869561 0.869881 0.990930 0.110381
C395  C     C_3   0.850725 0.851452 0.029196 -0.778627
C396  C     C_3   0.820218 0.179781 0.057325 0.112904
C397  C     C_3   0.801750 0.198531 0.019030 -0.792701
C398  C     C_3   0.371614 0.991434 0.371960 0.110556
C399  C     C_3   0.353579 0.030500 0.354420 -0.796032
C400  C     C_3   0.628601 0.008588 0.371780 0.112308
C401  C     C_R   0.631293 0.368779 0.078530 0.341610
C402  C     C_3   0.646741 0.969607 0.354167 -0.802323
C403  C     C_3   0.630226 0.990903 0.630556 0.111644
C404  C     C_3   0.648686 0.029117 0.649459 -0.785166
C405  C     C_3   0.369966 0.009071 0.630393 0.109544
C406  C     C_3   0.351590 0.970777 0.649221 -0.778198
C407  C     C_3   0.009045 0.369943 0.630392 0.109340
C408  C     C_3   0.970765 0.351572 0.649252 -0.777993
C409  C     C_3   0.991435 0.371611 0.371963 0.110967
C410  C     C_3   0.030501 0.353559 0.354441 -0.796846
C411  C     C_3   0.008578 0.628602 0.371774 0.111918
C412  C     C_R   0.369469 0.369395 0.922087 0.346173
C413  C     C_3   0.969594 0.646760 0.354178 -0.801584
C414  C     C_3   0.990929 0.630024 0.630382 0.110029
C415  C     C_3   0.029228 0.648381 0.649216 -0.779191
C416  C     C_3   0.630355 0.630017 0.990913 0.110452
C417  C     C_3   0.649164 0.648370 0.029227 -0.779525
C418  C     C_3   0.630561 0.369772 0.009088 0.112064
C419  C     C_3   0.649469 0.351315 0.970873 -0.785949
C420  C     C_3   0.371971 0.371612 0.991433 0.110071
C421  C     C_3   0.354450 0.353566 0.030502 -0.795075
C422  C     C_3   0.371909 0.628449 0.008533 0.110201
C423  C     C_R   0.369481 0.630593 0.077884 0.345702
C424  C     C_3   0.354332 0.646527 0.969503 -0.795961
C425  C     C_R   0.459121 0.144629 0.959120 0.905895
C426  C     C_R   0.369478 0.577895 0.130595 0.345144
C427  C     C_R   0.040883 0.855366 0.459117 0.904917
C428  C     C_R   0.540881 0.144630 0.040880 0.907828
C429  C     C_R   0.959123 0.855374 0.540877 0.908808
C430  C     C_R   0.459120 0.855371 0.040879 0.906069
C431  C     C_R   0.040879 0.144629 0.540879 0.908942
C432  C     C_R   0.540879 0.855372 0.959121 0.907762
C433  C     C_R   0.959120 0.144629 0.459121 0.904882
C434  C     C_R   0.855369 0.959121 0.540880 0.908563
C435  C     C_R   0.144628 0.459122 0.959121 0.908303
C436  C     C_R   0.855367 0.040881 0.459118 0.905086
C437  C     C_R   0.133167 0.419477 0.633174 0.335464
C438  C     C_R   0.144628 0.540878 0.040879 0.908672
C439  C     C_R   0.144628 0.040878 0.540879 0.908878
C440  C     C_R   0.855369 0.540880 0.959119 0.905490
C441  C     C_R   0.144631 0.959119 0.459119 0.904999
C442  C     C_R   0.855366 0.459118 0.040882 0.905059
C443  C     C_R   0.040880 0.540880 0.144630 0.908588
C444  C     C_R   0.540882 0.959118 0.855366 0.905120
C445  C     C_R   0.959121 0.459122 0.144628 0.908131
C446  C     C_R   0.459120 0.040880 0.855369 0.905591
C447  C     C_R   0.959119 0.540879 0.855369 0.905022
C448  C     C_R   0.633244 0.580592 0.866754 0.335906
C449  C     C_R   0.459122 0.959122 0.144628 0.908588
C450  C     C_R   0.040881 0.459119 0.855368 0.905758
C451  C     C_R   0.540880 0.040880 0.144630 0.908181
C452  C     C_R   0.959124 0.644623 0.959124 0.908064
C453  C     C_R   0.040877 0.355374 0.959123 0.908589
C454  C     C_R   0.040881 0.644632 0.040881 0.905751
C455  C     C_R   0.959120 0.355370 0.040880 0.905332
C456  C     C_R   0.355371 0.959121 0.040879 0.908477
C457  C     C_R   0.644629 0.959121 0.959120 0.905017
C458  C     C_R   0.355374 0.040877 0.959123 0.908593
C459  C     C_R   0.869326 0.422045 0.369408 0.342235
C460  C     C_R   0.644635 0.040883 0.040883 0.902513
C461  C     C_R   0.040878 0.040878 0.644628 0.908685
C462  C     C_R   0.040881 0.959119 0.355368 0.905278
C463  C     C_R   0.959120 0.959121 0.644630 0.905605
C464  C     C_R   0.959120 0.040879 0.355371 0.905132
C465  C     C_R   0.459119 0.644630 0.459120 0.904938
C466  C     C_R   0.540882 0.355369 0.459119 0.905242
C467  C     C_R   0.540882 0.644632 0.540882 0.905828
C468  C     C_R   0.459119 0.355369 0.540881 0.905480
C469  C     C_R   0.355368 0.459119 0.540881 0.905605
C470  C     C_R   0.580526 0.866823 0.633187 0.336018
C471  C     C_R   0.644633 0.459118 0.459118 0.905030
C472  C     C_R   0.355369 0.540880 0.459120 0.905142
C473  C     C_R   0.644633 0.540882 0.540883 0.905699
C474  C     C_R   0.540884 0.540883 0.644635 0.905375
C475  C     C_R   0.540881 0.459119 0.355368 0.905338
C476  C     C_R   0.459118 0.459118 0.644633 0.905402
C477  C     C_R   0.459121 0.540879 0.355371 0.905369
C478  C     C_R   0.459748 0.255303 0.959733 0.885923
C479  C     C_R   0.040270 0.744702 0.459745 0.884767
C480  C     C_R   0.540246 0.255309 0.040246 0.888143
H1    H     H_    0.611170 0.018676 0.111169 0.180316
H2    H     H_    0.018678 0.611169 0.111169 0.180385
H3    H     H_    0.508253 0.094872 0.366154 0.122614
H4    H     H_    0.468179 0.140917 0.320916 0.260853
H5    H     H_    0.442547 0.131979 0.369035 0.191761
H6    H     H_    0.468559 0.179909 0.360195 0.260899
H7    H     H_    0.422693 0.664999 0.204272 0.138866
H8    H     H_    0.422668 0.704267 0.164972 0.139907
H9    H     H_    0.497236 0.714534 0.175337 0.258866
H10   H     H_    0.468807 0.722157 0.222088 0.207486
H11   H     H_    0.497263 0.675418 0.214487 0.259036
H12   H     H_    0.422927 0.165272 0.704390 0.138145
H13   H     H_    0.981341 0.888850 0.611152 0.181139
H14   H     H_    0.422923 0.204463 0.665015 0.137262
H15   H     H_    0.497566 0.214458 0.675112 0.260598
H16   H     H_    0.469307 0.222264 0.721921 0.195659
H17   H     H_    0.497566 0.175418 0.714343 0.260205
H18   H     H_    0.508605 0.633923 0.905229 0.124753
H19   H     H_    0.508819 0.594560 0.866141 0.131231
H20   H     H_    0.468516 0.639874 0.820375 0.260096
H21   H     H_    0.442730 0.631023 0.868428 0.192923
H22   H     H_    0.468302 0.679149 0.859372 0.260245
H23   H     H_    0.491353 0.865912 0.405341 0.130756
H24   H     H_    0.018674 0.388841 0.888838 0.181145
H25   H     H_    0.491830 0.904890 0.365868 0.123045
H26   H     H_    0.531690 0.858571 0.320715 0.260032
H27   H     H_    0.557404 0.867548 0.368782 0.192872
H28   H     H_    0.531206 0.819691 0.360106 0.260194
H29   H     H_    0.508626 0.366249 0.094559 0.124393
H30   H     H_    0.508810 0.405610 0.133650 0.130638
H31   H     H_    0.468346 0.360353 0.179324 0.260843
H32   H     H_    0.442677 0.369244 0.131216 0.191785
H33   H     H_    0.468164 0.321080 0.140324 0.261013
H34   H     H_    0.165032 0.704319 0.422534 0.136296
H35   H     H_    0.018683 0.888831 0.388829 0.180297
H36   H     H_    0.204323 0.665042 0.422555 0.136636
H37   H     H_    0.214624 0.675531 0.497101 0.260671
H38   H     H_    0.222181 0.722221 0.468577 0.195075
H39   H     H_    0.175478 0.714658 0.497079 0.260242
H40   H     H_    0.633780 0.905418 0.508623 0.124267
H41   H     H_    0.594411 0.866334 0.508811 0.130579
H42   H     H_    0.639673 0.820644 0.468371 0.260822
H43   H     H_    0.630793 0.868745 0.442685 0.191641
H44   H     H_    0.678952 0.859638 0.468182 0.261000
H45   H     H_    0.834983 0.295675 0.422540 0.136208
H46   H     H_    0.981341 0.388850 0.111151 0.181082
H47   H     H_    0.795673 0.334932 0.422562 0.135740
H48   H     H_    0.785382 0.324432 0.497108 0.260690
H49   H     H_    0.777848 0.277740 0.468587 0.194841
H50   H     H_    0.824548 0.285326 0.497087 0.260247
H51   H     H_    0.366245 0.094601 0.508608 0.123924
H52   H     H_    0.405617 0.133681 0.508830 0.130560
H53   H     H_    0.360386 0.179390 0.468372 0.260911
H54   H     H_    0.369276 0.131298 0.442680 0.191586
H55   H     H_    0.321102 0.140402 0.468150 0.261084
H56   H     H_    0.866295 0.594402 0.508829 0.130622
H57   H     H_    0.018670 0.111159 0.611159 0.181199
H58   H     H_    0.905386 0.633764 0.508614 0.124077
H59   H     H_    0.859595 0.678928 0.468169 0.260974
H60   H     H_    0.868687 0.630761 0.442688 0.191638
H61   H     H_    0.820594 0.639655 0.468384 0.260831
H62   H     H_    0.334929 0.795672 0.422574 0.136168
H63   H     H_    0.295675 0.834985 0.422526 0.136764
H64   H     H_    0.285303 0.824571 0.497072 0.260243
H65   H     H_    0.277721 0.777866 0.468586 0.195074
H66   H     H_    0.324407 0.785403 0.497121 0.260673
H67   H     H_    0.133677 0.405602 0.508793 0.130514
H68   H     H_    0.981338 0.611147 0.888849 0.181112
H69   H     H_    0.094591 0.366235 0.508589 0.123902
H70   H     H_    0.140392 0.321068 0.468165 0.261083
H71   H     H_    0.131295 0.369226 0.442665 0.191573
H72   H     H_    0.179386 0.360346 0.468369 0.260907
H73   H     H_    0.665043 0.204322 0.422554 0.136221
H74   H     H_    0.704320 0.165031 0.422533 0.135774
H75   H     H_    0.714666 0.175473 0.497078 0.260221
H76   H     H_    0.722228 0.222174 0.468574 0.194866
H77   H     H_    0.675539 0.214618 0.497099 0.260680
H78   H     H_    0.795644 0.923122 0.834738 0.139317
H79   H     H_    0.888828 0.388831 0.018683 0.180304
H80   H     H_    0.835043 0.923081 0.795572 0.139881
H81   H     H_    0.825096 0.997750 0.785637 0.258778
H82   H     H_    0.778216 0.969608 0.777754 0.207747
H83   H     H_    0.785845 0.997791 0.824650 0.259082
H84   H     H_    0.095314 0.007338 0.865263 0.122534
H85   H     H_    0.134542 0.007175 0.904498 0.121060
H86   H     H_    0.180799 0.968833 0.858002 0.260380
H87   H     H_    0.133211 0.942035 0.866332 0.190595
H88   H     H_    0.141666 0.969000 0.818859 0.260659
H89   H     H_    0.094487 0.991379 0.133912 0.130566
H90   H     H_    0.388849 0.111149 0.981336 0.181168
H91   H     H_    0.133938 0.991827 0.094911 0.122100
H92   H     H_    0.179069 0.031826 0.141123 0.260808
H93   H     H_    0.130963 0.057464 0.132126 0.191702
H94   H     H_    0.139705 0.031367 0.180031 0.260983
H95   H     H_    0.795084 0.075408 0.165499 0.130624
H96   H     H_    0.834398 0.075609 0.204755 0.136571
H97   H     H_    0.825929 0.000606 0.213471 0.258814
H98   H     H_    0.778474 0.027675 0.221684 0.205515
H99   H     H_    0.786774 0.000406 0.174362 0.258339
H100  H     H_    0.077296 0.834997 0.204265 0.138827
H101  H     H_    0.111161 0.611161 0.018672 0.181151
H102  H     H_    0.077309 0.795731 0.164969 0.139892
H103  H     H_    0.002739 0.785479 0.175342 0.258876
H104  H     H_    0.031173 0.777846 0.222090 0.207459
H105  H     H_    0.002727 0.824592 0.214490 0.259061
H106  H     H_    0.991390 0.866234 0.905410 0.124033
H107  H     H_    0.991196 0.905596 0.866314 0.128758
H108  H     H_    0.031634 0.860330 0.820628 0.260976
H109  H     H_    0.057324 0.869212 0.868725 0.191224
H110  H     H_    0.031826 0.821056 0.859631 0.261159
H111  H     H_    0.007013 0.136846 0.902380 0.127456
H112  H     H_    0.888832 0.981322 0.611166 0.180374
H113  H     H_    0.611152 0.888849 0.981339 0.181046
H114  H     H_    0.007012 0.097622 0.863151 0.127074
H115  H     H_    0.971029 0.144992 0.815879 0.258419
H116  H     H_    0.942749 0.137298 0.862708 0.202530
H117  H     H_    0.971030 0.184124 0.855016 0.258370
H118  H     H_    0.990127 0.133006 0.093779 0.130590
H119  H     H_    0.990123 0.093778 0.133002 0.132368
H120  H     H_    0.032119 0.138578 0.177731 0.261589
H121  H     H_    0.056722 0.129153 0.129172 0.192382
H122  H     H_    0.032126 0.177717 0.138592 0.261464
H123  H     H_    0.134523 0.095479 0.992828 0.121184
H124  H     H_    0.111149 0.388852 0.981342 0.181200
H125  H     H_    0.095283 0.134703 0.992655 0.123034
H126  H     H_    0.141602 0.181112 0.031019 0.260591
H127  H     H_    0.133148 0.133635 0.057976 0.190954
H128  H     H_    0.180747 0.141980 0.031199 0.260283
H129  H     H_    0.133871 0.905105 0.008192 0.121871
H130  H     H_    0.094488 0.866037 0.008587 0.128686
H131  H     H_    0.139818 0.820031 0.968587 0.261075
H132  H     H_    0.131004 0.867939 0.942522 0.191186
H133  H     H_    0.179110 0.859010 0.968184 0.260934
H134  H     H_    0.863977 0.903462 0.991471 0.136589
H135  H     H_    0.611172 0.111170 0.018680 0.180290
H136  H     H_    0.903107 0.864141 0.991794 0.128415
H137  H     H_    0.856310 0.817977 0.029897 0.258592
H138  H     H_    0.864637 0.865518 0.056768 0.204354
H139  H     H_    0.817272 0.857211 0.029575 0.258739
H140  H     H_    0.834434 0.204758 0.075602 0.137101
H141  H     H_    0.795092 0.165535 0.075371 0.130814
H142  H     H_    0.786814 0.174432 0.000366 0.258746
H143  H     H_    0.778549 0.221752 0.027645 0.205900
H144  H     H_    0.826006 0.213500 0.000594 0.258279
H145  H     H_    0.405168 0.991729 0.366194 0.122451
H146  H     H_    0.888847 0.611148 0.981336 0.181070
H147  H     H_    0.366076 0.991359 0.405557 0.128843
H148  H     H_    0.320148 0.031466 0.360235 0.260907
H149  H     H_    0.368092 0.057449 0.369090 0.191532
H150  H     H_    0.359150 0.031840 0.320962 0.260965
H151  H     H_    0.595049 0.008218 0.366013 0.123024
H152  H     H_    0.634138 0.008611 0.405377 0.129578
H153  H     H_    0.680175 0.968720 0.359979 0.260138
H154  H     H_    0.632302 0.942590 0.368787 0.192874
H155  H     H_    0.641173 0.968319 0.320706 0.259999
H156  H     H_    0.596643 0.991471 0.636126 0.135065
H157  H     H_    0.388839 0.888841 0.018674 0.181154
H158  H     H_    0.635979 0.991813 0.597014 0.128837
H159  H     H_    0.682166 0.029791 0.643890 0.257997
H160  H     H_    0.634651 0.056726 0.635584 0.204844
H161  H     H_    0.642916 0.029448 0.682910 0.257946
H162  H     H_    0.403550 0.008567 0.635968 0.134393
H163  H     H_    0.364220 0.008213 0.596848 0.127955
H164  H     H_    0.318113 0.970037 0.643644 0.258949
H165  H     H_    0.365691 0.943228 0.635298 0.203479
H166  H     H_    0.357356 0.970393 0.682673 0.258905
H167  H     H_    0.008172 0.364175 0.596852 0.127960
H168  H     H_    0.111156 0.518665 0.111156 0.181156
H169  H     H_    0.008534 0.403530 0.635941 0.134227
H170  H     H_    0.970395 0.357363 0.682698 0.258919
H171  H     H_    0.943203 0.365653 0.635329 0.203388
H172  H     H_    0.970032 0.318092 0.643703 0.258975
H173  H     H_    0.991354 0.366086 0.405563 0.128939
H174  H     H_    0.991739 0.405161 0.366182 0.122640
H175  H     H_    0.031847 0.359117 0.320980 0.260857
H176  H     H_    0.057452 0.368071 0.369110 0.191699
H177  H     H_    0.031457 0.320133 0.360272 0.260852
H178  H     H_    0.008610 0.634118 0.405374 0.129433
H179  H     H_    0.888832 0.481322 0.111165 0.180330
H180  H     H_    0.008200 0.595055 0.365988 0.122909
H181  H     H_    0.968297 0.641216 0.320714 0.260100
H182  H     H_    0.942576 0.632316 0.368792 0.192722
H183  H     H_    0.968714 0.680188 0.360011 0.260185
H184  H     H_    0.991789 0.635782 0.596839 0.128199
H185  H     H_    0.991424 0.596439 0.635947 0.134464
H186  H     H_    0.029610 0.642602 0.682665 0.258826
H187  H     H_    0.056775 0.634279 0.635287 0.203663
H188  H     H_    0.029977 0.681859 0.643649 0.258825
H189  H     H_    0.635922 0.596433 0.991406 0.134531
H190  H     H_    0.888825 0.518687 0.888826 0.179862
H191  H     H_    0.596811 0.635772 0.991754 0.128410
H192  H     H_    0.643594 0.681847 0.029977 0.258800
H193  H     H_    0.635219 0.634262 0.056763 0.203752
H194  H     H_    0.682614 0.642594 0.029628 0.258811
H195  H     H_    0.636130 0.403355 0.008521 0.135180
H196  H     H_    0.597020 0.364020 0.008176 0.128954
H197  H     H_    0.643902 0.317837 0.970198 0.257879
H198  H     H_    0.635597 0.365351 0.943262 0.204987
H199  H     H_    0.682920 0.357085 0.970544 0.257900
H200  H     H_    0.366194 0.405163 0.991735 0.122263
H201  H     H_    0.111166 0.481323 0.888831 0.180402
H202  H     H_    0.405570 0.366084 0.991349 0.128687
H203  H     H_    0.360277 0.320138 0.031460 0.261041
H204  H     H_    0.369124 0.368077 0.057450 0.191321
H205  H     H_    0.320990 0.359127 0.031851 0.261030
H206  H     H_    0.366145 0.594897 0.008207 0.122172
H207  H     H_    0.405505 0.633988 0.008581 0.128726
H208  H     H_    0.360142 0.679957 0.968568 0.260973
H209  H     H_    0.368978 0.632045 0.942523 0.191372
H210  H     H_    0.320872 0.640955 0.968189 0.260893
H211  H     H_    0.481324 0.111166 0.888831 0.179845
H212  H     H_    0.388844 0.018673 0.888843 0.181147
H213  H     H_    0.518670 0.111157 0.111158 0.181095
H214  H     H_    0.481336 0.888842 0.111158 0.180381
H215  H     H_    0.518681 0.888834 0.888831 0.180348
H216  H     H_    0.888841 0.888845 0.518672 0.181099
H217  H     H_    0.888830 0.111166 0.481322 0.179840
H218  H     H_    0.111159 0.111158 0.518669 0.181218
H219  H     H_    0.111170 0.888830 0.481325 0.179856
H220  H     H_    0.611176 0.518682 0.611177 0.179759
H221  H     H_    0.388830 0.481319 0.611168 0.180264
H222  H     H_    0.388841 0.518676 0.388842 0.181063
H223  H     H_    0.111161 0.981325 0.388838 0.181074
H224  H     H_    0.611169 0.481320 0.388830 0.180272
H225  H     H_    0.481329 0.611158 0.388840 0.180289
H226  H     H_    0.518681 0.611170 0.611171 0.180250
H227  H     H_    0.481326 0.388832 0.611169 0.179771
H228  H     H_    0.518677 0.388839 0.388837 0.181045
H229  H     H_    0.388837 0.388839 0.518677 0.181080
H230  H     H_    0.388831 0.611167 0.481322 0.179799
H231  H     H_    0.611163 0.611163 0.518675 0.181003
H232  H     H_    0.611170 0.388831 0.481325 0.179785
H233  H     H_    0.405333 0.491391 0.865826 0.130846
H234  H     H_    0.611169 0.981320 0.888829 0.180296
H235  H     H_    0.365970 0.491777 0.904916 0.122785
H236  H     H_    0.320641 0.531651 0.858785 0.260118
H237  H     H_    0.368708 0.557400 0.867654 0.192819
H238  H     H_    0.359914 0.531260 0.819785 0.260151
H239  H     H_    0.094870 0.508262 0.366155 0.122481
H240  H     H_    0.133955 0.508637 0.405525 0.130265
H241  H     H_    0.179913 0.468575 0.360200 0.260923
H242  H     H_    0.131983 0.442561 0.369039 0.191671
H243  H     H_    0.140918 0.468195 0.320920 0.260899
H244  H     H_    0.704348 0.423122 0.165232 0.138283
H245  H     H_    0.888833 0.018682 0.388834 0.180268
H246  H     H_    0.664972 0.423123 0.204421 0.138031
H247  H     H_    0.674938 0.497796 0.214283 0.259151
H248  H     H_    0.721820 0.469649 0.222159 0.206794
H249  H     H_    0.714162 0.497798 0.175242 0.258890
H250  H     H_    0.795518 0.577121 0.665036 0.136761
H251  H     H_    0.834716 0.577122 0.704404 0.137485
H252  H     H_    0.824548 0.502492 0.714394 0.260276
H253  H     H_    0.777711 0.530772 0.721973 0.195302
H254  H     H_    0.785496 0.502491 0.675174 0.260634
H255  H     H_    0.405494 0.508590 0.133991 0.130250
H256  H     H_    0.388843 0.981330 0.111155 0.181163
H257  H     H_    0.366125 0.508214 0.094906 0.122259
H258  H     H_    0.320861 0.468210 0.140980 0.260877
H259  H     H_    0.368963 0.442538 0.132066 0.191661
H260  H     H_    0.360140 0.468592 0.179976 0.260915
H261  H     H_    0.204412 0.423094 0.664971 0.139249
H262  H     H_    0.165215 0.423092 0.704339 0.140663
H263  H     H_    0.175252 0.497760 0.714185 0.258873
H264  H     H_    0.222157 0.469590 0.721841 0.207785
H265  H     H_    0.214301 0.497760 0.674970 0.258986
H266  H     H_    0.704413 0.577097 0.834716 0.137253
H267  H     H_    0.111157 0.018665 0.611157 0.181222
H268  H     H_    0.665054 0.577091 0.795510 0.136061
H269  H     H_    0.675169 0.502453 0.785524 0.260592
H270  H     H_    0.721980 0.530716 0.777737 0.195254
H271  H     H_    0.714381 0.502459 0.824584 0.260209
H272  H     H_    0.904908 0.491786 0.365954 0.123053
H273  H     H_    0.865827 0.491391 0.405326 0.130922
H274  H     H_    0.819766 0.531249 0.359918 0.260179
H275  H     H_    0.867631 0.557401 0.368702 0.192947
H276  H     H_    0.858758 0.531651 0.320637 0.259997
H277  H     H_    0.576863 0.834765 0.704347 0.138838
H278  H     H_    0.981335 0.111151 0.388847 0.181046
H279  H     H_    0.576855 0.795577 0.664974 0.138475
H280  H     H_    0.502175 0.785731 0.674946 0.259098
H281  H     H_    0.530323 0.777850 0.721826 0.207114
H282  H     H_    0.502183 0.824771 0.714166 0.258877
H283  H     H_    0.422504 0.334916 0.795660 0.136682
H284  H     H_    0.422473 0.295664 0.834976 0.137884
H285  H     H_    0.497012 0.285270 0.824514 0.260185
H286  H     H_    0.468486 0.277689 0.777829 0.195525
H287  H     H_    0.497038 0.324367 0.785338 0.260527
H288  H     H_    0.508627 0.133953 0.405523 0.130332
O1    O     O_R   0.493560 0.156220 0.946130 -0.629796
O2    O     O_R   0.156220 0.493560 0.946130 -0.628607
O3    O     O_R   0.993700 0.758130 0.554330 -0.614681
O4    O     O_R   0.445670 0.758130 0.006300 -0.616526
O5    O     O_R   0.006300 0.241870 0.554330 -0.614540
O6    O     O_R   0.554330 0.758130 0.993700 -0.614540
O7    O     O_R   0.993700 0.241870 0.445670 -0.616819
O8    O     O_R   0.758130 0.993700 0.554330 -0.615740
O9    O     O_R   0.241870 0.445670 0.993700 -0.615990
O10   O     O_R   0.758130 0.006300 0.445670 -0.617766
O11   O     O_R   0.241870 0.554330 0.006300 -0.616505
O12   O     O_R   0.241870 0.006300 0.554330 -0.614576
O13   O     O_R   0.843780 0.053870 0.493560 -0.629670
O14   O     O_R   0.758130 0.554330 0.993700 -0.614759
O15   O     O_R   0.241870 0.993700 0.445670 -0.616705
O16   O     O_R   0.758130 0.445670 0.006300 -0.616161
O17   O     O_R   0.006300 0.554330 0.241870 -0.617537
O18   O     O_R   0.554330 0.993700 0.758130 -0.616096
O19   O     O_R   0.993700 0.445670 0.241870 -0.616244
O20   O     O_R   0.445670 0.006300 0.758130 -0.614614
O21   O     O_R   0.993700 0.554330 0.758130 -0.614877
O22   O     O_R   0.445670 0.993700 0.241870 -0.616008
O23   O     O_R   0.006300 0.445670 0.758130 -0.614751
O24   O     O_R   0.156220 0.506440 0.053870 -0.627937
O25   O     O_R   0.554330 0.006300 0.241870 -0.617744
O26   O     O_R   0.945670 0.741870 0.993700 -0.614905
O27   O     O_R   0.006300 0.258130 0.945670 -0.614967
O28   O     O_R   0.054330 0.741870 0.006300 -0.616631
O29   O     O_R   0.993700 0.258130 0.054330 -0.616576
O30   O     O_R   0.945670 0.258130 0.006300 -0.615781
O31   O     O_R   0.006300 0.741870 0.054330 -0.615590
O32   O     O_R   0.054330 0.258130 0.993700 -0.616481
O33   O     O_R   0.993700 0.741870 0.945670 -0.616474
O34   O     O_R   0.258130 0.993700 0.054330 -0.616522
O35   O     O_R   0.156220 0.053870 0.506440 -0.627857
O36   O     O_R   0.741870 0.945670 0.993700 -0.615187
O37   O     O_R   0.258130 0.006300 0.945670 -0.616626
O38   O     O_R   0.741870 0.054330 0.006300 -0.613393
O39   O     O_R   0.741870 0.006300 0.054330 -0.615699
O40   O     O_R   0.258130 0.054330 0.993700 -0.616646
O41   O     O_R   0.741870 0.993700 0.945670 -0.613329
O42   O     O_R   0.258130 0.945670 0.006300 -0.616585
O43   O     O_R   0.006300 0.054330 0.741870 -0.614932
O44   O     O_R   0.054330 0.993700 0.258130 -0.616949
O45   O     O_R   0.993700 0.945670 0.741870 -0.616598
O46   O     O_R   0.843780 0.506440 0.946130 -0.629787
O47   O     O_R   0.945670 0.006300 0.258130 -0.613543
O48   O     O_R   0.993700 0.054330 0.258130 -0.616827
O49   O     O_R   0.945670 0.993700 0.741870 -0.615739
O50   O     O_R   0.006300 0.945670 0.258130 -0.613457
O51   O     O_R   0.054330 0.006300 0.741870 -0.616524
O52   O     O_R   0.945670 0.241870 0.493700 -0.616091
O53   O     O_R   0.506300 0.758130 0.945670 -0.617605
O54   O     O_R   0.054330 0.241870 0.506300 -0.616287
O55   O     O_R   0.493700 0.758130 0.054330 -0.615549
O56   O     O_R   0.945670 0.758130 0.506300 -0.616313
O57   O     O_R   0.156220 0.946130 0.493560 -0.629968
O58   O     O_R   0.506300 0.241870 0.054330 -0.616075
O59   O     O_R   0.054330 0.758130 0.493700 -0.615669
O60   O     O_R   0.493700 0.241870 0.945670 -0.616006
O61   O     O_R   0.758130 0.493700 0.054330 -0.615060
O62   O     O_R   0.241870 0.945670 0.493700 -0.616118
O63   O     O_R   0.758130 0.506300 0.945670 -0.615816
O64   O     O_R   0.241870 0.054330 0.506300 -0.616301
O65   O     O_R   0.241870 0.506300 0.054330 -0.616468
O66   O     O_R   0.758130 0.054330 0.493700 -0.615567
O67   O     O_R   0.241870 0.493700 0.945670 -0.617677
O68   O     O_R   0.843780 0.493560 0.053870 -0.629409
O69   O     O_R   0.758130 0.945670 0.506300 -0.615930
O70   O     O_R   0.506300 0.054330 0.241870 -0.616106
O71   O     O_R   0.054330 0.493700 0.758130 -0.615490
O72   O     O_R   0.493700 0.945670 0.241870 -0.617537
O73   O     O_R   0.945670 0.506300 0.758130 -0.615974
O74   O     O_R   0.493700 0.054330 0.758130 -0.615898
O75   O     O_R   0.945670 0.493700 0.241870 -0.617612
O76   O     O_R   0.506300 0.945670 0.758130 -0.615096
O77   O     O_R   0.054330 0.506300 0.241870 -0.616009
O78   O     O_R   0.445670 0.741870 0.493700 -0.613521
O79   O     O_R   0.053870 0.506440 0.156220 -0.627710
O80   O     O_R   0.506300 0.258130 0.445670 -0.616882
O81   O     O_R   0.554330 0.741870 0.506300 -0.616790
O82   O     O_R   0.493700 0.258130 0.554330 -0.613964
O83   O     O_R   0.445670 0.258130 0.506300 -0.616623
O84   O     O_R   0.506300 0.741870 0.554330 -0.613493
O85   O     O_R   0.554330 0.258130 0.493700 -0.613891
O86   O     O_R   0.493700 0.741870 0.445670 -0.617962
O87   O     O_R   0.258130 0.493700 0.554330 -0.613592
O88   O     O_R   0.741870 0.445670 0.493700 -0.613477
O89   O     O_R   0.258130 0.506300 0.445670 -0.616861
O90   O     O_R   0.506440 0.946130 0.843780 -0.629400
O91   O     O_R   0.741870 0.554330 0.506300 -0.616671
O92   O     O_R   0.741870 0.506300 0.554330 -0.613838
O93   O     O_R   0.258130 0.554330 0.493700 -0.613925
O94   O     O_R   0.741870 0.493700 0.445670 -0.617965
O95   O     O_R   0.258130 0.445670 0.506300 -0.616750
O96   O     O_R   0.506300 0.554330 0.741870 -0.617744
O97   O     O_R   0.554330 0.493700 0.258130 -0.613615
O98   O     O_R   0.493700 0.445670 0.741870 -0.613425
O99   O     O_R   0.445670 0.506300 0.258130 -0.616961
O100  O     O_R   0.493700 0.554330 0.258130 -0.613549
O101  O     O_R   0.946130 0.493560 0.156220 -0.628524
O102  O     O_R   0.445670 0.493700 0.741870 -0.617789
O103  O     O_R   0.506300 0.445670 0.258130 -0.616915
O104  O     O_R   0.554330 0.506300 0.741870 -0.613485
O105  O     O_3   0.352899 0.457303 0.852733 -0.575741
O106  O     O_3   0.147133 0.542596 0.353025 -0.573148
O107  O     O_3   0.650459 0.453978 0.150464 -0.582654
O108  O     O_3   0.849412 0.546131 0.650576 -0.582183
O109  O     O_3   0.353017 0.542594 0.147143 -0.572929
O110  O     O_3   0.150470 0.453976 0.650460 -0.583659
O111  O     O_3   0.650571 0.546130 0.849414 -0.581918
O112  O     O_R   0.053870 0.843780 0.493560 -0.629760
O113  O     O_R   0.493560 0.053870 0.843780 -0.629850
O114  O     O_3   0.852730 0.457301 0.352895 -0.576325
O115  O     O_3   0.546009 0.849537 0.650458 -0.582924
O116  O     O_3   0.453801 0.349376 0.849372 -0.582489
O117  O     O_3   0.542584 0.147135 0.353023 -0.573502
O118  O     O_3   0.453904 0.650517 0.150516 -0.583555
O119  O     O_3   0.453892 0.150560 0.650550 -0.582520
O120  O     O_3   0.542687 0.647071 0.852804 -0.576503
O121  O     O_3   0.457298 0.852728 0.352901 -0.575993
O122  O     O_3   0.542581 0.353051 0.147057 -0.573829
O123  O     O_3   0.150591 0.650595 0.453827 -0.582052
O124  O     O_R   0.946130 0.506440 0.843780 -0.629978
O125  O     O_3   0.646963 0.852929 0.542595 -0.573499
O126  O     O_3   0.849400 0.349403 0.453829 -0.581792
O127  O     O_3   0.353046 0.147079 0.542585 -0.572967
O128  O     O_3   0.852909 0.646965 0.542597 -0.573421
O129  O     O_3   0.349399 0.849402 0.453829 -0.582046
O130  O     O_3   0.147067 0.353049 0.542582 -0.572889
O131  O     O_3   0.650596 0.150591 0.453827 -0.581819
O132  O     O_3   0.849525 0.953975 0.849513 -0.583306
O133  O     O_3   0.147119 0.042617 0.852844 -0.567516
O134  O     O_3   0.146973 0.957406 0.147139 -0.572961
O135  O     O_R   0.493560 0.946130 0.156220 -0.628477
O136  O     O_3   0.849617 0.045881 0.150373 -0.578678
O137  O     O_3   0.046082 0.849487 0.150511 -0.583368
O138  O     O_3   0.957412 0.853045 0.852928 -0.572775
O139  O     O_3   0.043912 0.148463 0.851535 -0.569777
O140  O     O_3   0.957389 0.146873 0.146873 -0.578223
O141  O     O_3   0.147101 0.147138 0.957397 -0.567806
O142  O     O_3   0.146971 0.852869 0.042580 -0.572312
O143  O     O_3   0.851557 0.851689 0.956165 -0.575855
O144  O     O_3   0.849622 0.150372 0.045864 -0.579096
O145  O     O_3   0.352888 0.957430 0.353045 -0.572856
O146  O     O_R   0.053870 0.493560 0.843780 -0.629527
O147  O     O_3   0.647238 0.042678 0.352928 -0.576207
O148  O     O_3   0.648383 0.956093 0.648513 -0.578348
O149  O     O_3   0.351729 0.043806 0.648410 -0.574533
O150  O     O_3   0.043797 0.351729 0.648406 -0.574302
O151  O     O_3   0.957427 0.352889 0.353048 -0.573480
O152  O     O_3   0.042668 0.647242 0.352924 -0.575700
O153  O     O_3   0.956196 0.648263 0.648405 -0.575276
O154  O     O_3   0.648398 0.648263 0.956194 -0.575578
O155  O     O_3   0.648516 0.351615 0.043900 -0.578878
O156  O     O_3   0.353050 0.352890 0.957429 -0.572133
O157  O     O_R   0.506440 0.053870 0.156220 -0.627775
O158  O     O_3   0.353023 0.647136 0.042577 -0.572385
O159  O     O_R   0.993560 0.656220 0.946130 -0.628032
O160  O     O_R   0.053870 0.343780 0.993560 -0.627918
O161  O     O_R   0.006440 0.656220 0.053870 -0.629552
O162  O     O_R   0.946130 0.343780 0.006440 -0.629635
O163  O     O_R   0.993560 0.343780 0.053870 -0.627931
O164  O     O_R   0.506440 0.156220 0.053870 -0.627823
O165  O     O_R   0.053870 0.656220 0.006440 -0.627873
O166  O     O_R   0.006440 0.343780 0.946130 -0.628033
O167  O     O_R   0.946130 0.656220 0.993560 -0.628119
O168  O     O_R   0.343780 0.946130 0.006440 -0.628018
O169  O     O_R   0.656220 0.993560 0.946130 -0.629744
O170  O     O_R   0.343780 0.053870 0.993560 -0.627969
O171  O     O_R   0.656220 0.006440 0.053870 -0.629497
O172  O     O_R   0.656220 0.053870 0.006440 -0.629576
O173  O     O_R   0.343780 0.006440 0.946130 -0.627957
O174  O     O_R   0.656220 0.946130 0.993560 -0.628012
O175  O     O_R   0.946130 0.843780 0.506440 -0.627831
O176  O     O_R   0.343780 0.993560 0.053870 -0.627953
O177  O     O_R   0.053870 0.006440 0.656220 -0.627965
O178  O     O_R   0.006440 0.946130 0.343780 -0.629633
O179  O     O_R   0.946130 0.993560 0.656220 -0.629603
O180  O     O_R   0.993560 0.053870 0.343780 -0.627885
O181  O     O_R   0.946130 0.006440 0.343780 -0.629655
O182  O     O_R   0.993560 0.946130 0.656220 -0.627926
O183  O     O_R   0.053870 0.993560 0.343780 -0.627858
O184  O     O_R   0.006440 0.053870 0.656220 -0.628032
O185  O     O_R   0.993560 0.156220 0.446130 -0.627967
O186  O     O_R   0.493560 0.843780 0.053870 -0.629484
O187  O     O_R   0.553870 0.843780 0.993560 -0.627988
O188  O     O_R   0.006440 0.156220 0.553870 -0.627877
O189  O     O_R   0.446130 0.843780 0.006440 -0.627741
O190  O     O_R   0.993560 0.843780 0.553870 -0.627922
O191  O     O_R   0.553870 0.156220 0.006440 -0.628724
O192  O     O_R   0.006440 0.843780 0.446130 -0.628478
O193  O     O_R   0.446130 0.156220 0.993560 -0.627637
O194  O     O_R   0.843780 0.446130 0.006440 -0.628576
O195  O     O_R   0.156220 0.993560 0.446130 -0.627918
O196  O     O_R   0.843780 0.553870 0.993560 -0.627827
O197  O     O_R   0.053870 0.156220 0.506440 -0.627836
O198  O     O_R   0.156220 0.006440 0.553870 -0.627883
O199  O     O_R   0.156220 0.553870 0.006440 -0.627943
O200  O     O_R   0.843780 0.006440 0.446130 -0.628453
O201  O     O_R   0.156220 0.446130 0.993560 -0.627771
O202  O     O_R   0.843780 0.993560 0.553870 -0.628501
O203  O     O_R   0.553870 0.006440 0.156220 -0.628610
O204  O     O_R   0.006440 0.446130 0.843780 -0.627838
O205  O     O_R   0.446130 0.993560 0.156220 -0.627709
O206  O     O_R   0.993560 0.553870 0.843780 -0.627923
O207  O     O_R   0.446130 0.006440 0.843780 -0.627736
O208  O     O_R   0.506440 0.843780 0.946130 -0.628617
O209  O     O_R   0.993560 0.446130 0.156220 -0.627873
O210  O     O_R   0.553870 0.993560 0.843780 -0.628574
O211  O     O_R   0.006440 0.553870 0.156220 -0.628479
O212  O     O_R   0.493560 0.656220 0.446130 -0.628399
O213  O     O_R   0.553870 0.343780 0.493560 -0.629920
O214  O     O_R   0.506440 0.656220 0.553870 -0.629521
O215  O     O_R   0.446130 0.343780 0.506440 -0.627676
O216  O     O_R   0.493560 0.343780 0.553870 -0.629898
O217  O     O_R   0.553870 0.656220 0.506440 -0.627753
O218  O     O_R   0.506440 0.343780 0.446130 -0.627778
O219  O     O_R   0.946130 0.156220 0.493560 -0.629981
O220  O     O_R   0.446130 0.656220 0.493560 -0.629792
O221  O     O_R   0.343780 0.446130 0.506440 -0.627753
O222  O     O_R   0.656220 0.493560 0.446130 -0.628384
O223  O     O_R   0.343780 0.553870 0.493560 -0.629950
O224  O     O_R   0.656220 0.506440 0.553870 -0.629825
O225  O     O_R   0.656220 0.553870 0.506440 -0.627683
O226  O     O_R   0.343780 0.506440 0.446130 -0.627788
O227  O     O_R   0.656220 0.446130 0.493560 -0.629768
O228  O     O_R   0.343780 0.493560 0.553870 -0.629587
O229  O     O_R   0.553870 0.506440 0.656220 -0.629704
O230  O     O_R   0.843780 0.946130 0.506440 -0.627677
O231  O     O_R   0.506440 0.446130 0.343780 -0.627844
O232  O     O_R   0.446130 0.493560 0.656220 -0.628273
O233  O     O_R   0.493560 0.553870 0.343780 -0.629614
O234  O     O_R   0.446130 0.506440 0.343780 -0.627828
O235  O     O_R   0.493560 0.446130 0.656220 -0.629702
O236  O     O_R   0.553870 0.493560 0.343780 -0.629623
O237  O     O_R   0.506440 0.553870 0.656220 -0.628283
O238  O     O_R   0.445670 0.241870 0.993700 -0.616270
O239  O     O_R   0.006300 0.758130 0.445670 -0.617754
O240  O     O_R   0.554330 0.241870 0.006300 -0.616053
Zn1   Zn    Zn3+2 0.531990 0.199940 0.968010 0.960636
Zn2   Zn    Zn3+2 0.199940 0.531990 0.968010 0.961453
Zn3   Zn    Zn3+2 0.800060 0.031990 0.531990 0.960939
Zn4   Zn    Zn3+2 0.199940 0.468010 0.031990 0.963834
Zn5   Zn    Zn3+2 0.199940 0.031990 0.468010 0.963407
Zn6   Zn    Zn3+2 0.800060 0.468010 0.968010 0.960690
Zn7   Zn    Zn3+2 0.199940 0.968010 0.531990 0.963477
Zn8   Zn    Zn3+2 0.800060 0.531990 0.031990 0.963738
Zn9   Zn    Zn3+2 0.031990 0.468010 0.199940 0.963141
Zn10  Zn    Zn3+2 0.468010 0.968010 0.800060 0.964199
Zn11  Zn    Zn3+2 0.968010 0.531990 0.199940 0.959089
Zn12  Zn    Zn3+2 0.031990 0.800060 0.531990 0.963034
Zn13  Zn    Zn3+2 0.531990 0.031990 0.800060 0.960815
Zn14  Zn    Zn3+2 0.968010 0.468010 0.800060 0.963282
Zn15  Zn    Zn3+2 0.531990 0.968010 0.199940 0.958919
Zn16  Zn    Zn3+2 0.031990 0.531990 0.800060 0.964111
Zn17  Zn    Zn3+2 0.468010 0.031990 0.199940 0.963357
Zn18  Zn    Zn3+2 0.031990 0.699940 0.968010 0.963267
Zn19  Zn    Zn3+2 0.031990 0.300060 0.031990 0.963438
Zn20  Zn    Zn3+2 0.968010 0.699940 0.031990 0.963952
Zn21  Zn    Zn3+2 0.968010 0.300060 0.968010 0.963713
Zn22  Zn    Zn3+2 0.300060 0.968010 0.968010 0.963368
Zn23  Zn    Zn3+2 0.468010 0.199940 0.031990 0.963387
Zn24  Zn    Zn3+2 0.699940 0.031990 0.968010 0.965157
Zn25  Zn    Zn3+2 0.300060 0.031990 0.031990 0.963502
Zn26  Zn    Zn3+2 0.699940 0.968010 0.031990 0.963808
Zn27  Zn    Zn3+2 0.031990 0.968010 0.699940 0.963749
Zn28  Zn    Zn3+2 0.968010 0.968010 0.300060 0.964502
Zn29  Zn    Zn3+2 0.968010 0.031990 0.699940 0.964368
Zn30  Zn    Zn3+2 0.031990 0.031990 0.300060 0.962579
Zn31  Zn    Zn3+2 0.531990 0.699940 0.468010 0.960376
Zn32  Zn    Zn3+2 0.531990 0.300060 0.531990 0.962762
Zn33  Zn    Zn3+2 0.468010 0.699940 0.531990 0.963687
Zn34  Zn    Zn3+2 0.968010 0.800060 0.468010 0.960903
Zn35  Zn    Zn3+2 0.468010 0.300060 0.468010 0.962635
Zn36  Zn    Zn3+2 0.300060 0.468010 0.468010 0.962739
Zn37  Zn    Zn3+2 0.699940 0.531990 0.468010 0.960286
Zn38  Zn    Zn3+2 0.300060 0.531990 0.531990 0.963706
Zn39  Zn    Zn3+2 0.699940 0.468010 0.531990 0.962795
Zn40  Zn    Zn3+2 0.531990 0.468010 0.699940 0.962829
Zn41  Zn    Zn3+2 0.468010 0.468010 0.300060 0.962527
Zn42  Zn    Zn3+2 0.468010 0.531990 0.699940 0.958520
Zn43  Zn    Zn3+2 0.531990 0.531990 0.300060 0.964510
Zn44  Zn    Zn3+2 0.531990 0.800060 0.031990 0.963854
Zn45  Zn    Zn3+2 0.031990 0.199940 0.468010 0.963200
Zn46  Zn    Zn3+2 0.468010 0.800060 0.968010 0.961247
Zn47  Zn    Zn3+2 0.968010 0.199940 0.531990 0.963360
Zn48  Zn    Zn3+2 0.800060 0.968010 0.468010 0.960700

loop_
_geom_bond_atom_site_label_1
_geom_bond_atom_site_label_2
_ccdc_geom_bond_type
C210  C262  A    
C102  C357  A    
C389  H125  S    
O10   Zn48  S    
C208  C260  A    
C477  O234  A    
C411  C413  S    
C37   O49   A    
C159  C236  A    
O102  Zn42  S    
C26   O33   A    
C160  C222  A    
C240  H179  S    
O42   Zn22  S    
C66   C257  A    
C41   O81   A    
C191  C217  A    
C394  H136  S    
C337  C338  S    
C172  C232  A    
C173  C240  A    
C331  H268  S    
C397  H143  S    
C40   O85   A    
O205  Zn17  S    
C397  H144  S    
C72   C179  A    
C377  H92   S    
O202  Zn3   S    
C321  H242  S    
O193  Zn23  S    
C384  H110  S    
C22   C121  S    
C112  O106  S    
O184  Zn29  S    
C102  C285  S    
C420  C421  S    
C433  O219  A    
C352  H29   S    
C416  O154  S    
C348  H19   S    
C120  C280  T    
C198  C473  S    
C356  H41   S    
C434  O230  A    
O27   Zn21  S    
O214  Zn33  S    
C194  C427  S    
C200  C472  S    
C433  O185  A    
O165  Zn18  S    
C351  H26   S    
C393  H133  S    
C370  O131  S    
C158  C317  T    
C443  O79   A    
C51   O100  A    
O63   Zn6   S    
C97   C346  A    
C431  O197  A    
C448  O111  S    
C253  H221  S    
C428  O164  A    
C174  C241  A    
C56   C426  A    
C55   C124  A    
C95   C274  S    
C167  C454  S    
C229  H68   S    
C19   O19   A    
O64   Zn5   S    
C345  O119  S    
C33   C137  S    
C331  O111  S    
C375  H86   S    
C374  H84   S    
O33   Zn18  S    
C242  H201  S    
C27   C143  S    
C368  O152  S    
C7    O7    A    
C411  O152  S    
C362  H54   S    
C38   C136  S    
C206  C252  A    
C386  H116  S    
C364  H60   S    
C182  C236  A    
C335  O149  S    
C43   O87   A    
O40   Zn25  S    
C473  O224  A    
C400  H152  S    
C324  H249  S    
C206  C258  A    
C439  O35   A    
C358  H44   S    
O189  Zn46  S    
C342  H5    S    
C92   C423  A    
O104  Zn40  S    
C159  C460  S    
O101  Zn11  S    
O236  Zn43  S    
C455  O163  A    
C237  H146  S    
C441  O195  A    
C73   C168  A    
C424  H210  S    
C14   O63   A    
C55   C334  A    
C76   C302  S    
C163  C233  A    
C183  C449  S    
O30   Zn21  S    
C212  O137  S    
O112  Zn12  S    
O14   Zn8   S    
C429  O175  A    
C428  O191  A    
C263  H231  S    
C58   C146  A    
C467  O217  A    
C64   C314  S    
C318  H235  S    
C52   C313  S    
C49   C151  S    
C39   C154  S    
C20   O74   A    
C356  O125  S    
C361  H51   S    
C376  H91   S    
C172  C438  S    
C449  O205  A    
C386  H117  S    
C94   C412  A    
C416  H189  S    
C410  H177  S    
C351  H27   S    
C340  H285  S    
C96   C312  A    
C23   O23   A    
C31   O36   A    
C30   O42   A    
C425  O193  A    
C171  C237  A    
O162  Zn21  S    
C406  H164  S    
C440  O196  A    
C207  C258  A    
O17   Zn11  S    
C89   C280  S    
C409  H173  S    
C11   O65   A    
C84   C267  S    
C396  H140  S    
C80   C272  S    
C359  H47   S    
C91   C278  S    
C318  O105  S    
C12   O12   A    
O210  Zn13  S    
C436  O200  A    
C339  H284  S    
C465  O220  A    
C204  C254  A    
C163  C216  A    
C338  H281  S    
C254  H222  S    
C479  O239  A    
C125  C284  T    
C352  C353  S    
C22   O22   A    
C62   C157  A    
O23   Zn14  S    
C186  C430  S    
C206  C474  S    
C418  O155  S    
C179  O133  S    
C378  O136  S    
C374  O133  S    
C2    C52   A    
C37   O45   A    
O99   Zn41  S    
C208  C466  S    
C5    C130  S    
C100  C335  A    
C187  C211  A    
C123  C479  S    
C388  H122  S    
C156  C316  T    
C225  H24   S    
C173  C227  A    
C381  C382  S    
C238  H157  S    
C75   C303  S    
C387  C388  S    
C48   O104  A    
C360  H50   S    
C394  H134  S    
C80   C390  A    
C256  H225  S    
C422  O158  S    
C331  H266  S    
O44   Zn30  S    
C379  O153  S    
C333  C336  S    
C154  C314  T    
C377  H94   S    
C252  H220  S    
C23   C110  S    
C108  C269  T    
C392  H130  S    
C440  O46   A    
O220  Zn33  S    
C203  C264  A    
O36   Zn26  S    
C461  O177  A    
C399  H149  S    
C187  C244  A    
C84   C223  A    
C208  C264  A    
C18   C115  S    
C460  O171  A    
O197  Zn45  S    
C71   C268  A    
C25   O70   A    
C131  C291  T    
C24   C56   A    
C66   C179  A    
C279  O143  S    
C38   O48   A    
O200  Zn48  S    
C185  C216  A    
C352  O122  S    
O228  Zn38  S    
C244  H213  S    
C141  C300  T    
C395  H138  S    
C214  H212  S    
C348  O120  S    
C408  H171  S    
C328  H258  S    
C405  C406  S    
C416  C417  S    
O94   Zn37  S    
C425  O1    A    
C327  H257  S    
C432  O208  A    
C54   C223  A    
C390  O154  S    
C9    O9    A    
C65   C299  S    
C343  H7    S    
C22   O72   A    
C348  C349  S    
C268  O142  S    
C381  H102  S    
C73   C292  S    
C63   C315  S    
C53   C311  S    
C71   C190  A    
C224  O138  S    
C350  C351  S    
O88   Zn39  S    
O96   Zn42  S    
O71   Zn16  S    
C422  H206  S    
C264  H232  S    
C394  C395  S    
C325  H250  S    
C63   C113  A    
C420  H200  S    
C419  H198  S    
C355  H37   S    
C330  H264  S    
C358  H42   S    
O239  Zn34  S    
C347  H15   S    
C359  C360  S    
C370  H74   S    
C188  C243  A    
C35   C63   A    
C6    O53   A    
O78   Zn33  S    
O211  Zn11  S    
C409  C410  S    
C365  C366  S    
O168  Zn22  S    
C221  H2    S    
O216  Zn32  S    
C414  H185  S    
C162  C462  S    
O199  Zn2   S    
C200  C254  A    
C332  H269  S    
C18   O18   A    
C380  H97   S    
C177  C241  A    
O164  Zn23  S    
C318  H233  S    
C378  H96   S    
O218  Zn35  S    
C182  C428  S    
O58   Zn23  S    
C342  H4    S    
C60   C459  A    
C415  H187  S    
C255  H224  S    
C417  H192  S    
O57   Zn7   S    
C416  H191  S    
C340  H287  S    
C195  C219  A    
C370  C371  S    
C168  O132  S    
C159  C211  A    
C46   C89   A    
O13   Zn3   S    
C73   C279  A    
C330  H265  S    
C61   C317  S    
C65   C168  A    
C165  C238  A    
O29   Zn19  S    
O201  Zn4   S    
C359  H45   S    
C345  H12   S    
C371  H75   S    
C402  H154  S    
C363  O128  S    
C178  C230  A    
O38   Zn24  S    
C394  O143  S    
O177  Zn27  S    
C104  C283  S    
C251  H219  S    
C198  C263  A    
C204  C256  A    
C192  C250  A    
O166  Zn21  S    
C54   C68   A    
C61   C470  A    
C322  H244  S    
C388  H120  S    
C100  C286  S    
C429  O190  A    
C465  O212  A    
C189  C429  S    
C336  H274  S    
C446  O113  A    
O91   Zn37  S    
C418  H195  S    
C412  O156  S    
C399  H148  S    
C387  O140  S    
C31   O41   A    
C216  H234  S    
C60   C305  S    
C10   C131  S    
C348  H18   S    
C162  C226  A    
C28   O31   A    
C199  C476  S    
C347  H17   S    
C171  C452  S    
C30   C134  S    
O51   Zn27  S    
C427  O192  A    
C392  O142  S    
C47   C150  S    
O24   Zn4   S    
O31   Zn20  S    
C43   C148  S    
C407  H167  S    
C8    O8    A    
C188  C231  A    
C83   C269  S    
C93   C276  S    
C441  O57   A    
C338  H280  S    
C344  H10   S    
O192  Zn34  S    
O4    Zn46  S    
C96   C157  A    
C476  O235  A    
O48   Zn30  S    
C7    C126  S    
C459  O114  S    
C375  H87   S    
O170  Zn25  S    
C190  O134  S    
C121  C281  T    
C400  O147  S    
O83   Zn35  S    
C24   C92   A    
C26   O26   A    
C173  C445  S    
O172  Zn24  S    
C16   O16   A    
C193  C215  A    
C148  C307  T    
C32   O40   A    
C354  O123  S    
C324  H248  S    
C93   C312  A    
O208  Zn46  S    
C250  H218  S    
O113  Zn13  S    
C427  O112  A    
C476  O232  A    
C57   O121  S    
C410  H175  S    
O191  Zn1   S    
C435  O201  A    
C2    C94   A    
C453  O160  A    
O3    Zn12  S    
C139  C298  T    
O124  Zn14  S    
C319  H237  S    
C174  C237  A    
C247  H215  S    
C204  C477  S    
C3    C128  S    
C199  C253  A    
O215  Zn35  S    
C83   C379  A    
O217  Zn31  S    
C98   C135  A    
C66   C298  S    
O160  Zn19  S    
O95   Zn36  S    
C41   C158  S    
O87   Zn38  S    
C365  H63   S    
C382  H103  S    
C234  H124  S    
C13   O117  S    
C82   C426  A    
C58   C307  S    
C405  O149  S    
C9    C105  S    
C456  O168  A    
C446  O207  A    
C367  O130  S    
C35   O119  S    
C42   O82   A    
C468  O215  A    
C81   C437  A    
O234  Zn41  S    
C45   O93   A    
C453  O166  A    
C356  C358  S    
C44   C145  S    
C69   C296  S    
C366  H64   S    
C70   C295  S    
O237  Zn42  S    
O2    Zn2   S    
C34   O51   A    
C33   O39   A    
C153  C313  T    
C332  H271  S    
C341  H3    S    
C380  H99   S    
C217  H245  S    
C373  H81   S    
C353  H32   S    
C235  O139  S    
C178  C442  S    
C405  H162  S    
O92   Zn39  S    
C68   O122  S    
C350  H25   S    
C103  C284  S    
C205  C253  A    
C61   C90   A    
C458  O173  A    
C176  C242  A    
C350  H23   S    
C180  C239  A    
C145  C305  T    
C1    C86   A    
C28   O28   A    
C86   C412  A    
C226  H35   S    
C196  C249  A    
C97   C289  S    
C477  O233  A    
C39   O78   A    
C85   C266  S    
O41   Zn24  S    
C475  O231  A    
C437  O110  S    
C17   O17   A    
C392  H129  S    
C14   O14   A    
C202  C255  A    
C218  H256  S    
C397  H142  S    
C463  O182  A    
C183  C218  A    
O12   Zn7   S    
C366  H65   S    
C170  C230  A    
C175  C450  S    
C321  H241  S    
C436  O13   A    
C474  O237  A    
O174  Zn26  S    
C404  H161  S    
C124  O128  S    
C421  H204  S    
C415  H188  S    
C472  O223  A    
C352  H30   S    
C417  H193  S    
C469  O228  A    
O98   Zn40  S    
C17   C106  S    
C78   C357  A    
C354  H34   S    
C389  H123  S    
O227  Zn39  S    
C369  H72   S    
C215  H223  S    
C3    O3    A    
C166  C219  A    
C130  C289  T    
O240  Zn1   S    
C191  C249  A    
O103  Zn41  S    
C71   C294  S    
C393  H132  S    
C65   C224  A    
C423  O158  S    
C395  H139  S    
C391  H127  S    
C79   C104  A    
C320  H239  S    
C259  H227  S    
C50   O98   A    
O74   Zn13  S    
C257  O141  S    
C319  H236  S    
C430  O189  A    
C355  H39   S    
O73   Zn14  S    
C401  O155  S    
C454  O161  A    
C198  C252  A    
O45   Zn27  S    
O69   Zn48  S    
C114  C273  T    
C354  C355  S    
C384  H108  S    
C374  H85   S    
C382  H104  S    
C323  O148  S    
C262  H230  S    
C68   C87   A    
C11   O11   A    
C185  C444  S    
C261  H229  S    
C362  H55   S    
O207  Zn10  S    
C258  H226  S    
O37   Zn22  S    
C25   O25   A    
C326  H252  S    
C181  C243  A    
C99   C124  A    
C189  C248  A    
C34   O43   A    
C176  C435  S    
C202  C475  S    
C369  H71   S    
C175  C242  A    
C419  H199  S    
C161  C214  A    
C9    O67   A    
C129  C288  T    
C101  C102  A    
C180  C443  S    
C326  H254  S    
C3    O56   A    
C353  H33   S    
C227  H46   S    
C403  O148  S    
O76   Zn10  S    
C326  H253  S    
C178  C240  A    
C101  O126  S    
O25   Zn15  S    
C67   C190  A    
C479  O59   A    
C167  C232  A    
C325  H251  S    
O224  Zn39  S    
O61   Zn8   S    
C344  H9    S    
O195  Zn5   S    
C147  C306  T    
O60   Zn1   S    
C29   O30   A    
O62   Zn7   S    
C134  C294  T    
C57   C64   A    
C301  O145  S    
C111  C272  T    
O85   Zn32  S    
O86   Zn31  S    
C418  C419  S    
O97   Zn43  S    
C4    O55   A    
C27   O27   A    
C193  C441  S    
C458  O170  A    
C451  O203  A    
O66   Zn3   S    
C50   C153  S    
C249  H217  S    
C48   C147  S    
O163  Zn19  S    
C69   C290  A    
C99   C379  A    
C97   C146  A    
O178  Zn28  S    
C424  H208  S    
C163  C457  S    
O238  Zn23  S    
C89   C390  A    
C48   O96   A    
C16   C107  S    
C339  H283  S    
C431  O188  A    
C47   O91   A    
C2    O116  S    
C338  H282  S    
O70   Zn17  S    
O157  Zn17  S    
C191  C436  S    
C373  H83   S    
C387  H119  S    
C328  H260  S    
C470  O115  S    
C40   C156  S    
C37   C140  S    
C418  H196  S    
C329  H261  S    
C49   O103  A    
C445  O101  A    
C363  C364  S    
C399  H150  S    
C74   C304  S    
C197  C434  S    
C345  C347  S    
C26   C141  S    
O173  Zn22  S    
C72   C293  S    
O34   Zn25  S    
C24   O118  S    
C201  O136  S    
C75   C257  A    
C28   C144  S    
O1    Zn1   S    
C85   C112  A    
C19   O75   A    
C366  H66   S    
C142  C302  T    
C170  C227  A    
C67   C297  S    
C192  C431  S    
C116  C478  S    
C391  H128  S    
O79   Zn9   S    
C398  O145  S    
C36   C138  S    
O226  Zn36  S    
O52   Zn47  S    
O75   Zn11  S    
C345  H14   S    
C442  O68   A    
C90   O125  S    
C140  C299  T    
O179  Zn29  S    
O183  Zn30  S    
C377  H93   S    
C450  O204  A    
O6    Zn44  S    
C239  H168  S    
C106  C266  T    
C321  H243  S    
C384  H109  S    
C100  C113  A    
C46   O120  S    
C398  H147  S    
C219  H267  S    
C339  O116  S    
C461  O184  A    
C396  C397  S    
O46   Zn6   S    
C343  O118  S    
C211  H1    S    
C457  O174  A    
O223  Zn38  S    
C468  O216  A    
C19   C114  S    
C44   O88   A    
C74   C268  A    
C49   O97   A    
C407  H169  S    
O80   Zn35  S    
O68   Zn8   S    
C181  C214  A    
C74   C212  A    
C195  C250  A    
C15   O15   A    
C342  H6    S    
O22   Zn17  S    
C395  H137  S    
C116  C275  T    
C409  O151  S    
C54   C310  S    
C474  O229  A    
C109  C270  T    
C177  C447  S    
C202  C260  A    
C452  O159  A    
C232  H101  S    
C337  H279  S    
C105  C265  T    
C200  C262  A    
C339  C340  S    
C15   C129  S    
C473  O225  A    
C372  H78   S    
C402  H155  S    
C85   C368  A    
C415  H186  S    
C354  H36   S    
C450  O146  A    
C417  H194  S    
C67   C212  A    
C367  C369  S    
C362  H53   S    
O222  Zn37  S    
C209  C261  A    
C122  C282  T    
C210  C256  A    
C386  H115  S    
C364  H59   S    
O186  Zn44  S    
C349  H22   S    
C32   C139  S    
C58   C437  A    
C365  H62   S    
O161  Zn20  S    
C203  C471  S    
O233  Zn43  S    
C184  C432  S    
C7    O52   A    
C462  O183  A    
O28   Zn18  S    
C358  H43   S    
C365  O129  S    
O55   Zn44  S    
C12   O64   A    
C184  C247  A    
C246  O140  S    
C135  O129  S    
O77   Zn9   S    
O167  Zn20  S    
C81   C346  A    
C378  C380  S    
C424  H209  S    
C466  O213  A    
C21   O73   A    
C94   C275  S    
C197  C213  A    
C432  O187  A    
C332  H270  S    
C385  C386  S    
C380  H98   S    
C344  H11   S    
C220  H278  S    
C103  C323  A    
C29   O29   A    
C10   O10   A    
C381  H100  S    
O146  Zn16  S    
C385  H114  S    
C361  H52   S    
O219  Zn47  S    
C385  O139  S    
O231  Zn41  S    
C137  C296  T    
O19   Zn9   S    
O209  Zn9   S    
C411  H178  S    
C128  C287  T    
C392  C393  S    
C349  H20   S    
C182  C244  A    
C351  H28   S    
C118  C277  T    
C43   O95   A    
O187  Zn44  S    
C40   O80   A    
C320  O106  S    
C166  C461  S    
C99   C287  S    
C471  O227  A    
C207  C263  A    
C372  C373  S    
C409  H174  S    
C175  C225  A    
C72   C235  A    
C187  C451  S    
C45   C152  S    
C194  C226  A    
C160  C463  S    
C456  O176  A    
C42   C155  S    
C55   C309  S    
C327  C328  S    
C451  O157  A    
C122  C480  S    
C376  H89   S    
C169  C453  S    
C207  C467  S    
C248  H216  S    
C115  C274  T    
C31   C132  S    
C449  O135  A    
O35   Zn5   S    
C223  O107  S    
C312  O147  S    
C337  H277  S    
C188  C425  S    
O159  Zn18  S    
C407  O150  S    
C478  O238  A    
C447  O124  A    
C36   O50   A    
C376  O134  S    
C82   C423  A    
O232  Zn42  S    
C325  C326  S    
C385  H111  S    
C1    C52   A    
C463  O179  A    
C90   C103  A    
C87   C282  S    
C209  C259  A    
C30   O34   A    
C457  O169  A    
O8    Zn3   S    
C5    O54   A    
C160  C213  A    
O26   Zn20  S    
C78   C459  A    
C51   C149  S    
C166  C228  A    
C388  H121  S    
C164  C464  S    
C165  C456  S    
C13   C93   A    
C389  C391  S    
C391  H126  S    
O225  Zn37  S    
C194  C251  A    
C371  H76   S    
C445  O209  A    
C86   C265  S    
O5    Zn47  S    
C413  H182  S    
C41   O84   A    
C79   O123  S    
C360  H49   S    
C20   C119  S    
O180  Zn30  S    
C340  H286  S    
C88   C301  A    
C411  H180  S    
O21   Zn16  S    
C336  H275  S    
O47   Zn28  S    
C322  H246  S    
C343  C344  S    
C69   C201  A    
C444  O90   A    
C367  H69   S    
C46   C59   A    
C11   C109  S    
C398  H145  S    
C164  C217  A    
C329  C330  S    
C414  O153  S    
C403  H158  S    
C403  C404  S    
C96   C291  S    
O81   Zn31  S    
C322  O107  S    
C331  C332  S    
C210  C465  S    
O206  Zn16  S    
C88   C281  S    
C8    O69   A    
C119  C278  T    
C360  H48   S    
O53   Zn46  S    
O39   Zn26  S    
C367  H67   S    
C329  O110  S    
C12   C127  S    
C155  C315  T    
C32   O37   A    
O90   Zn10  S    
C290  O144  S    
C38   O47   A    
O212  Zn31  S    
C205  C261  A    
O221  Zn36  S    
O7    Zn45  S    
O235  Zn40  S    
C480  O58   A    
C334  O108  S    
C53   C79   A    
C478  O60   A    
C50   O102  A    
C51   O99   A    
C59   C306  S    
C177  C229  A    
C110  C271  T    
C372  H80   S    
C402  H153  S    
C343  H8    S    
O181  Zn28  S    
C452  O167  A    
C327  O109  S    
C454  O165  A    
C81   C271  S    
O213  Zn32  S    
O171  Zn26  S    
O82   Zn32  S    
C183  C245  A    
C92   C277  S    
C260  H228  S    
C359  O126  S    
O185  Zn45  S    
C430  O186  A    
C167  C221  A    
C341  H288  S    
C18   O76   A    
C364  H61   S    
C77   C224  A    
C410  H176  S    
C408  H170  S    
C27   O32   A    
C374  C375  S    
C469  O221  A    
C426  O109  S    
C149  C308  T    
C176  C234  A    
C42   O83   A    
O182  Zn27  S    
C355  H38   S    
C171  C229  A    
C322  C324  S    
C347  H16   S    
C336  H276  S    
C370  H73   S    
C407  C408  S    
C132  C292  T    
C75   C235  A    
C113  O127  S    
C455  O162  A    
C133  C293  T    
C83   C334  A    
C87   C401  A    
O198  Zn7   S    
C222  H13   S    
C414  H184  S    
C33   O38   A    
C143  C303  T    
C60   C101  A    
C353  H31   S    
C164  C220  A    
C70   C201  A    
C193  C251  A    
C64   C135  A    
C378  H95   S    
C161  C231  A    
O84   Zn33  S    
O196  Zn8   S    
C152  C311  T    
C5    O5    A    
C127  C286  T    
C4    C118  S    
C39   O86   A    
C231  H90   S    
C195  C439  S    
O54   Zn45  S    
C117  C276  T    
C363  H56   S    
C464  O180  A    
C404  H160  S    
C6    C120  S    
C196  C220  A    
O67   Zn2   S    
C98   C288  S    
C80   C448  A    
O203  Zn15  S    
C162  C215  A    
O18   Zn13  S    
C14   C111  S    
O65   Zn4   S    
C243  H211  S    
C146  O130  S    
C439  O198  A    
C44   O94   A    
C169  C234  A    
C361  O127  S    
C383  H107  S    
C21   C108  S    
C356  H40   S    
C420  H202  S    
C180  C221  A    
C327  H255  S    
C6    O6    A    
C56   C308  S    
O15   Zn5   S    
C95   C470  A    
O188  Zn47  S    
C330  H263  S    
C95   C323  A    
C406  H165  S    
C393  H131  S    
C34   C133  S    
C381  O137  S    
C230  H79   S    
C199  C259  A    
C20   O20   A    
C357  O151  S    
O169  Zn24  S    
C472  O226  A    
C45   O89   A    
C1    O105  S    
C387  H118  S    
C447  O206  A    
C228  H57   S    
C421  H203  S    
C91   C335  A    
C350  O121  S    
O50   Zn28  S    
O176  Zn25  S    
C318  C319  S    
C325  O108  S    
C136  C295  T    
C21   O21   A    
C241  H190  S    
O89   Zn36  S    
C480  O240  A    
O20   Zn10  S    
C372  O132  S    
C337  O115  S    
O190  Zn12  S    
C422  H207  S    
C371  H77   S    
C138  C297  T    
C341  O117  S    
C422  C424  S    
C320  H240  S    
C420  O156  S    
O93   Zn38  S    
C157  O131  S    
C349  H21   S    
C165  C218  A    
C151  C310  T    
C77   C300  S    
C333  H273  S    
C185  C247  A    
C13   C62   A    
C53   C112  A    
C62   C316  S    
C396  H141  S    
C383  O138  S    
C8    C125  S    
C70   C246  A    
C150  C309  T    
C375  H88   S    
C434  O202  A    
C382  H105  S    
C107  C267  T    
C383  H106  S    
C403  H156  S    
C189  C222  A    
C363  H58   S    
C413  H183  S    
O72   Zn15  S    
C174  C440  S    
C333  O114  S    
C471  O222  A    
C209  C468  S    
C233  H113  S    
C376  C377  S    
C404  H159  S    
O204  Zn14  S    
C400  H151  S    
C369  H70   S    
O11   Zn2   S    
C324  H247  S    
C245  H214  S    
C98   C301  A    
C47   O92   A    
C419  H197  S    
C76   C290  A    
C475  O236  A    
C442  O194  A    
O32   Zn19  S    
C76   C246  A    
C438  O199  A    
C396  O144  S    
C443  O211  A    
C328  H259  S    
C25   C117  S    
C333  H272  S    
C438  O24   A    
C346  O150  S    
C319  H238  S    
O16   Zn6   S    
C460  O172  A    
C84   C401  A    
C361  C362  S    
C197  C248  A    
C389  O141  S    
C466  O218  A    
C57   C88   A    
C82   C270  S    
O135  Zn15  S    
C320  C321  S    
C77   C279  A    
O229  Zn40  S    
O175  Zn34  S    
C205  C469  S    
C123  C283  T    
C464  O181  A    
C408  H172  S    
O56   Zn34  S    
C16   O61   A    
C144  C304  T    
C59   C448  A    
C414  C415  S    
C406  H166  S    
C29   C142  S    
O100  Zn43  S    
C421  H205  S    
C170  C455  S    
C435  O2    A    
C169  C225  A    
C196  C433  S    
C10   O66   A    
C181  C446  S    
C184  C233  A    
C329  H262  S    
C444  O210  A    
C172  C239  A    
C23   O71   A    
C161  C458  S    
C192  C228  A    
C467  O214  A    
C373  H82   S    
C36   O44   A    
C4    O4    A    
O194  Zn6   S    
C126  C285  T    
O230  Zn48  S    
O59   Zn12  S    
C104  C368  A    
C203  C255  A    
C341  C342  S    
C398  C399  S    
C405  H163  S    
O43   Zn29  S    
C78   C273  S    
C15   O62   A    
C462  O178  A    
O9    Zn4   S    
C413  H181  S    
C186  C245  A    
C186  C238  A    
C17   O77   A    
C383  C384  S    
C213  H112  S    
O49   Zn29  S    
C400  C402  S    
C236  H135  S    
C35   C91   A    
