data_mof_unit_43139.cif
_audit_creation_date              2012-12-10T17:01:12-0500
_audit_creation_method            fapswitch 2.2
_symmetry_space_group_name_H-M    P1
_symmetry_Int_Tables_number       1
_space_group_crystal_system       monoclinic
_cell_length_a                    15.903754
_cell_length_b                    15.39335
_cell_length_c                    9.97954
_cell_angle_alpha                 90.0
_cell_angle_beta                  59.041866
_cell_angle_gamma                 90.0
_cell_volume                      2095.07430527

loop_
_atom_site_label
_atom_site_type_symbol
_atom_type_description
_atom_site_fract_x
_atom_site_fract_y
_atom_site_fract_z
_atom_type_partial_charge
C1    C     C_R   0.372241 0.118520 0.562202 0.737995
C2    C     C_R   0.628014 0.881714 0.437708 0.734166
C3    C     C_R   0.627758 0.118520 0.437798 0.737994
C4    C     C_R   0.371986 0.881714 0.562292 0.734167
C5    C     C_R   0.872241 0.618520 0.562202 0.737995
C6    C     C_R   0.128014 0.381714 0.437708 0.734166
C7    C     C_R   0.127758 0.618520 0.437798 0.737994
C8    C     C_R   0.871986 0.381714 0.562292 0.734167
C9    C     C_2   0.509763 0.015323 0.914563 0.554968
C10   C     C_2   0.490237 0.015323 0.085437 0.554969
C11   C     C_2   0.009763 0.515323 0.914563 0.554968
C12   C     C_2   0.990237 0.515323 0.085437 0.554968
C13   C     C_2   0.298959 0.814435 0.597822 0.420581
C14   C     C_2   0.700137 0.186407 0.402399 0.416502
C15   C     C_2   0.701040 0.814435 0.402178 0.420581
C16   C     C_2   0.299863 0.186407 0.597601 0.416503
C17   C     C_2   0.798960 0.314435 0.597822 0.420582
C18   C     C_2   0.200137 0.686407 0.402399 0.416502
C19   C     C_2   0.201040 0.314435 0.402178 0.420581
C20   C     C_2   0.799863 0.686406 0.597601 0.416502
C21   C     C_2   0.284750 0.784944 0.484829 -0.209074
C22   C     C_2   0.712972 0.217267 0.515986 -0.193367
C23   C     C_2   0.715250 0.784944 0.515171 -0.209074
C24   C     C_2   0.287027 0.217267 0.484014 -0.193367
C25   C     C_2   0.784750 0.284944 0.484829 -0.209074
C26   C     C_2   0.212972 0.717267 0.515986 -0.193367
C27   C     C_2   0.215250 0.284944 0.515171 -0.209074
C28   C     C_2   0.787027 0.717267 0.484014 -0.193367
Cu1   Cu    Cu3+1 0.522650 0.000000 0.349410 1.033094
Cu2   Cu    Cu3+1 0.477350 0.000000 0.650590 1.033093
Cu3   Cu    Cu3+1 0.022650 0.500000 0.349410 1.033094
Cu4   Cu    Cu3+1 0.977350 0.500000 0.650590 1.033094
H1    H     H_    0.669923 0.192108 0.634311 0.235044
H2    H     H_    0.326975 0.810920 0.366943 0.205826
H3    H     H_    0.330076 0.192108 0.365689 0.235043
H4    H     H_    0.673025 0.810920 0.633057 0.205826
H5    H     H_    0.169923 0.692108 0.634311 0.235044
H6    H     H_    0.826975 0.310920 0.366943 0.205826
H7    H     H_    0.830076 0.692108 0.365689 0.235043
H8    H     H_    0.173025 0.310920 0.633057 0.205826
N1    N     N_2   0.443290 0.000000 0.876860 -0.191480
N2    N     N_2   0.556710 0.000000 0.123140 -0.191480
N3    N     N_2   0.943290 0.500000 0.876860 -0.191480
N4    N     N_2   0.056710 0.500000 0.123140 -0.191480
O1    O     O_R   0.422430 0.089640 0.419570 -0.536531
O2    O     O_R   0.577570 0.910360 0.580430 -0.569636
O3    O     O_R   0.577570 0.089640 0.580430 -0.536530
O4    O     O_R   0.422430 0.910360 0.419570 -0.569634
O5    O     O_R   0.922430 0.589640 0.419570 -0.536531
O6    O     O_R   0.077570 0.410360 0.580430 -0.569635
O7    O     O_R   0.077570 0.589640 0.580430 -0.536530
O8    O     O_R   0.922430 0.410360 0.419570 -0.569634
O9    O     O_R   0.384170 0.089650 0.673910 -0.553144
O10   O     O_R   0.615830 0.910350 0.326090 -0.573790
O11   O     O_R   0.615830 0.089650 0.326090 -0.553144
O12   O     O_R   0.384170 0.910350 0.673910 -0.573790
O13   O     O_R   0.884170 0.589650 0.673910 -0.553144
O14   O     O_R   0.115830 0.410350 0.326090 -0.573790
O15   O     O_R   0.115830 0.589650 0.326090 -0.553144
O16   O     O_R   0.884170 0.410350 0.673910 -0.573790
C29   C     C_3   0.658899 0.994382 0.991352 -0.225280
C30   C     C_3   0.737139 0.964396 0.027079 -0.284800
C31   C     C_3   0.839669 0.972503 0.882335 -0.804795
H9    H     H_    0.845407 0.933028 0.784726 0.270339
H10   H     H_    0.856322 0.041458 0.844914 0.270859
H11   H     H_    0.894990 0.948620 0.909882 0.265347
H12   H     H_    0.736528 0.004191 0.119526 0.264950
H13   H     H_    0.726107 0.894502 0.058859 0.283324
H14   H     H_    0.663293 0.945263 0.906094 0.209110
H15   H     H_    0.681418 0.059614 0.935727 0.241545
C32   C     C_3   0.341101 0.994381 0.008648 -0.225280
C33   C     C_3   0.262861 0.964396 0.972920 -0.284800
C34   C     C_3   0.160331 0.972502 0.117665 -0.804795
H16   H     H_    0.154593 0.933026 0.215273 0.270339
H17   H     H_    0.143678 0.041457 0.155088 0.270859
H18   H     H_    0.105010 0.948620 0.090118 0.265346
H19   H     H_    0.263472 0.004191 0.880475 0.264950
H20   H     H_    0.273893 0.894502 0.941140 0.283325
H21   H     H_    0.336707 0.945261 0.093905 0.209110
H22   H     H_    0.318582 0.059612 0.064275 0.241545
C35   C     C_3   0.158899 0.494382 0.991352 -0.225280
C36   C     C_3   0.237139 0.464396 0.027079 -0.284801
C37   C     C_3   0.339669 0.472503 0.882335 -0.804795
H23   H     H_    0.345407 0.433028 0.784726 0.270339
H24   H     H_    0.356323 0.541458 0.844913 0.270859
H25   H     H_    0.394990 0.448619 0.909882 0.265347
H26   H     H_    0.236528 0.504191 0.119525 0.264950
H27   H     H_    0.226107 0.394502 0.058859 0.283324
H28   H     H_    0.163293 0.445263 0.906094 0.209110
H29   H     H_    0.181417 0.559614 0.935727 0.241545
C38   C     C_3   0.841101 0.494382 0.008647 -0.225279
C39   C     C_3   0.762861 0.464396 0.972920 -0.284800
C40   C     C_3   0.660331 0.472503 0.117664 -0.804796
H30   H     H_    0.654593 0.433028 0.215274 0.270339
H31   H     H_    0.643678 0.541458 0.155086 0.270859
H32   H     H_    0.605010 0.448620 0.090118 0.265347
H33   H     H_    0.763472 0.504191 0.880474 0.264951
H34   H     H_    0.773892 0.394502 0.941141 0.283324
H35   H     H_    0.836707 0.445262 0.093905 0.209110
H36   H     H_    0.818582 0.559613 0.064274 0.241545
F1    F     F_    0.753563 0.217442 0.253690 -0.651823
F2    F     F_    0.246452 0.782403 0.745916 -0.656861
F3    F     F_    0.246436 0.217442 0.746310 -0.651823
F4    F     F_    0.753548 0.782403 0.254083 -0.656861
F5    F     F_    0.253563 0.717442 0.253690 -0.651824
F6    F     F_    0.746452 0.282403 0.745916 -0.656861
F7    F     F_    0.746436 0.717442 0.746310 -0.651823
F8    F     F_    0.253548 0.282403 0.254083 -0.656861
F9    F     F_    0.398701 0.032598 0.206132 -0.693070
F10   F     F_    0.601299 0.032600 0.793869 -0.693070
F11   F     F_    0.898701 0.532598 0.206132 -0.693070
F12   F     F_    0.101299 0.532600 0.793869 -0.693070

loop_
_geom_bond_atom_site_label_1
_geom_bond_atom_site_label_2
_ccdc_geom_bond_type
C29   H15   S    
C21   C26   S    
C31   H10   S    
C40   H30   S    
Cu1   N2    S    
C10   N2    D    
C34   H16   S    
C6    O14   A    
C18   C26   D    
C24   C27   S    
Cu3   O8    S    
C32   H21   S    
C35   C36   S    
C39   H34   S    
C5    C20   S    
C2    O2    A    
C6    C19   S    
C30   C31   S    
C30   H12   S    
Cu3   O14   S    
Cu1   O10   S    
C36   H26   S    
C10   F9    S    
Cu3   O15   S    
C4    C13   S    
C1    O9    A    
C33   H20   S    
C33   H19   S    
C3    O11   A    
C37   H23   S    
C22   C25   S    
Cu2   N1    S    
C11   N3    D    
C38   H36   S    
C19   C27   D    
C9    C10   S    
C8    O8    A    
N1    C32   S    
C20   F7    S    
C35   H28   S    
C19   F8    S    
C15   C23   D    
C31   H11   S    
C16   C24   D    
C4    O12   A    
C34   H17   S    
C5    O5    A    
Cu4   O13   S    
Cu3   O5    S    
C7    O15   A    
C32   H22   S    
C39   H33   S    
Cu2   O9    S    
C24   H3    S    
Cu3   N4    S    
Cu1   O4    S    
Cu2   O3    S    
N4    C35   S    
C2    O10   A    
C38   C39   S    
C14   F1    S    
C21   H2    S    
C20   C28   D    
C28   H7    S    
Cu2   O12   S    
N3    C38   S    
Cu1   O1    S    
Cu4   O7    S    
Cu1   Cu2   S    
C25   H6    S    
C16   F3    S    
Cu3   Cu4   S    
C27   H8    S    
C7    C18   S    
C13   C21   D    
C1    C16   S    
C23   C28   S    
C6    O6    A    
C2    C15   S    
N2    C29   S    
Cu4   O6    S    
C3    C14   S    
C35   H29   S    
C37   H24   S    
C36   C37   S    
C40   H32   S    
C15   F4    S    
C34   H18   S    
Cu4   O16   S    
C4    O4    A    
C29   H14   S    
C9    F10   S    
C22   H1    S    
C11   F12   S    
Cu2   O2    S    
C33   C34   S    
C11   C12   S    
C26   H5    S    
C5    O13   A    
Cu1   O11   S    
C9    N1    D    
C8    C17   S    
C30   H13   S    
C17   C25   D    
C14   C22   D    
C18   F5    S    
C7    O7    A    
C32   C33   S    
C12   N4    D    
C17   F6    S    
C8    O16   A    
C1    O1    A    
C36   H27   S    
C3    O3    A    
C39   C40   S    
Cu4   N3    S    
C29   C30   S    
C31   H9    S    
C37   H25   S    
C40   H31   S    
C23   H4    S    
C38   H35   S    
C13   F2    S    
C12   F11   S    
