data_mof_unit_62373.cif
_audit_creation_date              2012-12-11T15:00:51-0500
_audit_creation_method            fapswitch 2.2
_symmetry_space_group_name_H-M    P1
_symmetry_Int_Tables_number       1
_space_group_crystal_system       triclinic
_cell_length_a                    13.275526
_cell_length_b                    13.29274
_cell_length_c                    26.803649
_cell_angle_alpha                 96.771057
_cell_angle_beta                  97.072514
_cell_angle_gamma                 61.36713
_cell_volume                      4110.53121765

loop_
_atom_site_label
_atom_site_type_symbol
_atom_type_description
_atom_site_fract_x
_atom_site_fract_y
_atom_site_fract_z
_atom_type_partial_charge
C1    C     C_R   0.379878 0.721198 0.434567 0.544014
C2    C     C_3   0.738414 0.298144 0.205379 -0.014915
C3    C     C_3   0.840837 0.317798 0.196559 0.057527
C4    C     C_R   0.395007 0.373596 0.417464 0.539652
C5    C     C_3   0.815752 0.439800 0.219049 -0.245220
C6    C     C_3   0.798941 0.452238 0.275954 -0.220663
C7    C     C_1   0.860063 0.307013 0.143177 -0.026356
C8    C     C_1   0.795606 0.351583 0.346871 -0.061969
C9    C     C_1   0.769378 0.368976 0.389386 -0.023512
C10   C     C_3   0.446443 0.692860 0.263540 -0.241388
C11   C     C_3   0.369658 0.905296 0.282886 -0.193441
C12   C     C_1   0.335068 0.346316 0.267192 0.008374
C13   C     C_3   0.375026 0.914052 0.226203 -0.015175
C14   C     C_1   0.311148 0.878399 0.098148 0.018135
C15   C     C_3   0.350733 0.801699 0.289968 0.053323
C16   C     C_R   0.723274 0.400176 0.437105 0.541931
C17   C     C_3   0.435409 0.704521 0.205857 -0.253227
C18   C     C_3   0.342497 0.827296 0.193395 0.058477
C19   C     C_3   0.224888 0.845348 0.207606 -0.184881
C20   C     C_3   0.232025 0.819461 0.263450 -0.069305
C21   C     C_1   0.332781 0.846042 0.139926 -0.032522
C22   C     C_1   0.358959 0.784678 0.343610 -0.077696
C23   C     C_1   0.347541 0.351724 0.320147 -0.044974
C24   C     C_1   0.366149 0.763119 0.386488 -0.021122
C25   C     C_3   0.421824 0.366197 0.730714 -0.220659
C26   C     C_3   0.347092 0.222910 0.705507 -0.196815
C27   C     C_3   0.348672 0.211888 0.762702 -0.058783
C28   C     C_R   0.381629 0.724438 0.575504 0.542817
C29   C     C_1   0.295746 0.308047 0.887482 -0.017538
C30   C     C_3   0.329954 0.343255 0.696819 0.050639
C31   C     C_3   0.408773 0.364689 0.787258 -0.237428
C32   C     C_3   0.313375 0.331944 0.792567 0.082391
C33   C     C_3   0.199352 0.427767 0.768856 -0.205768
C34   C     C_1   0.364475 0.358591 0.365203 -0.011188
C35   C     C_3   0.209094 0.433821 0.712388 -0.216888
C36   C     C_1   0.304432 0.324707 0.845665 -0.067149
C37   C     C_1   0.342559 0.350205 0.644165 -0.071556
C38   C     C_1   0.361855 0.358997 0.602852 -0.013269
C39   C     C_1   0.889825 0.293757 0.864314 -0.011135
C40   C     C_R   0.395603 0.375865 0.557595 0.544469
C41   C     C_1   0.862771 0.305264 0.819959 -0.052418
C42   C     C_1   0.840321 0.319055 0.767702 -0.015684
C43   C     C_1   0.823346 0.332556 0.723201 -0.013944
C44   C     C_1   0.800311 0.351861 0.671418 -0.049616
C45   C     C_3   0.725439 0.308150 0.262797 -0.207346
C46   C     C_1   0.772471 0.372672 0.627808 -0.011310
C47   C     C_1   0.293088 0.893878 0.862831 -0.012324
C48   C     C_1   0.312772 0.866056 0.819235 -0.052709
C49   C     C_1   0.330471 0.842236 0.767416 -0.018903
C50   C     C_1   0.342723 0.824314 0.722886 -0.017244
C51   C     C_1   0.355441 0.800640 0.670664 -0.048821
C52   C     C_R   0.724267 0.403733 0.577655 0.542097
C53   C     C_1   0.366548 0.772565 0.626453 -0.010450
C54   C     C_R   0.941322 0.278185 0.055690 0.552409
C55   C     C_R   0.288417 0.271608 0.073004 0.554733
C56   C     C_3   0.938639 0.238517 0.282364 -0.076913
C57   C     C_R   0.271788 0.935291 0.052515 0.555104
C58   C     C_R   0.937114 0.278943 0.915549 0.540608
C59   C     C_R   0.281596 0.273974 0.933238 0.540864
C60   C     C_R   0.262519 0.941163 0.912921 0.537980
C61   C     C_1   0.307462 0.305661 0.124334 0.024921
C62   C     C_1   0.318259 0.325583 0.169010 -0.005419
C63   C     C_1   0.327327 0.339680 0.221909 0.024832
C64   C     C_3   0.126439 0.912316 0.290648 -0.307963
C65   C     C_3   0.014591 0.911513 0.269051 -0.448654
C66   C     C_3   0.042196 0.246566 0.313359 -0.288365
C67   C     C_3   0.952386 0.230008 0.224867 -0.198496
C68   C     C_3   0.060318 0.215183 0.368056 -0.444037
C69   C     C_3   0.289074 0.141478 0.773640 -0.283186
C70   C     C_3   0.157720 0.201322 0.766558 -0.417850
C71   C     C_1   0.889577 0.295262 0.101459 0.016943
C72   C     C_3   0.816358 0.337709 0.293700 0.066060
Cr1   Cr    Cr6+3 0.585490 0.589720 0.509170 1.030319
Cr2   Cr    Cr6+3 0.329280 0.580760 0.494920 1.028779
Cr3   Cr    Cr6+3 0.585250 0.329540 0.495950 1.031295
Cr4   Cr    Cr6+3 0.077160 0.074530 0.981700 1.047747
Cr5   Cr    Cr6+3 0.079310 0.333830 0.996170 1.036222
Cr6   Cr    Cr6+3 0.334250 0.081620 0.994710 1.053351
H1    H     H_    0.636925 0.376029 0.270798 0.107256
H2    H     H_    0.734850 0.226608 0.274826 0.151909
H3    H     H_    0.197942 0.787878 0.182701 0.109183
H4    H     H_    0.441410 0.614525 0.270528 0.116455
H5    H     H_    0.411639 0.640156 0.185359 0.122597
H6    H     H_    0.158343 0.934997 0.200681 0.158784
H7    H     H_    0.492367 0.302309 0.805550 0.117047
H8    H     H_    0.509726 0.299627 0.721246 0.125978
H9    H     H_    0.277507 0.208983 0.683627 0.126803
H10   H     H_    0.429795 0.155207 0.691077 0.106046
H11   H     H_    0.440724 0.156104 0.775205 0.117874
H12   H     H_    0.658120 0.365704 0.187140 0.131695
H13   H     H_    0.193405 0.521415 0.705676 0.125544
H14   H     H_    0.141654 0.418597 0.689081 0.117847
H15   H     H_    0.180957 0.512215 0.789059 0.116792
H16   H     H_    0.412911 0.451035 0.723579 0.129227
H17   H     H_    0.386949 0.450745 0.806552 0.125731
H18   H     H_    0.124228 0.415571 0.773139 0.123705
H19   H     H_    0.941676 0.157408 0.290958 0.139600
H20   H     H_    0.976628 0.140942 0.208935 0.149273
H21   H     H_    0.023424 0.247417 0.218169 0.154630
H22   H     H_    0.710631 0.521123 0.282892 0.109446
H23   H     H_    0.888236 0.456320 0.213622 0.130173
H24   H     H_    0.858847 0.480290 0.297828 0.122926
H25   H     H_    0.737039 0.505818 0.199200 0.110576
H26   H     H_    0.993685 0.935425 0.229387 0.180191
H27   H     H_    0.022066 0.825115 0.270804 0.157368
H28   H     H_    0.942569 0.974453 0.291497 0.151186
H29   H     H_    0.136951 0.897594 0.331296 0.161810
H30   H     H_    0.118455 0.998136 0.287605 0.156324
H31   H     H_    0.003719 0.289749 0.392379 0.162408
H32   H     H_    0.044895 0.141130 0.371059 0.146152
H33   H     H_    0.150485 0.191050 0.382582 0.142991
H34   H     H_    0.519906 0.686144 0.193462 0.113792
H35   H     H_    0.122216 0.184192 0.295544 0.166911
H36   H     H_    0.036004 0.332487 0.312272 0.161317
H37   H     H_    0.120477 0.263812 0.798957 0.155217
H38   H     H_    0.125758 0.244501 0.730693 0.150060
H39   H     H_    0.127386 0.136392 0.765667 0.150355
H40   H     H_    0.322374 0.061476 0.748466 0.148124
H41   H     H_    0.315369 0.113755 0.812783 0.157286
H42   H     H_    0.532176 0.681643 0.279588 0.117188
H43   H     H_    0.299872 0.985592 0.299240 0.142235
H44   H     H_    0.451679 0.894775 0.303705 0.115393
H45   H     H_    0.464874 0.891553 0.219681 0.147414
H46   H     H_    0.230037 0.736570 0.263589 0.140172
I1    I     I_    0.752391 0.136927 0.171164 -0.457468
I2    I     I_    0.274434 0.089312 0.206065 -0.518525
O1    O     O_R   0.700490 0.499650 0.456540 -0.508571
O2    O     O_R   0.362200 0.173970 0.055450 -0.482215
O3    O     O_R   0.326660 0.983110 0.039170 -0.482680
O4    O     O_R   0.479270 0.682700 0.457880 -0.493879
O5    O     O_R   0.165170 0.960730 0.925500 -0.507034
O6    O     O_R   0.978790 0.179600 0.932440 -0.495131
O7    O     O_R   0.960680 0.356080 0.937360 -0.506016
O8    O     O_R   0.182750 0.328100 0.950670 -0.496873
O9    O     O_R   0.356720 0.175530 0.946790 -0.508010
O10   O     O_R   0.321590 0.984560 0.938450 -0.498862
O11   O     O_3   0.163570 0.163330 0.990860 -0.256710
O12   O     O_R   0.339040 0.474950 0.540330 -0.494845
O13   O     O_R   0.304400 0.696100 0.445190 -0.508934
O14   O     O_R   0.337880 0.472540 0.439600 -0.496704
O15   O     O_R   0.493250 0.300300 0.435260 -0.504445
O16   O     O_R   0.681040 0.341130 0.451400 -0.494253
O17   O     O_R   0.701750 0.502250 0.565200 -0.505930
O18   O     O_R   0.480430 0.685110 0.558610 -0.493829
O19   O     O_R   0.305650 0.698700 0.553850 -0.505174
O20   O     O_R   0.494500 0.302900 0.543920 -0.506449
O21   O     O_R   0.682200 0.343540 0.552130 -0.493471
O22   O     O_3   0.500010 0.500010 0.500010 -0.252743
O23   O     O_R   0.170650 0.959160 0.034150 -0.502821
O24   O     O_R   0.983870 0.178140 0.033160 -0.481888
O25   O     O_R   0.966160 0.354510 0.046020 -0.508792
O26   O     O_R   0.187830 0.326650 0.051390 -0.498557

loop_
_geom_bond_atom_site_label_1
_geom_bond_atom_site_label_2
_ccdc_geom_bond_type
C25   C31   S    
C66   C68   S    
C5    H25   S    
C31   H7    S    
C66   H35   S    
C18   C21   S    
Cr4   O6    S    
C41   C42   S    
Cr2   O19   S    
C19   C20   S    
Cr6   O2    S    
Cr5   O25   S    
C55   O26   A    
C54   O24   A    
Cr4   O11   S    
C6    C72   S    
Cr2   O12   S    
C29   C36   T    
C26   C27   S    
C62   C63   S    
C13   C18   S    
C32   C36   S    
C14   C21   T    
C57   O3    A    
Cr6   O3    S    
Cr5   O11   S    
C3    C7    S    
C10   C15   S    
C7    C71   T    
C5    C6    S    
C13   H45   S    
Cr4   O5    S    
C31   H17   S    
C70   H39   S    
C46   C52   S    
C69   H40   S    
C60   O5    A    
C18   C19   S    
C2    H12   S    
Cr3   O15   S    
C67   H20   S    
C47   C60   S    
C11   C15   S    
C15   C22   S    
C54   C71   S    
C29   C59   S    
C58   O6    A    
C8    C9    T    
C56   C72   S    
C40   O12   A    
C28   O18   A    
Cr6   O9    S    
C60   O10   A    
C27   C69   S    
C67   H21   S    
C35   H14   S    
C25   H16   S    
Cr3   O20   S    
C45   C72   S    
C11   H43   S    
Cr5   O7    S    
C56   H19   S    
Cr5   O26   S    
C65   H27   S    
C44   C46   T    
C64   H30   S    
C4    C34   S    
C58   O7    A    
C15   C20   S    
C5    H23   S    
C8    C72   S    
C52   O17   A    
Cr1   O22   S    
C39   C41   T    
C1    O4    A    
C4    O15   A    
C12   C63   T    
C26   H9    S    
Cr3   O21   S    
Cr1   O1    S    
C39   C58   S    
Cr2   O14   S    
C10   H4    S    
C30   C37   S    
C57   O23   A    
C17   H5    S    
C68   H33   S    
C6    H22   S    
C20   C64   S    
C16   O16   A    
C43   C44   S    
C37   C38   T    
Cr3   O16   S    
C4    O14   A    
C47   C48   T    
C12   C23   S    
Cr4   O24   S    
C23   C34   T    
C17   C18   S    
C28   O19   A    
C45   H1    S    
C68   H32   S    
C13   I2    S    
C30   C35   S    
C48   C49   S    
C26   C30   S    
C52   O21   A    
Cr3   O22   S    
C22   C24   T    
C11   H44   S    
C42   C43   T    
C17   H34   S    
Cr6   O11   S    
C65   H28   S    
C64   H29   S    
C1    O13   A    
Cr1   O17   S    
Cr2   O22   S    
C25   C30   S    
C14   C57   S    
Cr1   O4    S    
C66   H36   S    
C27   C32   S    
C9    C16   S    
C31   C32   S    
C3    C67   S    
C3    C5    S    
C33   H15   S    
C28   C53   S    
C54   O25   A    
C70   H37   S    
C56   C67   S    
Cr2   O13   S    
C59   O8    A    
C40   O20   A    
C33   H18   S    
C70   H38   S    
C64   C65   S    
C2    C3    S    
C32   C33   S    
C38   C40   S    
C11   C13   S    
Cr4   O23   S    
C56   C66   S    
C55   C61   S    
C59   O9    A    
C25   H8    S    
C33   C35   S    
C69   H41   S    
C27   H11   S    
C45   H2    S    
C68   H31   S    
C6    H24   S    
C61   C62   T    
C16   O1    A    
C69   C70   S    
C20   H46   S    
C10   H42   S    
C2    C45   S    
C2    I1    S    
C55   O2    A    
C1    C24   S    
C26   H10   S    
C49   C50   T    
Cr5   O8    S    
C50   C51   S    
C10   C17   S    
C65   H26   S    
C51   C53   T    
C19   H3    S    
Cr6   O10   S    
C19   H6    S    
Cr1   O18   S    
C35   H13   S    
