data_mof_unit_7182.cif
_audit_creation_date              2012-12-10T17:50:50-0500
_audit_creation_method            fapswitch 2.2
_symmetry_space_group_name_H-M    P1
_symmetry_Int_Tables_number       1
_space_group_crystal_system       triclinic
_cell_length_a                    14.771065
_cell_length_b                    14.696723
_cell_length_c                    15.834026
_cell_angle_alpha                 76.084234
_cell_angle_beta                  102.177279
_cell_angle_gamma                 115.090051
_cell_volume                      2998.34332241

loop_
_atom_site_label
_atom_site_type_symbol
_atom_type_description
_atom_site_fract_x
_atom_site_fract_y
_atom_site_fract_z
_atom_type_partial_charge
C1    C     C_R   0.880477 0.312067 0.514299 0.784998
C2    C     C_R   0.119437 0.687668 0.486513 0.766837
C3    C     C_R   0.780741 0.025897 0.579064 -0.183816
C4    C     C_R   0.215851 0.967873 0.492323 -0.196001
C5    C     C_R   0.848465 0.127124 0.564805 -0.191295
C6    C     C_R   0.149418 0.867640 0.487890 -0.202269
C7    C     C_R   0.709136 0.177347 0.502766 -0.169041
C8    C     C_R   0.290473 0.823081 0.491996 -0.171679
C9    C     C_R   0.638209 0.077923 0.526530 0.093771
C10   C     C_R   0.359277 0.920393 0.507548 0.080578
C11   C     C_R   0.676394 0.000919 0.560439 0.091020
C12   C     C_R   0.320200 0.994740 0.501077 0.087306
C13   C     C_R   0.531650 0.052251 0.516888 -0.097081
C14   C     C_R   0.465244 0.946515 0.527325 -0.105735
C15   C     C_R   0.506888 0.871233 0.562096 0.432729
C16   C     C_R   0.488701 0.127002 0.501791 0.477734
C17   C     C_R   0.610858 0.899606 0.576455 -0.307025
C18   C     C_R   0.385025 0.095514 0.501920 -0.320984
C19   C     C_R   0.701714 0.649132 0.339795 0.222474
C20   C     C_R   0.285468 0.332787 0.649067 0.227678
C21   C     C_R   0.784911 0.620757 0.363907 0.436830
C22   C     C_R   0.204816 0.364991 0.627657 0.435730
C23   C     C_R   0.999895 0.500873 0.659586 0.809893
C24   C     C_R   0.000181 0.499829 0.340234 0.805841
C25   C     C_R   0.727828 0.533247 0.502403 0.507652
C26   C     C_R   0.283306 0.485846 0.507228 0.489309
C27   C     C_R   0.635562 0.547564 0.475321 -0.206738
C28   C     C_R   0.375642 0.471232 0.538036 -0.211877
C29   C     C_R   0.630586 0.617422 0.398266 -0.048340
C30   C     C_R   0.372743 0.389118 0.607372 -0.054709
C31   C     C_R   0.549028 0.496378 0.522039 0.089167
C32   C     C_R   0.467457 0.529252 0.498741 0.128849
C33   C     C_R   0.480982 0.618944 0.436503 -0.185587
C34   C     C_R   0.539384 0.410220 0.587599 -0.225825
C35   C     C_R   0.556355 0.656987 0.382333 -0.163415
C36   C     C_R   0.454887 0.360267 0.631380 -0.146884
C37   C     C_3   0.026812 0.434196 0.047303 0.126914
C38   C     C_3   0.968738 0.576731 0.949136 0.087492
C39   C     C_3   0.933356 0.411763 0.977455 -0.417059
C40   C     C_3   0.062007 0.598648 0.019681 -0.365904
C41   C     C_1   0.999383 0.503014 0.748454 -0.204549
C42   C     C_1   0.999845 0.500375 0.250518 -0.188217
C43   C     C_3   0.090816 0.525372 0.984794 0.517702
C44   C     C_3   0.904667 0.485600 0.011480 0.468150
C45   C     C_3   0.998165 0.504899 0.914684 0.012970
C46   C     C_3   0.997001 0.505328 0.081933 0.043312
C47   C     C_1   0.998666 0.504479 0.823411 -0.012374
C48   C     C_1   0.998096 0.502239 0.174304 0.021006
C49   C     C_R   0.812631 0.203589 0.526549 -0.088392
C50   C     C_R   0.186561 0.794990 0.486475 -0.076025
Cu1   Cu    Cu3+1 0.081740 0.475690 0.522610 0.989778
Cu2   Cu    Cu3+1 0.918260 0.524310 0.477390 0.996642
H1    H     H_    0.882580 0.335635 0.960680 0.157107
H2    H     H_    0.110103 0.674850 0.037531 0.152282
H3    H     H_    0.432000 0.658932 0.426442 0.201116
H4    H     H_    0.595247 0.377618 0.604437 0.221129
H5    H     H_    0.640384 0.840782 0.601353 0.152452
H6    H     H_    0.354154 0.151141 0.499593 0.136948
H7    H     H_    0.315967 0.768810 0.480737 0.214020
H8    H     H_    0.687131 0.235977 0.462463 0.200525
H9    H     H_    0.069431 0.847388 0.484940 0.144314
H10   H     H_    0.928350 0.145302 0.583123 0.172030
H11   H     H_    0.809881 0.967228 0.606762 0.138436
H12   H     H_    0.185738 0.024216 0.489950 0.130715
H13   H     H_    0.557537 0.719186 0.328832 0.177183
H14   H     H_    0.452857 0.295699 0.682517 0.187670
N1    N     N_R   0.795440 0.560790 0.443380 -0.270302
N2    N     N_R   0.204560 0.439210 0.556620 -0.264082
O1    O     O_R   0.977900 0.338120 0.529810 -0.545778
O2    O     O_R   0.022100 0.661880 0.470190 -0.594561
O3    O     O_R   0.839850 0.379180 0.491620 -0.563722
O4    O     O_R   0.160150 0.620820 0.508380 -0.550417
O5    O     O_R   0.069010 0.479460 0.640020 -0.568953
O6    O     O_R   0.930990 0.520540 0.359980 -0.516850
O7    O     O_R   0.930960 0.520530 0.601820 -0.523922
O8    O     O_R   0.069040 0.479470 0.398180 -0.556122
O9    O     O_3   0.268672 0.541964 0.425706 -0.584755
C51   C     C_3   0.262952 0.489281 0.359055 0.060734
H15   H     H_    0.188250 0.424956 0.352672 0.157569
H16   H     H_    0.321006 0.456353 0.372580 0.127445
C52   C     C_3   0.277636 0.563119 0.271658 -0.342236
H17   H     H_    0.210175 0.581569 0.247792 0.219801
H18   H     H_    0.343333 0.635501 0.280635 0.213942
C53   C     C_3   0.295984 0.518038 0.202786 -0.885359
H19   H     H_    0.367873 0.507030 0.222768 0.238605
H20   H     H_    0.301011 0.570835 0.139193 0.264028
H21   H     H_    0.233646 0.443491 0.194595 0.289188
O10   O     O_3   0.756235 0.502909 0.590119 -0.580216
C54   C     C_3   0.766815 0.575463 0.641194 0.053980
H22   H     H_    0.778873 0.542171 0.711331 0.143235
H23   H     H_    0.696688 0.588564 0.634172 0.146920
C55   C     C_3   0.857310 0.677915 0.622668 -0.313771
H24   H     H_    0.928338 0.669630 0.655294 0.224972
H25   H     H_    0.862742 0.702836 0.551300 0.203554
C56   C     C_3   0.848088 0.761995 0.656655 -0.958447
H26   H     H_    0.780453 0.775840 0.621453 0.251412
H27   H     H_    0.915625 0.833687 0.645086 0.256172
H28   H     H_    0.841954 0.740585 0.727964 0.264829
O11   O     O_3   0.118016 0.310210 0.667721 -0.580727
C57   C     C_3   0.136772 0.321023 0.756891 0.090676
H29   H     H_    0.167577 0.402854 0.763532 0.152863
H30   H     H_    0.190689 0.287575 0.795276 0.181001
C58   C     C_3   0.037672 0.264067 0.796567 -0.326275
H31   H     H_    0.981653 0.295911 0.760195 0.226498
H32   H     H_    0.007239 0.182309 0.790288 0.216797
C59   C     C_3   0.052463 0.272061 0.893121 -0.936343
H33   H     H_    0.103371 0.234691 0.931534 0.255528
H34   H     H_    0.978646 0.233727 0.919119 0.252038
H35   H     H_    0.085534 0.353252 0.901060 0.292650
O12   O     O_3   0.854190 0.650403 0.305756 -0.565983
C60   C     C_3   0.913761 0.756100 0.298930 0.110223
H36   H     H_    0.939364 0.780254 0.364423 0.117816
H37   H     H_    0.870712 0.800592 0.257427 0.177825
C61   C     C_3   0.006214 0.780658 0.255069 -0.319764
H38   H     H_    0.052305 0.739327 0.296519 0.217865
H39   H     H_    0.981413 0.754507 0.190574 0.224245
C62   C     C_3   0.071050 0.894799 0.240867 -0.946241
H40   H     H_    0.027643 0.937248 0.196380 0.255905
H41   H     H_    0.138343 0.909508 0.210625 0.259748
H42   H     H_    0.096626 0.923095 0.304276 0.267704
O13   O     O_3   0.689313 0.706394 0.258305 -0.619147
C63   C     C_3   0.629167 0.639006 0.199143 0.070453
H43   H     H_    0.556450 0.584984 0.224068 0.139626
H44   H     H_    0.670233 0.594944 0.188616 0.170319
C64   C     C_3   0.605578 0.700587 0.111268 -0.323963
H45   H     H_    0.567245 0.747234 0.121377 0.218472
H46   H     H_    0.677060 0.752836 0.083994 0.222850
C65   C     C_3   0.537585 0.631028 0.045713 -0.947886
H47   H     H_    0.574298 0.583580 0.034539 0.261038
H48   H     H_    0.523149 0.678007 0.982224 0.251831
H49   H     H_    0.464334 0.580352 0.070484 0.265255
O14   O     O_3   0.279925 0.247943 0.712505 -0.621279
C66   C     C_3   0.230777 0.159754 0.673145 0.059254
H50   H     H_    0.279556 0.158367 0.628992 0.139614
H51   H     H_    0.157175 0.156467 0.634732 0.150868
C67   C     C_3   0.210567 0.065772 0.745265 -0.317993
H52   H     H_    0.282401 0.069699 0.786977 0.224362
H53   H     H_    0.158370 0.064787 0.787153 0.220253
C68   C     C_3   0.164038 0.967385 0.707200 -0.933356
H54   H     H_    0.094837 0.963944 0.661476 0.250068
H55   H     H_    0.143857 0.900758 0.761073 0.271143
H56   H     H_    0.218982 0.962997 0.671785 0.267467
N3    N     N_3   0.060118 0.357193 0.103554 -0.593910
H57   H     H_    0.076419 0.320863 0.063214 0.238551
H58   H     H_    0.998997 0.302482 0.135053 0.215087
N4    N     N_3   0.937187 0.655345 0.893678 -0.590919
H59   H     H_    0.911217 0.683796 0.933779 0.235244
H60   H     H_    0.875633 0.620067 0.849625 0.205794
O15   O     O_3   0.808950 0.471330 0.028198 -0.603629
C69   C     C_3   0.734353 0.425290 0.961870 0.059643
H61   H     H_    0.713968 0.341526 0.976705 0.149195
H62   H     H_    0.759859 0.455296 0.895512 0.127548
C70   C     C_3   0.640951 0.446157 0.959886 -0.341024
H63   H     H_    0.611820 0.413784 0.024500 0.226269
H64   H     H_    0.661865 0.529902 0.947461 0.217443
C71   C     C_3   0.558193 0.399550 0.888136 -0.910329
H65   H     H_    0.584361 0.434194 0.822555 0.255621
H66   H     H_    0.490839 0.414176 0.889810 0.265791
H67   H     H_    0.536403 0.315825 0.898574 0.258377
O16   O     O_3   0.185681 0.535328 0.969163 -0.618515
C72   C     C_3   0.252433 0.638835 0.952782 0.040806
H68   H     H_    0.329143 0.640129 0.958661 0.171471
H69   H     H_    0.256383 0.681769 0.003358 0.128849
C73   C     C_3   0.227651 0.691817 0.860047 -0.360160
H70   H     H_    0.220722 0.645408 0.811214 0.229631
H71   H     H_    0.154921 0.699424 0.854555 0.233942
C74   C     C_3   0.309133 0.798167 0.838647 -0.942344
H72   H     H_    0.312642 0.847663 0.883377 0.263177
H73   H     H_    0.291349 0.832645 0.770077 0.263527
H74   H     H_    0.383813 0.794201 0.845405 0.247977
O17   O     O_3   0.447303 0.768609 0.582818 -0.629176
C75   C     C_3   0.447268 0.739678 0.674643 0.048034
H75   H     H_    0.402573 0.772104 0.697134 0.155131
H76   H     H_    0.524988 0.765806 0.710429 0.139988
C76   C     C_3   0.398919 0.623374 0.696484 -0.316994
H77   H     H_    0.318003 0.596224 0.669122 0.225353
H78   H     H_    0.437174 0.591067 0.665962 0.233714
C77   C     C_3   0.408278 0.584911 0.795037 -0.951175
H79   H     H_    0.488752 0.605097 0.822381 0.262192
H80   H     H_    0.368188 0.500670 0.807979 0.256555
H81   H     H_    0.374491 0.618774 0.828389 0.266943
O18   O     O_3   0.548762 0.229928 0.498400 -0.632077
C78   C     C_3   0.520502 0.291204 0.422047 0.035629
H82   H     H_    0.580176 0.368971 0.420020 0.178816
H83   H     H_    0.449895 0.298223 0.426956 0.143223
C79   C     C_3   0.513556 0.257406 0.335024 -0.392209
H84   H     H_    0.582384 0.245630 0.332871 0.218289
H85   H     H_    0.447323 0.184536 0.329050 0.215458
C80   C     C_3   0.502421 0.337550 0.256622 -0.903867
H86   H     H_    0.434446 0.351708 0.257283 0.251218
H87   H     H_    0.494803 0.310439 0.194798 0.260238
H88   H     H_    0.570023 0.409986 0.258433 0.243946

loop_
_geom_bond_atom_site_label_1
_geom_bond_atom_site_label_2
_ccdc_geom_bond_type
C33   H3    S    
O17   C75   S    
C34   H4    S    
C2    O2    A    
C27   C29   A    
C24   C42   S    
C56   H26   S    
C25   N1    A    
C53   H21   S    
Cu2   O7    S    
C65   H47   S    
C52   C53   S    
C51   H16   S    
C52   H17   S    
C56   H28   S    
C73   H71   S    
C74   H73   S    
C20   C30   A    
O9    C51   S    
C40   C46   S    
C39   H1    S    
C1    O3    A    
C6    H9    S    
C73   H70   S    
C19   C21   A    
C20   O14   S    
Cu2   O6    S    
C62   H41   S    
C8    H7    S    
C68   H56   S    
C16   O18   S    
C59   H33   S    
C35   H13   S    
N3    H57   S    
N3    H58   S    
C31   C32   A    
C80   H87   S    
C9    C13   A    
O18   C78   S    
C38   N4    S    
C38   C45   S    
C2    C50   S    
C52   H18   S    
O12   C60   S    
C18   H6    S    
C40   C43   S    
C11   C17   A    
C60   H36   S    
C75   H76   S    
O14   C66   S    
C69   C70   S    
C1    C49   S    
C66   C67   S    
C21   O12   S    
C4    C12   A    
C37   N3    S    
C37   C46   S    
C75   C76   S    
C39   C45   S    
C13   C14   A    
C21   N1    A    
C5    C49   A    
C23   O5    A    
C67   C68   S    
C2    O4    A    
C57   H30   S    
C72   H69   S    
C44   C46   S    
C77   H79   S    
C74   H74   S    
N4    H60   S    
C63   H43   S    
C45   C47   S    
C46   C48   S    
C26   O9    S    
C27   C31   A    
Cu1   Cu2   S    
C61   C62   S    
C70   H64   S    
C28   C32   A    
C3    C11   A    
Cu1   O8    S    
C7    C49   A    
C76   H78   S    
C43   O16   S    
C10   C14   A    
C62   H42   S    
C74   H72   S    
C76   C77   S    
C24   O8    A    
C25   O10   S    
C1    O1    A    
C70   C71   S    
C71   H65   S    
C58   C59   S    
C37   C43   S    
C80   H88   S    
C78   H82   S    
C38   C44   S    
C64   C65   S    
C78   H83   S    
C43   C45   S    
C36   H14   S    
C61   H39   S    
C76   H77   S    
C55   H25   S    
C41   C47   T    
C31   C34   A    
C15   O17   S    
C60   H37   S    
C16   C18   A    
C42   C48   T    
C53   H19   S    
C54   C55   S    
C9    C11   A    
C22   N2    A    
O13   C63   S    
Cu2   N1    S    
C10   C12   A    
C79   H84   S    
C4    C6    A    
C3    H11   S    
C20   C22   A    
C40   H2    S    
C64   H45   S    
C58   H32   S    
C69   H62   S    
C78   C79   S    
C54   H23   S    
Cu1   O4    S    
C63   H44   S    
C19   C29   A    
C65   H49   S    
C8    C50   A    
C7    H8    S    
C72   C73   S    
C75   H75   S    
C67   H53   S    
C66   H51   S    
N4    H59   S    
C15   C17   A    
C4    H12   S    
C19   O13   S    
C22   O11   S    
C6    C50   A    
C51   H15   S    
C73   C74   S    
Cu1   O5    S    
C23   O7    A    
C67   H52   S    
C3    C5    A    
C65   H48   S    
C77   H80   S    
C68   H54   S    
C56   H27   S    
C61   H38   S    
C39   C44   S    
C71   H67   S    
C25   C27   A    
C29   C35   A    
C26   C28   A    
C44   O15   S    
C23   C41   S    
O11   C57   S    
C30   C36   A    
C26   N2    A    
O16   C72   S    
C63   C64   S    
C71   H66   S    
C54   H22   S    
C37   C39   S    
Cu2   O3    S    
C72   H68   S    
O15   C69   S    
C32   C33   A    
C38   C40   S    
C68   H55   S    
C51   C52   S    
C24   O6    A    
C66   H50   S    
C59   H34   S    
C79   C80   S    
C28   C30   A    
C55   H24   S    
C33   C35   A    
C5    H10   S    
C60   C61   S    
C34   C36   A    
Cu1   N2    S    
C55   C56   S    
C57   C58   S    
C80   H86   S    
C77   H81   S    
Cu2   O2    S    
C7    C9    A    
O10   C54   S    
C8    C10   A    
C13   C16   A    
C12   C18   A    
C58   H31   S    
C64   H46   S    
C14   C15   A    
C53   H20   S    
C57   H29   S    
Cu1   O1    S    
C70   H63   S    
C62   H40   S    
C79   H85   S    
C17   H5    S    
C69   H61   S    
C59   H35   S    
