data_mof_unit_51282.cif
_audit_creation_date              2013-03-05T16:06:22-0500
_audit_creation_method            fapswitch 2.2
_symmetry_space_group_name_H-M    P1
_symmetry_Int_Tables_number       1
_space_group_crystal_system       triclinic
_cell_length_a                    10.922641
_cell_length_b                    9.540147
_cell_length_c                    27.798264
_cell_angle_alpha                 90.02717
_cell_angle_beta                  92.815198
_cell_angle_gamma                 90.116368
_cell_volume                      2893.17688596

loop_
_atom_site_label
_atom_site_type_symbol
_atom_site_description
_atom_site_fract_x
_atom_site_fract_y
_atom_site_fract_z
_atom_type_partial_charge
O1    O     O_R   0.319640 0.618740 0.500000 -0.517463
O2    O     O_R   0.680360 0.381260 0.500000 -0.517648
O3    O     O_R   0.680360 0.618740 0.500000 -0.516603
O4    O     O_R   0.319640 0.381260 0.500000 -0.517815
C1    C     C_R   0.262575 0.499948 0.503179 0.913311
C2    C     C_R   0.737407 0.500100 0.496787 0.915435
O5    O     O_R   0.500020 0.618770 0.430260 -0.513669
O6    O     O_R   0.499980 0.381230 0.569740 -0.563904
O7    O     O_R   0.499980 0.618770 0.569740 -0.512967
O8    O     O_R   0.500020 0.381230 0.430260 -0.562257
C3    C     C_R   0.502563 0.500288 0.407451 0.850079
C4    C     C_R   0.497646 0.500335 0.592608 0.850542
Cu1   Cu    Cu3+1 0.500000 0.640660 0.500000 1.159177
Cu2   Cu    Cu3+1 0.500000 0.359340 0.500000 1.118667
C5    C     C_R   0.403830 0.556770 0.176557 0.626574
C6    C     C_R   0.612401 0.480659 0.824126 0.624149
O9    O     O_2   0.310253 0.607235 0.201172 -0.426791
O10   O     O_2   0.714768 0.465972 0.799489 -0.432623
N1    N     N_R   0.500964 0.497061 0.201744 -0.473288
N2    N     N_R   0.502082 0.492908 0.798864 -0.469843
C7    C     C_R   0.598019 0.441919 0.179245 0.563669
C8    C     C_R   0.395049 0.508746 0.821650 0.558677
C9    C     C_R   0.550489 0.613583 0.278668 -0.119550
C10   C     C_R   0.462050 0.616030 0.722214 -0.117173
C11   C     C_R   0.552833 0.616376 0.328918 0.374797
C12   C     C_R   0.458648 0.620050 0.671968 0.377219
C13   C     C_R   0.460825 0.383778 0.328321 -0.195984
C14   C     C_R   0.529970 0.378646 0.671300 -0.196901
C15   C     C_R   0.459233 0.382221 0.278161 -0.074164
C16   C     C_R   0.531989 0.375693 0.721454 -0.069456
C17   C     C_R   0.503326 0.497450 0.253300 0.261883
C18   C     C_R   0.498906 0.494671 0.747120 0.250788
C19   C     C_R   0.503157 0.509413 0.101966 -0.113271
C20   C     C_R   0.508339 0.504986 0.898949 -0.110231
C21   C     C_R   0.402292 0.565602 0.125635 -0.196314
C22   C     C_R   0.618803 0.485694 0.875192 -0.193630
C23   C     C_R   0.307023 0.632274 0.097654 0.349829
C24   C     C_R   0.730761 0.477548 0.903288 0.352032
C25   C     C_R   0.601179 0.446938 0.129038 0.013637
C26   C     C_R   0.396061 0.516437 0.871890 0.006391
C27   C     C_R   0.505927 0.500971 0.354396 -0.130531
C28   C     C_R   0.494989 0.500731 0.645784 -0.134020
H1    H     H_    0.425222 0.293619 0.346627 0.230084
H2    H     H_    0.556854 0.285137 0.652560 0.230693
H3    H     H_    0.423198 0.291800 0.258567 0.171765
H4    H     H_    0.559516 0.280878 0.740425 0.177420
C29   C     C_R   0.399648 0.543376 0.973011 0.097273
C30   C     C_R   0.611788 0.467853 0.027985 0.099006
C31   C     C_R   0.618806 0.487511 0.977518 -0.145910
C32   C     C_R   0.404302 0.565656 0.023523 -0.143673
C33   C     C_R   0.509104 0.511830 0.949865 0.020280
C34   C     C_R   0.506261 0.514269 0.051118 0.017833
C35   C     C_R   0.288472 0.546921 0.945203 -0.176612
C36   C     C_R   0.704942 0.399556 0.055808 -0.183466
C37   C     C_R   0.286757 0.534026 0.895466 -0.144946
C38   C     C_R   0.699962 0.389927 0.105502 -0.150008
O11   O     O_2   0.287692 0.517014 0.795588 -0.488582
O12   O     O_2   0.691640 0.383346 0.205566 -0.494285
C39   C     C_R   0.312088 0.639545 0.047375 0.370024
C40   C     C_R   0.731159 0.486237 0.953733 0.360767
H5    H     H_    0.435279 0.707622 0.742186 0.181899
H6    H     H_    0.586174 0.701641 0.259086 0.178223
H7    H     H_    0.199063 0.538438 0.875548 0.223325
H8    H     H_    0.774258 0.337483 0.125437 0.202516
H9    H     H_    0.201132 0.554110 0.961600 0.205430
H10   H     H_    0.780517 0.348075 0.039524 0.203740
C41   C     C_R   0.062837 0.371953 0.504521 0.334687
C42   C     C_R   0.937070 0.628371 0.495430 0.335910
C43   C     C_R   0.936625 0.372056 0.495140 0.335134
C44   C     C_R   0.063375 0.628281 0.504648 0.334387
C45   C     C_R   0.871547 0.500223 0.494203 -0.369818
C46   C     C_R   0.128413 0.500032 0.505698 -0.369989
C47   C     C_R   0.423704 0.073976 0.468538 0.400272
C48   C     C_R   0.575990 0.925921 0.531594 0.432775
C49   C     C_R   0.576296 0.074404 0.531474 0.398416
C50   C     C_R   0.424126 0.925505 0.468365 0.428824
N3    N     N_R   0.500000 0.852070 0.500000 -0.288401
N4    N     N_R   0.500000 0.147930 0.500000 -0.288414
Cl1   Cl    Cl    0.322504 0.161736 0.427534 -0.443126
Cl2   Cl    Cl    0.675539 0.837916 0.573257 -0.390452
Cl3   Cl    Cl    0.677241 0.162698 0.572620 -0.440224
Cl4   Cl    Cl    0.325161 0.837021 0.426460 -0.391647
Cl5   Cl    Cl    0.179112 0.712812 0.122974 -0.506444
Cl6   Cl    Cl    0.875577 0.458634 0.877958 -0.500054
Cl7   Cl    Cl    0.402491 0.775178 0.644400 -0.486460
Cl8   Cl    Cl    0.621039 0.764002 0.357650 -0.480695
O13   O     O_3   0.226886 0.723437 0.022438 -0.602104
C51   C     C_3   0.284282 0.845487 0.004847 0.038105
H11   H     H_    0.228258 0.882102 0.972880 0.180171
H12   H     H_    0.377950 0.826052 0.992123 0.137781
C52   C     C_3   0.288859 0.962469 0.042766 -0.316448
H13   H     H_    0.195135 0.981853 0.055085 0.256954
H14   H     H_    0.348447 0.929786 0.074303 0.231937
C53   C     C_3   0.339478 0.098517 0.022578 -0.879610
H15   H     H_    0.433968 0.082220 0.010617 0.255752
H16   H     H_    0.342339 0.180708 0.050930 0.268549
H17   H     H_    0.279999 0.135663 0.991626 0.265372
O14   O     O_3   0.843848 0.496746 0.978866 -0.589789
C54   C     C_3   0.860421 0.633399 0.998330 0.074355
H18   H     H_    0.924233 0.624648 0.030568 0.212276
H19   H     H_    0.774538 0.680599 0.011092 0.128466
C55   C     C_3   0.917976 0.731491 0.962064 -0.308125
H20   H     H_    0.006275 0.686819 0.951170 0.255159
H21   H     H_    0.855715 0.741888 0.929452 0.230269
C56   C     C_3   0.940912 0.876915 0.983596 -0.855175
H22   H     H_    0.852752 0.926294 0.992411 0.252290
H23   H     H_    0.986360 0.944238 0.957186 0.264445
H24   H     H_    0.001116 0.869815 0.016859 0.288968
Cl9   Cl    Cl    0.132235 0.208498 0.519764 -0.350996
Cl10  Cl    Cl    0.867381 0.791955 0.480534 -0.330308
Cl11  Cl    Cl    0.866610 0.208769 0.479589 -0.350542
Cl12  Cl    Cl    0.133622 0.791786 0.519779 -0.335990

loop_
_geom_bond_atom_site_label_1
_geom_bond_atom_site_label_2
_geom_bond_distance
_ccdc_geom_bond_type
O13   C51   1.419708 S    
C10   H5    1.083423 S    
C13   C15   1.393695 A    
O3    C2    1.298283 A    
N1    C17   1.432135 S    
C8    O11   1.350225 S    
C19   C34   1.416317 A    
C5    N1    1.367559 A    
C56   H23   1.110350 S    
C20   C33   1.416475 A    
C19   C25   1.411301 A    
C31   C40   1.422347 A    
O1    C1    1.297418 A    
C32   C39   1.420934 A    
N1    C7    1.363379 A    
C10   C12   1.395970 A    
C1    C46   1.470512 S    
C40   O14   1.388583 S    
C42   C45   1.414920 A    
C55   C56   1.526061 S    
C41   C46   1.414648 A    
C14   C28   1.407706 A    
C43   C45   1.415187 A    
O7    Cu1   1.949976 S    
C53   H16   1.110790 S    
C4    C28   1.479890 S    
C41   Cl9   1.777547 S    
C9    H6    1.083480 S    
C25   C38   1.399791 A    
C31   C33   1.411133 A    
C48   N3    1.371889 A    
C37   H7    1.083477 S    
C32   C34   1.409859 A    
C47   N4    1.372079 A    
C38   H8    1.083372 S    
C35   H9    1.079579 S    
O3    Cu1   1.981498 S    
C6    N2    1.369771 A    
C29   C35   1.407577 A    
C24   Cl6   1.772236 S    
Cu2   N4    2.016883 S    
C48   Cl2   1.763372 S    
Cu1   Cu2   2.683834 S    
O2    C2    1.297813 A    
C5    C21   1.417358 A    
O7    C4    1.297524 A    
O5    C3    1.296766 A    
C29   C32   1.418466 A    
Cu1   N3    2.016882 S    
C35   C37   1.387215 A    
C2    C45   1.470443 S    
C56   H24   1.110167 S    
C36   C38   1.388245 A    
C48   C49   1.416548 A    
C50   N3    1.371983 A    
O8    Cu2   1.949975 S    
C50   Cl4   1.763434 S    
C52   H13   1.111125 S    
C49   Cl3   1.762060 S    
C29   C33   1.418013 A    
C53   H17   1.110981 S    
C14   H2    1.081223 S    
C15   H3    1.082971 S    
C41   C43   1.390376 A    
C9    C17   1.396931 A    
C30   C36   1.408495 A    
C10   C18   1.398976 A    
C52   H14   1.111053 S    
C13   C27   1.407124 A    
C54   H18   1.111224 S    
C7    C25   1.398619 A    
C51   C52   1.533813 S    
C30   C34   1.418721 A    
O6    C4    1.302659 A    
C26   C37   1.400222 A    
C8    C26   1.397974 A    
C47   Cl1   1.761524 S    
C53   H15   1.110956 S    
C42   Cl10  1.777887 S    
C55   H21   1.110855 S    
C23   C39   1.403213 A    
C44   Cl12  1.778093 S    
C24   C40   1.404460 A    
C6    O10   1.347077 S    
C30   C31   1.421257 A    
C54   H19   1.114826 S    
C51   H12   1.114669 S    
C47   C50   1.416451 A    
C20   C26   1.411283 A    
O1    Cu1   1.980653 S    
C11   C27   1.417861 A    
C12   C28   1.418646 A    
N2    C18   1.437226 S    
C5    O9    1.347244 S    
O6    Cu2   1.949779 S    
C21   C23   1.419888 A    
C16   H4    1.082916 S    
N2    C8    1.365331 A    
O4    C1    1.298693 A    
C36   H10   1.079665 S    
C56   H22   1.110905 S    
C22   C24   1.420600 A    
C7    O12   1.350001 S    
C15   C17   1.396160 A    
C6    C22   1.418624 A    
C52   C53   1.527567 S    
C16   C18   1.397947 A    
C43   Cl11  1.777771 S    
C12   Cl7   1.764180 S    
C14   C16   1.393579 A    
C11   Cl8   1.764266 S    
C19   C21   1.416794 A    
C3    C27   1.477137 S    
C20   C22   1.415924 A    
C9    C11   1.396097 A    
O4    Cu2   1.981498 S    
C55   H20   1.110755 S    
O2    Cu2   1.980653 S    
C49   N4    1.372355 A    
C39   O13   1.388283 S    
O8    C3    1.301992 A    
C13   H1    1.080969 S    
O5    Cu1   1.949779 S    
C54   C55   1.532328 S    
C51   H11   1.110801 S    
C42   C44   1.390762 A    
O14   C54   1.419113 S    
C23   Cl5   1.771500 S    
C44   C46   1.415632 A    
