data_mof_unit_26255.cif
_audit_creation_date              2013-03-05T16:45:52-0500
_audit_creation_method            fapswitch 2.2
_symmetry_space_group_name_H-M    P1
_symmetry_Int_Tables_number       1
_space_group_crystal_system       triclinic
_cell_length_a                    18.33521
_cell_length_b                    18.335312
_cell_length_c                    18.335368
_cell_angle_alpha                 60.104059
_cell_angle_beta                  60.099608
_cell_angle_gamma                 60.105025
_cell_volume                      4368.77993568

loop_
_atom_site_label
_atom_site_type_symbol
_atom_site_description
_atom_site_fract_x
_atom_site_fract_y
_atom_site_fract_z
_atom_type_partial_charge
Zn1   Zn    Zn3+2 0.206620 0.206630 0.380140 1.001540
Zn2   Zn    Zn3+2 0.793380 0.793370 0.619860 1.001541
Zn3   Zn    Zn3+2 0.206630 0.380140 0.206620 1.001402
Zn4   Zn    Zn3+2 0.793370 0.619860 0.793380 1.001402
Zn5   Zn    Zn3+2 0.380140 0.206620 0.206630 1.001598
Zn6   Zn    Zn3+2 0.619860 0.793380 0.793370 1.001598
Zn7   Zn    Zn3+2 0.206620 0.206620 0.206620 0.972249
Zn8   Zn    Zn3+2 0.793380 0.793380 0.793380 0.972248
O1    O     O_3   0.250000 0.250000 0.250000 -0.500368
O2    O     O_3   0.750000 0.750000 0.750000 -0.500368
O3    O     O_R   0.305080 0.134200 0.134200 -0.640139
O4    O     O_R   0.694920 0.865800 0.865800 -0.640140
O5    O     O_R   0.134200 0.134200 0.305080 -0.640333
O6    O     O_R   0.865800 0.865800 0.694920 -0.640335
O7    O     O_R   0.134200 0.305080 0.134200 -0.640412
O8    O     O_R   0.865800 0.694920 0.865800 -0.640413
O9    O     O_R   0.134200 0.305090 0.426530 -0.655605
O10   O     O_R   0.865800 0.694910 0.573470 -0.655604
O11   O     O_R   0.305090 0.426530 0.134200 -0.655757
O12   O     O_R   0.694910 0.573470 0.865800 -0.655756
O13   O     O_R   0.426530 0.134200 0.305090 -0.655567
O14   O     O_R   0.573470 0.865800 0.694910 -0.655567
O15   O     O_R   0.134190 0.426530 0.134200 -0.625721
O16   O     O_R   0.865810 0.573470 0.865800 -0.625721
O17   O     O_R   0.426530 0.134200 0.134190 -0.625492
O18   O     O_R   0.573470 0.865800 0.865810 -0.625492
O19   O     O_R   0.134200 0.134190 0.426530 -0.625502
O20   O     O_R   0.865800 0.865810 0.573470 -0.625501
O21   O     O_R   0.426530 0.305080 0.134210 -0.631678
O22   O     O_R   0.573470 0.694920 0.865790 -0.631677
O23   O     O_R   0.305080 0.134210 0.426530 -0.631761
O24   O     O_R   0.694920 0.865790 0.573470 -0.631760
O25   O     O_R   0.134210 0.426530 0.305080 -0.631695
O26   O     O_R   0.865790 0.573470 0.694920 -0.631695
C1    C     C_R   0.389792 0.110177 0.110114 0.786811
C2    C     C_R   0.610208 0.889823 0.889886 0.786810
C3    C     C_R   0.110172 0.110119 0.389792 0.786716
C4    C     C_R   0.889827 0.889882 0.610208 0.786716
C5    C     C_R   0.110115 0.389792 0.110174 0.786816
C6    C     C_R   0.889885 0.610208 0.889826 0.786818
C7    C     C_R   0.111075 0.390328 0.389796 0.829221
C8    C     C_R   0.888924 0.609672 0.610204 0.829220
C9    C     C_R   0.390331 0.389793 0.111075 0.829068
C10   C     C_R   0.609669 0.610207 0.888925 0.829068
C11   C     C_R   0.389796 0.111072 0.390331 0.829150
C12   C     C_R   0.610204 0.888927 0.609669 0.829151
H1    H     H_    0.812321 0.283288 0.540211 0.184027
H2    H     H_    0.187681 0.716712 0.459792 0.184027
H3    H     H_    0.282033 0.543702 0.813612 0.184197
H4    H     H_    0.717966 0.456302 0.186389 0.184197
H5    H     H_    0.539856 0.812244 0.283417 0.183908
H6    H     H_    0.460144 0.187755 0.716584 0.183909
C13   C     C_R   0.179580 0.927540 0.398926 -0.128719
C14   C     C_R   0.820421 0.072460 0.601079 -0.128724
C15   C     C_R   0.928182 0.397096 0.178894 -0.129044
C16   C     C_R   0.071817 0.602908 0.821107 -0.129046
C17   C     C_R   0.399100 0.179619 0.927470 -0.128590
C18   C     C_R   0.600900 0.820381 0.072530 -0.128590
C19   C     C_R   0.214087 0.839098 0.402840 -0.103041
C20   C     C_R   0.785915 0.160902 0.597167 -0.103042
C21   C     C_R   0.840091 0.400059 0.213046 -0.103671
C22   C     C_R   0.159907 0.599947 0.786955 -0.103673
C23   C     C_R   0.403109 0.214146 0.838993 -0.102647
C24   C     C_R   0.596890 0.785854 0.161006 -0.102647
C25   C     C_R   0.160556 0.785550 0.456497 -0.110199
C26   C     C_R   0.839445 0.214450 0.543506 -0.110198
C27   C     C_R   0.786549 0.453721 0.159526 -0.110550
C28   C     C_R   0.213449 0.546283 0.840475 -0.110548
C29   C     C_R   0.456775 0.160615 0.785447 -0.110492
C30   C     C_R   0.543224 0.839385 0.214553 -0.110493
C31   C     C_R   0.072254 0.820154 0.506562 -0.162117
C32   C     C_R   0.927745 0.179847 0.493438 -0.162116
C33   C     C_R   0.820810 0.504737 0.071591 -0.161718
C34   C     C_R   0.179190 0.495264 0.928409 -0.161717
C35   C     C_R   0.506748 0.072292 0.820089 -0.161937
C36   C     C_R   0.493251 0.927708 0.179911 -0.161936
C37   C     C_R   0.035280 0.910145 0.503101 0.070386
C38   C     C_R   0.964719 0.089856 0.496899 0.070386
C39   C     C_R   0.910489 0.502179 0.034929 0.070631
C40   C     C_R   0.089511 0.497822 0.965071 0.070631
C41   C     C_R   0.503194 0.035300 0.910112 0.070574
C42   C     C_R   0.496806 0.964700 0.089888 0.070575
C43   C     C_R   0.089717 0.964622 0.448490 0.076052
C44   C     C_R   0.910283 0.035379 0.551512 0.076054
C45   C     C_R   0.964962 0.447563 0.089359 0.076240
C46   C     C_R   0.035037 0.552438 0.910641 0.076240
C47   C     C_R   0.448579 0.089738 0.964585 0.075954
C48   C     C_R   0.551421 0.910261 0.035415 0.075954
C49   C     C_R   0.945991 0.945949 0.554188 -0.139391
C50   C     C_R   0.054008 0.054052 0.445812 -0.139391
C51   C     C_R   0.945948 0.554191 0.945994 -0.139733
C52   C     C_R   0.054051 0.445809 0.054006 -0.139733
C53   C     C_R   0.554189 0.945989 0.945951 -0.139323
C54   C     C_R   0.445810 0.054011 0.054049 -0.139323
H7    H     H_    0.224357 0.966016 0.357149 0.132275
H8    H     H_    0.775644 0.033983 0.642860 0.132278
H9    H     H_    0.966600 0.355336 0.223713 0.133063
H10   H     H_    0.033399 0.644670 0.776289 0.133066
H11   H     H_    0.357315 0.224392 0.965949 0.132317
H12   H     H_    0.642685 0.775608 0.034051 0.132317
H13   H     H_    0.282843 0.811886 0.364438 0.163467
H14   H     H_    0.717160 0.188112 0.635572 0.163468
H15   H     H_    0.813134 0.360933 0.281536 0.163648
H16   H     H_    0.186864 0.639075 0.718467 0.163648
H17   H     H_    0.364774 0.282916 0.811754 0.163642
H18   H     H_    0.635226 0.717084 0.188246 0.163641
H19   H     H_    0.033811 0.775349 0.548279 0.135452
H20   H     H_    0.966188 0.224653 0.451719 0.135449
H21   H     H_    0.775957 0.546474 0.033210 0.136141
H22   H     H_    0.224043 0.453526 0.966790 0.136140
H23   H     H_    0.548469 0.033844 0.775288 0.135284
H24   H     H_    0.451530 0.966156 0.224712 0.135284
H25   H     H_    0.234949 0.683777 0.072363 0.209197
H26   H     H_    0.765051 0.316223 0.927637 0.209197
H27   H     H_    0.683820 0.072426 0.234934 0.209302
H28   H     H_    0.316180 0.927574 0.765066 0.209302
H29   H     H_    0.072374 0.234923 0.683796 0.209238
H30   H     H_    0.927626 0.765077 0.316203 0.209238
C55   C     C_R   0.237603 0.611806 0.206873 0.683430
C56   C     C_R   0.762397 0.388194 0.793127 0.683429
C57   C     C_R   0.611862 0.206939 0.237578 0.683195
C58   C     C_R   0.388138 0.793061 0.762422 0.683195
C59   C     C_R   0.206892 0.237576 0.611816 0.683411
C60   C     C_R   0.793108 0.762423 0.388184 0.683411
C61   C     C_R   0.189792 0.574499 0.296824 0.079600
C62   C     C_R   0.810208 0.425501 0.703176 0.079600
C63   C     C_R   0.574542 0.296879 0.189773 0.079318
C64   C     C_R   0.425458 0.703121 0.810227 0.079318
C65   C     C_R   0.296840 0.189767 0.574507 0.079656
C66   C     C_R   0.703160 0.810233 0.425493 0.079655
C67   C     C_R   0.101423 0.580312 0.319065 -0.243010
C68   C     C_R   0.898576 0.419688 0.680935 -0.243011
C69   C     C_R   0.580313 0.319092 0.101428 -0.243024
C70   C     C_R   0.419687 0.680908 0.898571 -0.243023
C71   C     C_R   0.319068 0.101403 0.580324 -0.242964
C72   C     C_R   0.680932 0.898597 0.419676 -0.242964
C73   C     C_R   0.063565 0.622591 0.251520 0.673959
C74   C     C_R   0.936435 0.377408 0.748480 0.673959
C75   C     C_R   0.622574 0.251535 0.063584 0.673945
C76   C     C_R   0.377426 0.748465 0.936416 0.673944
C77   C     C_R   0.251513 0.063548 0.622607 0.673817
C78   C     C_R   0.748487 0.936452 0.377393 0.673816
C79   C     C_R   0.111738 0.659874 0.163238 -0.320815
C80   C     C_R   0.888262 0.340126 0.836762 -0.320814
C81   C     C_R   0.659871 0.163266 0.111751 -0.320782
C82   C     C_R   0.340129 0.836734 0.888249 -0.320781
C83   C     C_R   0.163234 0.111718 0.659893 -0.320755
C84   C     C_R   0.836766 0.888281 0.340106 -0.320754
H31   H     H_    0.082274 0.692072 0.111597 0.204588
H32   H     H_    0.917726 0.307928 0.888403 0.204589
H33   H     H_    0.692054 0.111616 0.082298 0.204610
H34   H     H_    0.307945 0.888384 0.917702 0.204610
H35   H     H_    0.111585 0.082256 0.692096 0.204582
H36   H     H_    0.888414 0.917743 0.307904 0.204582
C85   C     C_R   0.198251 0.654706 0.141071 -0.341416
C86   C     C_R   0.801749 0.345294 0.858929 -0.341417
C87   C     C_R   0.654737 0.141125 0.198242 -0.341354
C88   C     C_R   0.345262 0.858875 0.801758 -0.341354
C89   C     C_R   0.141080 0.198227 0.654722 -0.341341
C90   C     C_R   0.858920 0.801773 0.345277 -0.341342
C91   C     C_R   0.993205 0.589445 0.466332 -0.122361
C92   C     C_R   0.006795 0.410555 0.533668 -0.122360
C93   C     C_R   0.589440 0.466350 0.993215 -0.122582
C94   C     C_R   0.410560 0.533650 0.006785 -0.122582
C95   C     C_R   0.466329 0.993194 0.589451 -0.122422
C96   C     C_R   0.533671 0.006806 0.410549 -0.122423
H37   H     H_    0.989891 0.658235 0.440421 0.147207
H38   H     H_    0.010108 0.341765 0.559579 0.147207
H39   H     H_    0.658227 0.440453 0.989908 0.147034
H40   H     H_    0.341773 0.559547 0.010092 0.147034
H41   H     H_    0.440415 0.989873 0.658246 0.147246
H42   H     H_    0.559585 0.010126 0.341753 0.147246
C97   C     C_R   0.944222 0.552728 0.554838 -0.026041
C98   C     C_R   0.055777 0.447272 0.445162 -0.026040
C99   C     C_R   0.552724 0.554842 0.944225 -0.025855
C100  C     C_R   0.447276 0.445158 0.055775 -0.025854
C101  C     C_R   0.554838 0.944226 0.552726 -0.026111
C102  C     C_R   0.445162 0.055774 0.447274 -0.026112
C103  C     C_R   0.950640 0.462268 0.588832 0.192359
C104  C     C_R   0.049360 0.537732 0.411168 0.192359
C105  C     C_R   0.462269 0.588818 0.950632 0.192505
C106  C     C_R   0.537731 0.411182 0.049367 0.192505
C107  C     C_R   0.588832 0.950655 0.462260 0.192364
C108  C     C_R   0.411167 0.049345 0.537740 0.192364
F1    F     F_    0.322125 0.607838 0.182822 -0.552803
F2    F     F_    0.677875 0.392162 0.817178 -0.552804
F3    F     F_    0.607934 0.182913 0.322078 -0.552890
F4    F     F_    0.392067 0.817087 0.677922 -0.552890
F5    F     F_    0.182855 0.322095 0.607841 -0.552763
F6    F     F_    0.817145 0.677905 0.392159 -0.552763
N1    N     N_R   0.231753 0.530325 0.363672 0.239946
O27   O     O_R   0.185479 0.532995 0.444408 -0.347306
O28   O     O_R   0.317902 0.492403 0.342487 -0.212898
N2    N     N_R   0.768247 0.469675 0.636327 0.239946
O29   O     O_R   0.814521 0.467005 0.555592 -0.347307
O30   O     O_R   0.682097 0.507597 0.657513 -0.212898
N3    N     N_R   0.530400 0.363742 0.231715 0.239815
O31   O     O_R   0.533073 0.444471 0.185416 -0.347804
O32   O     O_R   0.492517 0.342575 0.317870 -0.212882
N4    N     N_R   0.469600 0.636258 0.768285 0.239815
O33   O     O_R   0.466927 0.555530 0.814583 -0.347805
O34   O     O_R   0.507483 0.657425 0.682130 -0.212882
N5    N     N_R   0.363699 0.231725 0.530324 0.239953
O35   O     O_R   0.444426 0.185456 0.533008 -0.347425
O36   O     O_R   0.342531 0.317868 0.492379 -0.212922
N6    N     N_R   0.636301 0.768275 0.469676 0.239953
O37   O     O_R   0.555574 0.814544 0.466993 -0.347425
O38   O     O_R   0.657469 0.682131 0.507620 -0.212921
F7    F     F_    0.981051 0.624587 0.270781 -0.603396
F8    F     F_    0.018949 0.375413 0.729218 -0.603395
F9    F     F_    0.624542 0.270773 0.981090 -0.603427
F10   F     F_    0.375458 0.729227 0.018910 -0.603426
F11   F     F_    0.270762 0.981041 0.624599 -0.603555
F12   F     F_    0.729238 0.018959 0.375401 -0.603554

loop_
_geom_bond_atom_site_label_1
_geom_bond_atom_site_label_2
_geom_bond_distance
_ccdc_geom_bond_type
C95   H41   1.084116 S    
N2    O30   1.300809 A    
N5    O35   1.300863 A    
C101  C107  1.414695 A    
C96   H42   1.084116 S    
C42   C54   1.414657 A    
H3    C28   1.082841 S    
C31   H19   1.081711 S    
H29   C89   1.080254 S    
C31   C37   1.417622 A    
C95   C101  1.397823 A    
C28   C34   1.393454 A    
H30   C90   1.080253 S    
C69   C106  1.481214 S    
O26   C8    1.276413 A    
C10   C99   1.457304 S    
C16   H10   1.081659 S    
C7    C98   1.457333 S    
C83   C89   1.391447 A    
C55   C85   1.396813 A    
C60   F6    1.356340 S    
C13   C19   1.393423 A    
Zn3   O25   1.939251 S    
C14   C20   1.393423 A    
C38   C50   1.414689 A    
Zn7   O3    1.939994 S    
C62   N2    1.442088 S    
N5    O36   1.300808 A    
C4    C49   1.456157 S    
C37   C49   1.414691 A    
H28   C88   1.080249 S    
C3    C50   1.456156 S    
H27   C87   1.080250 S    
Zn3   O1    1.950877 S    
C21   H15   1.082826 S    
C57   C63   1.410033 A    
C64   C70   1.419632 A    
C46   C51   1.414989 A    
O10   C8    1.284845 A    
C70   C76   1.407202 A    
Zn4   O16   1.938320 S    
C56   C62   1.410033 A    
C13   H7    1.081728 S    
C97   C103  1.414699 A    
C68   C74   1.407202 A    
C17   H11   1.081734 S    
C47   C54   1.414714 A    
C60   C90   1.396814 A    
C56   C86   1.396811 A    
C41   C53   1.414658 A    
Zn2   O24   1.939387 S    
C84   C90   1.391449 A    
N3    O32   1.300811 A    
C61   C67   1.419628 A    
C32   C38   1.417621 A    
C94   C105  1.388061 A    
C65   C71   1.419621 A    
C94   H40   1.084120 S    
C2    C53   1.456185 S    
C18   H12   1.081734 S    
C26   C32   1.393327 A    
C32   H20   1.081712 S    
N4    O33   1.300860 A    
C102  C108  1.414695 A    
C79   H31   1.082473 S    
C80   H32   1.082471 S    
Zn3   O11   1.939218 S    
C18   C48   1.417478 A    
C27   C33   1.393451 A    
H5    C30   1.082709 S    
O20   C4    1.276180 A    
H2    C25   1.082723 S    
O4    C2    1.276559 A    
H4    C27   1.082838 S    
H6    C29   1.082708 S    
H1    C26   1.082723 S    
O5    C3    1.276561 A    
C36   H24   1.081714 S    
C99   C105  1.414685 A    
Zn7   O7    1.940137 S    
N2    O29   1.300863 A    
C73   C79   1.393196 A    
C83   H35   1.082471 S    
C20   C26   1.389311 A    
Zn8   O8    1.940139 S    
C34   C40   1.417853 A    
C59   C65   1.410024 A    
C93   C106  1.388062 A    
C12   C101  1.457417 S    
O22   C10   1.276428 A    
N3    O31   1.300861 A    
C84   H36   1.082471 S    
C71   C108  1.481209 S    
H25   C85   1.080254 S    
C20   H14   1.082689 S    
C96   C102  1.397823 A    
C63   N3    1.442092 S    
H26   C86   1.080254 S    
O12   C10   1.284831 A    
C45   C52   1.414988 A    
O11   C9    1.284830 A    
C93   C99   1.397809 A    
C17   C23   1.393414 A    
O13   C11   1.284797 A    
Zn1   O23   1.939385 S    
C18   C24   1.393414 A    
Zn4   O26   1.939249 S    
C71   C77   1.407199 A    
N1    O27   1.300863 A    
C19   H13   1.082691 S    
C23   C29   1.389313 A    
Zn1   O1    1.950780 S    
C78   F12   1.356460 S    
C36   C42   1.417596 A    
N6    O37   1.300863 A    
C35   C41   1.417597 A    
C75   F9    1.356462 S    
Zn3   O15   1.938322 S    
C25   C31   1.393330 A    
C74   F8    1.356459 S    
C22   H16   1.082829 S    
C17   C47   1.417478 A    
C73   F7    1.356459 S    
C80   C86   1.391445 A    
C65   N5    1.442084 S    
C15   C45   1.417764 A    
C100  C106  1.414684 A    
C55   F1    1.356341 S    
C64   N4    1.442093 S    
Zn5   O1    1.950780 S    
C16   C46   1.417766 A    
C66   N6    1.442085 S    
C78   C84   1.393194 A    
C57   F3    1.356339 S    
C91   C97   1.397807 A    
C9    C100  1.457304 S    
C21   C27   1.389216 A    
C58   F4    1.356340 S    
C39   C51   1.414950 A    
C62   C68   1.419626 A    
Zn8   O4    1.939996 S    
C15   H9    1.081660 S    
N1    O28   1.300809 A    
C33   C39   1.417853 A    
C60   C66   1.410025 A    
C61   N1    1.442087 S    
C91   H37   1.084115 S    
C91   C104  1.388076 A    
C33   H21   1.081652 S    
C40   C52   1.414950 A    
O7    C5    1.276604 A    
C92   C103  1.388076 A    
C81   H33   1.082471 S    
C72   C78   1.407198 A    
C11   C102  1.457417 S    
O8    C6    1.276603 A    
C92   H38   1.084116 S    
C55   C61   1.410033 A    
O18   C2    1.276181 A    
Zn6   O22   1.939265 S    
O17   C1    1.276181 A    
C69   C75   1.407202 A    
C24   C30   1.389313 A    
C30   C36   1.393304 A    
C82   H34   1.082471 S    
C59   F5    1.356341 S    
C44   C49   1.414729 A    
C70   C105  1.481215 S    
C76   C82   1.393189 A    
O6    C4    1.276563 A    
Zn2   O2    1.950777 S    
Zn5   O21   1.939266 S    
C98   C104  1.414699 A    
C5    C52   1.456284 S    
C39   C45   1.413121 A    
C76   F10   1.356464 S    
C1    C54   1.456183 S    
Zn7   O1    1.946771 S    
C43   C50   1.414726 A    
C48   C53   1.414712 A    
C75   C81   1.393190 A    
Zn8   O6    1.939962 S    
C58   C88   1.396812 A    
O14   C12   1.284796 A    
C95   C108  1.388114 A    
O24   C12   1.276396 A    
C66   C72   1.419621 A    
C96   C107  1.388114 A    
C63   C69   1.419633 A    
Zn2   O10   1.939300 S    
C8    C97   1.457333 S    
C56   F2    1.356341 S    
Zn5   O17   1.938229 S    
C67   C104  1.481227 S    
C24   H18   1.082672 S    
C92   C98   1.397806 A    
C81   C87   1.391440 A    
C94   C100  1.397809 A    
C35   H23   1.081713 S    
C22   C28   1.389215 A    
C79   C85   1.391443 A    
C13   C43   1.417509 A    
O25   C7    1.276412 A    
O3    C1    1.276558 A    
C74   C80   1.393197 A    
C19   C25   1.389309 A    
C41   C47   1.413126 A    
Zn6   O18   1.938227 S    
C59   C89   1.396814 A    
O19   C3    1.276177 A    
C42   C48   1.413128 A    
C15   C21   1.393528 A    
C72   C107  1.481209 S    
C82   C88   1.391441 A    
O16   C6    1.276216 A    
C29   C35   1.393303 A    
C16   C22   1.393529 A    
C77   F11   1.356458 S    
C6    C51   1.456284 S    
C58   C64   1.410033 A    
C14   C44   1.417512 A    
C93   H39   1.084119 S    
O9    C7    1.284843 A    
C57   C87   1.396812 A    
Zn6   O2    1.950782 S    
C77   C83   1.393196 A    
C68   C103  1.481227 S    
Zn4   O12   1.939216 S    
C38   C44   1.413115 A    
C40   C46   1.413119 A    
Zn7   O5    1.939960 S    
Zn5   O13   1.939382 S    
Zn1   O9    1.939301 S    
Zn8   O2    1.946770 S    
O23   C11   1.276396 A    
Zn1   O19   1.938194 S    
C37   C43   1.413114 A    
Zn2   O20   1.938195 S    
C34   H22   1.081652 S    
N6    O38   1.300810 A    
Zn4   O2    1.950880 S    
C14   H8    1.081731 S    
O15   C5    1.276218 A    
N4    O34   1.300811 A    
O21   C9    1.276428 A    
C23   H17   1.082672 S    
C67   C73   1.407203 A    
Zn6   O14   1.939385 S    
