data_mof_unit_14699.cif
_audit_creation_date              2012-12-11T20:57:50-0500
_audit_creation_method            fapswitch 2.2
_symmetry_space_group_name_H-M    P1
_symmetry_Int_Tables_number       1
_space_group_crystal_system       triclinic
_cell_length_a                    8.204622
_cell_length_b                    18.82067
_cell_length_c                    22.839095
_cell_angle_alpha                 99.925464
_cell_angle_beta                  89.881977
_cell_angle_gamma                 91.569449
_cell_volume                      3472.63158508

loop_
_atom_site_label
_atom_site_type_symbol
_atom_type_description
_atom_site_fract_x
_atom_site_fract_y
_atom_site_fract_z
_atom_type_partial_charge
Ba1   Ba    Ba6+2 0.157800 0.534120 0.474430 1.637851
Ba2   Ba    Ba6+2 0.652390 0.465870 0.525520 1.637603
C1    C     C_3   0.363083 0.702845 0.261173 -0.310316
C2    C     C_R   0.072739 0.905003 0.561534 -0.090206
C3    C     C_R   0.208831 0.049067 0.553437 -0.099812
C4    C     C_3   0.915628 0.725984 0.354578 0.352942
C5    C     C_R   0.055704 0.024038 0.528648 0.018787
C6    C     C_R   0.265221 0.119537 0.554153 -0.092980
C7    C     C_R   0.172364 0.168743 0.530035 -0.031947
C8    C     C_R   0.022719 0.144494 0.501483 0.000909
C9    C     C_R   0.964532 0.071757 0.500366 0.023546
C10   C     C_R   0.224877 0.241541 0.533404 -0.011125
C11   C     C_R   0.125690 0.289776 0.510965 -0.294333
C12   C     C_3   0.392186 0.684562 0.322499 0.323083
C13   C     C_R   0.983137 0.266615 0.479466 0.044293
C14   C     C_R   0.932464 0.192683 0.473359 -0.038585
C15   C     C_R   0.844524 0.928407 0.500784 0.025504
C16   C     C_3   0.930397 0.800768 0.338064 -0.364311
C17   C     C_R   0.786003 0.855725 0.499771 -0.002569
C18   C     C_R   0.877124 0.807268 0.527250 -0.037520
C19   C     C_R   0.015105 0.834603 0.560542 -0.021320
C20   C     C_R   0.795473 0.165087 0.439615 -0.024494
C21   C     C_R   0.737612 0.094727 0.438834 -0.089047
C22   C     C_R   0.815858 0.047432 0.470932 0.012359
C23   C     C_3   0.483185 0.687118 0.620695 0.304900
C24   C     C_R   0.753144 0.976220 0.472693 0.018575
C25   C     C_R   0.599042 0.951576 0.448626 -0.102574
C26   C     C_R   0.635238 0.831784 0.471960 -0.035702
C27   C     C_R   0.541905 0.881267 0.448310 -0.089391
C28   C     C_3   0.821270 0.373895 0.343239 0.295278
C29   C     C_R   0.582119 0.759056 0.468894 -0.000573
C30   C     C_R   0.681042 0.710700 0.491240 -0.305271
C31   C     C_R   0.826052 0.733383 0.521154 0.044700
C32   C     C_R   0.643381 0.524761 0.335296 -0.303812
C33   C     C_R   0.381771 0.558415 0.945997 -0.023039
C34   C     C_3   0.486485 0.768709 0.639254 -0.385444
C35   C     C_R   0.331155 0.555591 0.886789 0.586691
C36   C     C_R   0.239262 0.432351 0.881202 0.596107
C37   C     C_R   0.300387 0.430982 0.939362 -0.032597
C38   C     C_R   0.366632 0.496027 0.972457 -0.058913
C39   C     C_R   0.447891 0.622561 0.979232 -0.075765
C40   C     C_3   0.814053 0.353305 0.275874 -0.362460
C41   C     C_R   0.497117 0.625415 0.037906 -0.075825
C42   C     C_R   0.482376 0.564148 0.065267 -0.018402
C43   C     C_R   0.417580 0.499220 0.032452 -0.050289
C44   C     C_R   0.294972 0.368039 0.966577 -0.049144
C45   C     C_3   0.886232 0.279346 0.644859 0.349094
C46   C     C_R   0.342344 0.372907 0.026164 -0.128630
C47   C     C_R   0.404049 0.437685 0.059505 -0.016526
C48   C     C_R   0.455830 0.441626 0.119093 0.594427
C49   C     C_R   0.530437 0.566834 0.124901 0.573797
C50   C     C_2   0.062753 0.475639 0.773286 -0.067490
C51   C     C_3   0.018137 0.481821 0.709811 -0.052570
C52   C     C_3   0.996900 0.632621 0.658865 0.294150
C53   C     C_1   0.302717 0.510340 0.693850 0.014539
C54   C     C_2   0.344790 0.508832 0.749537 -0.095982
C55   C     C_2   0.218356 0.490898 0.792862 0.204362
C56   C     C_3   0.894337 0.205184 0.662398 -0.355293
C57   C     C_R   0.710933 0.542915 0.235617 -0.092390
C58   C     C_R   0.750997 0.550207 0.295934 -0.021572
C59   C     C_R   0.500031 0.487690 0.314628 0.032073
C60   C     C_R   0.456037 0.482200 0.254483 -0.101827
C61   C     C_R   0.560327 0.510649 0.214187 0.196250
C62   C     C_2   0.168238 0.477139 0.671053 -0.287924
C63   C     C_3   0.037264 0.663244 0.723547 -0.361718
C64   C     C_3   0.320081 0.313617 0.392057 0.313834
C65   C     C_3   0.322352 0.232029 0.373331 -0.383144
C66   C     C_2   0.250994 0.294567 0.934822 0.601575
C67   C     C_3   0.381294 0.304500 0.677274 0.264578
C68   C     C_3   0.428104 0.291298 0.738714 -0.293921
C69   C     C_R   0.993585 0.952622 0.530008 0.012863
H1    H     H_    0.316083 0.636113 0.326576 0.103291
H2    H     H_    0.193762 0.329891 0.402485 0.005398
H3    H     H_    0.398603 0.329035 0.431983 0.068946
H4    H     H_    0.243455 0.728501 0.259336 0.148980
H5    H     H_    0.240709 0.214883 0.334444 0.128861
H6    H     H_    0.280145 0.204844 0.410168 0.057853
H7    H     H_    0.448317 0.215013 0.361212 0.119790
H8    H     H_    0.522876 0.672337 0.326646 -0.041519
H9    H     H_    0.361825 0.652646 0.227735 0.119350
H10   H     H_    0.609348 0.669582 0.610050 0.024072
H11   H     H_    0.405339 0.673231 0.580408 0.061110
H12   H     H_    0.724633 0.307959 0.262926 0.140034
H13   H     H_    0.566084 0.784781 0.678854 0.135379
H14   H     H_    0.534708 0.794717 0.602464 0.056953
H15   H     H_    0.361191 0.787681 0.650082 0.116686
H16   H     H_    0.460779 0.740452 0.250328 0.124120
H17   H     H_    0.873030 0.840757 0.372838 0.075575
H18   H     H_    0.779314 0.279380 0.615202 0.110495
H19   H     H_    0.999185 0.289580 0.620720 -0.047266
H20   H     H_    0.900844 0.163146 0.622006 0.074848
H21   H     H_    0.004163 0.202421 0.690181 0.127798
H22   H     H_    0.783630 0.194365 0.687878 0.141672
H23   H     H_    0.776350 0.399698 0.255705 0.070227
H24   H     H_    0.248492 0.293212 0.670742 -0.011275
H25   H     H_    0.409760 0.362038 0.675362 0.072704
H26   H     H_    0.363637 0.329265 0.772858 0.145587
H27   H     H_    0.561500 0.300249 0.745749 0.149090
H28   H     H_    0.979742 0.727409 0.397599 0.080786
H29   H     H_    0.394038 0.235087 0.743541 0.139106
H30   H     H_    0.164783 0.345796 0.515239 0.069596
H31   H     H_    0.382893 0.134756 0.574276 0.113961
H32   H     H_    0.081801 0.802066 0.586311 0.097728
H33   H     H_    0.729673 0.197472 0.413454 0.097156
H34   H     H_    0.936116 0.336645 0.258346 0.129773
H35   H     H_    0.423092 0.866466 0.429017 0.115371
H36   H     H_    0.640801 0.654896 0.487684 0.077395
H37   H     H_    0.290562 0.015094 0.572110 0.073399
H38   H     H_    0.179347 0.920706 0.588578 0.061254
H39   H     H_    0.631804 0.078649 0.411419 0.060855
H40   H     H_    0.784126 0.712713 0.359678 -0.058240
H41   H     H_    0.516985 0.985897 0.430467 0.072764
H42   H     H_    0.335412 0.324620 0.046123 0.114684
H43   H     H_    0.546661 0.676077 0.061868 0.124176
H44   H     H_    0.797452 0.561739 0.205477 0.116913
H45   H     H_    0.108656 0.611465 0.635994 0.022543
H46   H     H_    0.461325 0.671137 0.959996 0.125752
H47   H     H_    0.469602 0.521333 0.764191 0.111924
H48   H     H_    0.967263 0.465526 0.804024 0.103434
H49   H     H_    0.341744 0.455404 0.239160 0.126603
H50   H     H_    0.676692 0.529558 0.381651 0.082839
H51   H     H_    0.060861 0.816550 0.334181 0.140504
H52   H     H_    0.165482 0.448180 0.625582 0.068664
H53   H     H_    0.867942 0.801102 0.295023 0.125561
H54   H     H_    0.698575 0.388769 0.360068 0.014479
H55   H     H_    0.907958 0.420448 0.355090 0.066785
H56   H     H_    0.903163 0.588691 0.656791 0.040945
H57   H     H_    0.177479 0.258480 0.957064 -0.036846
H58   H     H_    0.123314 0.710260 0.725878 0.149328
H59   H     H_    0.095057 0.622550 0.745693 0.081583
H60   H     H_    0.924102 0.680967 0.747899 0.119991
N1    N     N_R   0.262377 0.492922 0.854864 -0.432254
N2    N     N_R   0.514760 0.506238 0.151852 -0.424913
O1    O     O_2   0.110690 0.676100 0.539200 -0.469678
O2    O     O_2   0.684453 0.440442 0.698640 -0.493665
O3    O     O_3   0.872227 0.331584 0.696291 -0.592019
O4    O     O_3   0.863220 0.586720 0.534720 -0.482341
O5    O     O_3   0.450900 0.461390 0.429220 -0.489190
O6    O     O_2   0.599830 0.538970 0.641850 -0.462685
O7    O     O_3   0.420629 0.655158 0.667540 -0.633443
O8    O     O_2   0.563410 0.243461 0.524539 -0.492313
O9    O     O_3   0.470675 0.258790 0.634669 -0.606747
O10   O     O_2   0.345843 0.609474 0.863795 -0.593321
O11   O     O_2   0.162949 0.380355 0.854322 -0.566178
O12   O     O_3   0.376885 0.345608 0.344805 -0.625648
O13   O     O_2   0.450898 0.387097 0.141442 -0.596075
O14   O     O_2   0.585296 0.623582 0.152949 -0.615419
O15   O     O_3   0.368310 0.629070 0.432760 -0.487918
O16   O     O_2   0.242327 0.756411 0.474226 -0.489549
O17   O     O_3   0.935616 0.688300 0.633163 -0.643523
O18   O     O_3   0.347915 0.743196 0.365668 -0.610995
O19   O     O_2   0.210480 0.460990 0.358130 -0.464284
O20   O     O_3   0.959520 0.592090 0.401630 -0.486836
O21   O     O_2   0.089019 0.543618 0.295334 -0.501370
O22   O     O_2   0.306635 0.271722 0.885776 -0.546958
O23   O     O_3   0.987422 0.675960 0.309789 -0.597598
O24   O     O_2   0.699610 0.323860 0.460780 -0.468287
O25   O     O_3   0.947090 0.413280 0.465240 -0.489090
O26   O     O_3   0.442000 0.370930 0.567190 -0.473993
O27   O     O_3   0.872341 0.314308 0.366551 -0.639588
O28   O     O_3   0.359410 0.538600 0.570730 -0.475590
O29   O     O_3   0.850780 0.407910 0.598320 -0.486007
P1    P     P_3+3 0.935930 0.665430 0.555670 0.978033
P2    P     P_3+3 0.382700 0.439650 0.365620 0.994577
P3    P     P_3+3 0.947555 0.589181 0.324903 0.945502
P4    P     P_3+3 0.874370 0.334570 0.444280 0.976192
P5    P     P_3+3 0.855571 0.416728 0.675914 0.972660
P6    P     P_3+3 0.385049 0.722402 0.436139 0.934776
P7    P     P_3+3 0.416835 0.561286 0.645466 0.959471
P8    P     P_3+3 0.424293 0.277814 0.564394 0.928825

loop_
_geom_bond_atom_site_label_1
_geom_bond_atom_site_label_2
_ccdc_geom_bond_type
C32   C58   A    
C2    H38   S    
C28   H55   S    
O7    P7    S    
O26   P8    S    
C45   O3    S    
C25   C27   A    
C59   P2    S    
C45   H18   S    
C4    H40   S    
C55   N1    S    
C17   C18   A    
C65   H6    S    
C40   H34   S    
C53   C54   D    
C66   O22   D    
Ba2   O29   S    
C63   H59   S    
C52   O17   S    
C52   C63   S    
C54   C55   S    
C28   O27   S    
O17   P1    S    
O16   P6    D    
C24   C25   A    
Ba2   O6    S    
C61   N2    S    
C26   C27   A    
C33   C35   A    
C56   H22   S    
C22   C24   A    
C41   H43   S    
C5    C69   A    
C36   C37   A    
C51   C62   S    
O18   P6    S    
C64   H3    S    
C9    C22   A    
C20   H33   S    
O1    P1    D    
Ba1   O19   S    
Ba1   Ba2   S    
C64   O12   S    
C15   C17   A    
C51   P5    S    
Ba1   P2    S    
Ba2   O26   S    
C30   H36   S    
C52   H45   S    
C12   O18   S    
C21   C22   A    
C13   P4    S    
C43   C47   A    
C1    H4    S    
C56   H20   S    
Ba2   P4    S    
C60   H49   S    
C68   H26   S    
O9    P8    S    
O28   P7    S    
C48   O13   D    
C64   C65   S    
C28   H54   S    
Ba1   O28   S    
C57   C58   A    
C23   H10   S    
C39   C41   A    
C59   C60   A    
C65   H7    S    
C54   H47   S    
C1    H9    S    
Ba2   O28   S    
C63   H60   S    
C68   H29   S    
C38   C43   A    
C4    C16   S    
C44   C46   A    
C40   H12   S    
C1    H16   S    
Ba2   O5    S    
C23   O7    S    
C8    C9    A    
C37   C38   A    
C3    C5    A    
C6    C7    A    
C10   P8    S    
C34   H15   S    
C67   O9    S    
C64   H2    S    
C32   C59   A    
C16   H17   S    
C29   P6    S    
C36   N1    Am   
C67   H25   S    
C5    C9    A    
C41   C42   A    
C44   C66   S    
C60   C61   A    
C29   C30   A    
C49   O14   D    
Ba2   O25   S    
C53   C62   D    
O21   P3    D    
C12   H8    S    
C10   C11   A    
Ba1   O20   S    
C17   C26   A    
O19   P2    D    
C1    C12   S    
C16   H51   S    
C37   C44   A    
C18   C31   A    
C42   C49   A    
C46   C47   A    
O12   P2    S    
C25   H41   S    
C15   C69   A    
C32   H50   S    
O27   P4    S    
C11   C13   A    
C23   H11   S    
O15   P6    S    
C45   H19   S    
C27   H35   S    
C15   C24   A    
C11   H30   S    
Ba1   O1    S    
Ba1   O4    S    
C50   C51   S    
O25   P4    S    
O4    P1    S    
C7    C8    A    
C21   H39   S    
C66   H57   S    
Ba1   O25   S    
C14   C20   A    
C35   O10   D    
O20   P3    S    
C40   H23   S    
Ba2   O4    S    
C12   H1    S    
C26   C29   A    
C42   C43   A    
C67   H24   S    
C48   N2    Am   
O24   P4    D    
C3    C6    A    
C63   H58   S    
O3    P5    S    
C34   H14   S    
C62   H52   S    
C52   H56   S    
C57   C61   A    
C58   P3    S    
C35   N1    Am   
C30   C31   A    
C33   C38   A    
C36   O11   D    
C8    C14   A    
C4    H28   S    
C45   C56   S    
C2    C19   A    
C49   N2    Am   
C6    H31   S    
O23   P3    S    
C34   H13   S    
Ba2   O24   S    
O8    P8    D    
C31   P1    S    
O6    P7    D    
C67   C68   S    
C33   C39   A    
C7    C10   A    
C50   C55   D    
C23   C34   S    
O29   P5    S    
C19   H32   S    
C50   H48   S    
C68   H27   S    
C18   C19   A    
Ba1   P1    S    
C57   H44   S    
C47   C48   A    
O2    P5    D    
C20   C21   A    
C28   C40   S    
Ba1   O15   S    
O5    P2    S    
C65   H5    S    
C39   H46   S    
C56   H21   S    
C53   P7    S    
C2    C69   A    
C4    O23   S    
Ba1   O5    S    
C13   C14   A    
C16   H53   S    
C46   H42   S    
C3    H37   S    
