data_mof_unit_8296.cif
_audit_creation_date              2012-12-11T21:34:18-0500
_audit_creation_method            fapswitch 2.2
_symmetry_space_group_name_H-M    P1
_symmetry_Int_Tables_number       1
_space_group_crystal_system       triclinic
_cell_length_a                    23.612323
_cell_length_b                    28.95621
_cell_length_c                    8.46746
_cell_angle_alpha                 90.101409
_cell_angle_beta                  92.645425
_cell_angle_gamma                 90.148814
_cell_volume                      5783.20073002

loop_
_atom_site_label
_atom_site_type_symbol
_atom_type_description
_atom_site_fract_x
_atom_site_fract_y
_atom_site_fract_z
_atom_type_partial_charge
Ba1   Ba    Ba6+2 0.999920 0.467660 0.844980 1.731785
Ba2   Ba    Ba6+2 0.999920 0.532340 0.344980 1.721149
Ba3   Ba    Ba6+2 0.499920 0.967660 0.844980 1.720660
Ba4   Ba    Ba6+2 0.499920 0.032340 0.344980 1.721451
C1    C     C_3   0.051600 0.258644 0.653188 -0.284954
C2    C     C_R   0.702298 0.650546 0.345992 -0.031754
C3    C     C_R   0.788003 0.846078 0.870408 -0.014866
C4    C     C_R   0.819061 0.193181 0.441239 -0.037880
C5    C     C_R   0.820472 0.810385 0.937565 -0.045095
C6    C     C_R   0.317589 0.693264 0.445572 -0.035640
C7    C     C_R   0.318013 0.309180 0.941413 -0.044921
C8    C     C_R   0.813245 0.238319 0.379915 -0.020831
C9    C     C_R   0.818468 0.765578 0.871811 -0.007880
C10   C     C_R   0.312850 0.738298 0.382857 -0.014054
C11   C     C_R   0.316397 0.264504 0.874756 -0.006354
C12   C     C_R   0.844699 0.319551 0.376426 -0.007803
C13   C     C_R   0.205180 0.847216 0.827107 -0.059827
C14   C     C_R   0.856054 0.686286 0.860367 -0.050012
C15   C     C_R   0.345904 0.819084 0.376699 -0.030079
C16   C     C_R   0.354904 0.185591 0.861786 -0.050626
C17   C     C_R   0.838154 0.277125 0.459241 0.406290
C18   C     C_R   0.848349 0.728338 0.945087 0.356736
C19   C     C_R   0.339234 0.776755 0.460228 0.403582
C20   C     C_R   0.346555 0.227343 0.947510 0.357548
C21   C     C_R   0.878861 0.357192 0.437096 0.076629
C22   C     C_R   0.895048 0.650978 0.910869 0.013621
C23   C     C_R   0.381367 0.856191 0.434402 0.060134
C24   C     C_R   0.203590 0.149881 0.340788 -0.044070
C25   C     C_R   0.394104 0.150406 0.912241 0.014641
C26   C     C_R   0.887118 0.395880 0.339071 -0.231992
C27   C     C_R   0.904851 0.613439 0.809479 -0.296292
C28   C     C_R   0.390693 0.894173 0.333733 -0.237980
C29   C     C_R   0.403971 0.112840 0.811021 -0.298601
C30   C     C_R   0.862917 0.399035 0.184407 0.028538
C31   C     C_R   0.870557 0.604948 0.672374 0.026506
C32   C     C_R   0.364021 0.898335 0.182556 0.042999
C33   C     C_R   0.370514 0.104853 0.672138 0.030862
C34   C     C_3   0.166477 0.469894 0.183160 0.248153
C35   C     C_R   0.176322 0.809648 0.757182 -0.083900
C36   C     C_3   0.164689 0.531040 0.684472 0.312365
C37   C     C_3   0.666175 0.969797 0.183463 0.248339
C38   C     C_3   0.664574 0.031212 0.683443 0.312468
C39   C     C_3   0.216993 0.438279 0.158485 -0.180108
C40   C     C_3   0.215927 0.562796 0.666914 -0.287331
C41   C     C_3   0.716725 0.938134 0.159541 -0.179788
C42   C     C_3   0.715728 0.062952 0.663997 -0.288029
C43   C     C_3   0.841003 0.531952 0.991004 0.278908
C44   C     C_3   0.817515 0.481798 0.439702 0.298987
C45   C     C_3   0.339484 0.031391 0.991736 0.292386
C46   C     C_R   0.171135 0.185856 0.275571 -0.111564
C47   C     C_3   0.330183 0.972818 0.488017 0.296189
C48   C     C_3   0.788570 0.560623 0.947294 -0.351937
C49   C     C_3   0.762220 0.489535 0.345264 -0.309937
C50   C     C_3   0.288971 0.063699 0.995908 -0.317842
C51   C     C_3   0.276103 0.944413 0.487024 -0.323508
C52   C     C_3   0.021975 0.305334 0.646022 0.360086
C53   C     C_3   0.020826 0.700045 0.109393 0.337305
C54   C     C_3   0.524348 0.806536 0.649331 0.354853
C55   C     C_3   0.520204 0.200070 0.108580 0.336590
C56   C     C_R   0.751225 0.293638 0.015113 0.040380
C57   C     C_R   0.690841 0.304582 0.725996 -0.092793
C58   C     C_R   0.748629 0.705510 0.527466 0.037760
C59   C     C_R   0.246715 0.795205 0.026905 0.039356
C60   C     C_R   0.247820 0.204769 0.527530 0.039109
C61   C     C_2   0.267323 0.451887 0.263139 0.907766
C62   C     C_2   0.262942 0.552516 0.788613 0.935405
C63   C     C_2   0.767162 0.952127 0.263157 0.907571
C64   C     C_2   0.763052 0.053020 0.785130 0.933755
C65   C     C_2   0.721920 0.384223 0.690934 0.851696
C66   C     C_2   0.684815 0.602742 0.303943 0.833392
C67   C     C_2   0.188056 0.894312 0.773534 0.842389
C68   C     C_R   0.670841 0.686612 0.277854 -0.109005
C69   C     C_2   0.189230 0.101996 0.287992 0.842366
C70   C     C_2   0.160583 0.725502 0.568783 0.869460
C71   C     C_2   0.144230 0.263443 0.074885 0.900468
C72   C     C_2   0.663481 0.220479 0.559937 0.868147
C73   C     C_2   0.647266 0.764603 0.073637 0.904490
C74   C     C_2   0.972860 0.299504 0.211437 0.752158
C75   C     C_2   0.006675 0.762063 0.680443 0.865095
C76   C     C_2   0.473999 0.796680 0.208796 0.762032
C77   C     C_2   0.508744 0.261683 0.682840 0.859615
C78   C     C_R   0.181613 0.764901 0.819963 -0.011143
C79   C     C_R   0.177447 0.231814 0.329455 -0.032595
C80   C     C_R   0.688530 0.262003 0.804204 -0.007033
C81   C     C_3   0.045490 0.748272 0.130491 -0.300967
C82   C     C_R   0.678317 0.732634 0.329326 -0.036252
C83   C     C_R   0.213256 0.758531 0.962430 -0.001477
C84   C     C_R   0.212656 0.240473 0.464042 0.018714
C85   C     C_R   0.717447 0.256927 0.951631 0.002449
C86   C     C_R   0.713878 0.741344 0.463184 0.018481
C87   C     C_R   0.156522 0.726418 0.741798 0.030150
C88   C     C_R   0.150743 0.269086 0.248211 -0.033092
C89   C     C_R   0.660619 0.223770 0.732463 0.036128
C90   C     C_R   0.652079 0.769891 0.247296 -0.034581
C91   C     C_R   0.147350 0.684894 0.827520 -0.111860
C92   C     C_3   0.555623 0.760569 0.650867 -0.287808
C93   C     C_R   0.145535 0.313094 0.325257 -0.120199
C94   C     C_R   0.649035 0.183758 0.823307 -0.112298
C95   C     C_R   0.646782 0.813825 0.324361 -0.120005
C96   C     C_R   0.177352 0.679234 0.975912 -0.030428
C97   C     C_R   0.177328 0.320215 0.471124 -0.008921
C98   C     C_R   0.678785 0.178552 0.972091 -0.031489
C99   C     C_R   0.678752 0.821046 0.469775 -0.009328
C100  C     C_R   0.213401 0.715069 0.036259 -0.001252
C101  C     C_R   0.213993 0.284869 0.532181 0.002515
C102  C     C_R   0.715419 0.214275 0.030530 -0.003482
C103  C     C_3   0.544157 0.248691 0.123780 -0.310516
C104  C     C_R   0.715644 0.785825 0.530351 0.004764
C105  C     C_R   0.107868 0.649845 0.775604 -0.039045
C106  C     C_R   0.107948 0.349248 0.270182 0.003638
C107  C     C_R   0.608466 0.149285 0.773835 -0.044408
C108  C     C_R   0.608684 0.849668 0.270101 0.006801
C109  C     C_3   0.979649 0.293900 0.040132 0.291277
C110  C     C_3   0.993795 0.714154 0.617712 0.334385
C111  C     C_3   0.481754 0.792064 0.037730 0.286195
C112  C     C_3   0.494312 0.214105 0.619441 0.340987
C113  C     C_R   0.095738 0.613460 0.879943 0.118322
C114  C     C_R   0.754321 0.335873 0.932206 0.000529
C115  C     C_R   0.097814 0.387239 0.371564 0.123376
C116  C     C_R   0.595849 0.113426 0.879814 0.120291
C117  C     C_R   0.598064 0.887318 0.372183 0.124432
C118  C     C_R   0.130073 0.604955 0.017772 0.025714
C119  C     C_R   0.131115 0.395360 0.512119 0.013985
C120  C     C_R   0.630379 0.104893 0.017323 0.026909
C121  C     C_R   0.631591 0.895606 0.512142 0.015425
C122  C     C_R   0.173177 0.637336 0.062012 -0.108036
C123  C     C_R   0.173750 0.362733 0.555833 -0.078549
C124  C     C_R   0.674079 0.136997 0.059928 -0.108543
C125  C     C_R   0.745479 0.660725 0.461575 0.000041
C126  C     C_R   0.674903 0.863439 0.554764 -0.079747
C127  C     C_R   0.782699 0.287734 0.159753 0.001315
C128  C     C_R   0.785721 0.714151 0.659088 0.001875
C129  C     C_R   0.281115 0.788243 0.165424 -0.003578
C130  C     C_R   0.284557 0.213385 0.660146 0.001172
C131  C     C_R   0.816917 0.324173 0.223834 -0.039239
C132  C     C_R   0.822968 0.679075 0.717603 -0.051686
C133  C     C_R   0.316493 0.824282 0.226779 -0.057698
C134  C     C_R   0.322232 0.178546 0.718133 -0.052993
C135  C     C_R   0.823598 0.364848 0.132982 -0.047049
C136  C     C_R   0.245403 0.838928 0.953170 0.001521
C137  C     C_R   0.826849 0.636927 0.631934 -0.040082
C138  C     C_R   0.322323 0.865252 0.136311 -0.042711
C139  C     C_R   0.327025 0.136834 0.630826 -0.040607
C140  C     C_R   0.790924 0.370414 0.991699 -0.039775
C141  C     C_R   0.786239 0.627749 0.509264 -0.022158
C142  C     C_R   0.285476 0.872387 0.003356 -0.023787
C143  C     C_R   0.287574 0.127977 0.505205 -0.022628
C144  C     C_R   0.212057 0.629516 0.190901 0.015215
C145  C     C_R   0.212240 0.370913 0.685138 0.004660
C146  C     C_R   0.713467 0.129085 0.187651 0.017822
C147  C     C_R   0.245988 0.160282 0.458691 -0.004406
C148  C     C_R   0.713725 0.871837 0.683250 0.003907
C149  C     C_R   0.249873 0.664151 0.244814 0.088662
C150  C     C_R   0.250118 0.336808 0.739929 0.046905
C151  C     C_R   0.751843 0.163621 0.239742 0.090564
C152  C     C_R   0.752145 0.837924 0.736953 0.043423
C153  C     C_R   0.248216 0.707999 0.173307 0.034893
C154  C     C_R   0.250031 0.293109 0.666696 0.014464
C155  C     C_R   0.749826 0.207497 0.168456 0.030272
C156  C     C_R   0.751956 0.794155 0.664120 0.013314
C157  C     C_3   0.954931 0.247423 0.983317 -0.334859
C158  C     C_R   0.722713 0.341461 0.787331 -0.034326
C159  C     C_3   0.937032 0.713871 0.524579 -0.273392
C160  C     C_3   0.458857 0.745297 0.977716 -0.331188
C161  C     C_3   0.437062 0.214710 0.528595 -0.276798
C162  C     C_R   0.782155 0.244552 0.235660 -0.029015
C163  C     C_R   0.786007 0.758076 0.730460 -0.009002
C164  C     C_R   0.281115 0.744825 0.239865 -0.028721
C165  C     C_R   0.284192 0.257090 0.732832 -0.008852
C166  C     C_R   0.287159 0.656496 0.375746 0.005680
C167  C     C_R   0.285628 0.344869 0.874139 -0.014877
C168  C     C_R   0.789699 0.156056 0.369671 0.010274
H1    H     H_    0.032768 0.325767 0.752404 0.095118
H2    H     H_    0.232227 0.558338 0.546797 0.094869
H3    H     H_    0.769093 0.119264 0.860793 0.260107
H4    H     H_    0.828404 0.252127 0.669454 0.286760
H5    H     H_    0.841057 0.750599 0.159112 0.296470
H6    H     H_    0.330414 0.752585 0.671778 0.286064
H7    H     H_    0.338660 0.249074 0.161948 0.295715
H8    H     H_    0.716418 0.410823 0.470862 0.306359
H9    H     H_    0.652954 0.558911 0.136881 0.327258
H10   H     H_    0.151349 0.933706 0.601060 0.333954
H11   H     H_    0.157648 0.060548 0.113145 0.334163
H12   H     H_    0.060792 0.559914 0.788452 0.296052
H13   H     H_    0.727412 0.939300 0.033079 0.099312
H14   H     H_    0.066827 0.444590 0.297667 0.293780
H15   H     H_    0.560144 0.060334 0.787605 0.296193
H16   H     H_    0.565600 0.943806 0.295997 0.293590
H17   H     H_    0.142437 0.754324 0.356877 0.302285
H18   H     H_    0.169790 0.281854 0.863751 0.305004
H19   H     H_    0.641625 0.244592 0.343493 0.301609
H20   H     H_    0.673350 0.784705 0.865254 0.304988
H21   H     H_    0.988405 0.348145 0.373174 0.299567
H22   H     H_    0.985564 0.829553 0.687969 0.332506
H23   H     H_    0.490179 0.843613 0.374463 0.299503
H24   H     H_    0.731753 0.058217 0.543670 0.095890
H25   H     H_    0.487400 0.328901 0.701574 0.330346
H26   H     H_    0.866981 0.528528 0.886279 0.028494
H27   H     H_    0.853193 0.484169 0.360135 0.007735
H28   H     H_    0.352175 0.027507 0.868589 0.013791
H29   H     H_    0.342321 0.978063 0.364601 0.016574
H30   H     H_    0.865853 0.549508 0.088012 0.058386
H31   H     H_    0.816439 0.446607 0.490631 0.019426
H32   H     H_    0.374721 0.046520 0.066586 0.052048
H33   H     H_    0.048834 0.675262 0.175528 0.071398
H34   H     H_    0.363626 0.954315 0.559376 0.020766
H35   H     H_    0.768859 0.548525 0.832968 0.163660
H36   H     H_    0.763952 0.523213 0.284269 0.123868
H37   H     H_    0.252299 0.048866 0.926088 0.165660
H38   H     H_    0.241140 0.963062 0.422440 0.172655
H39   H     H_    0.799542 0.597621 0.937992 0.057881
H40   H     H_    0.755283 0.461596 0.256471 0.083344
H41   H     H_    0.299081 0.097878 0.946526 0.051410
H42   H     H_    0.281805 0.910459 0.429777 0.050226
H43   H     H_    0.757082 0.557376 0.039364 0.151412
H44   H     H_    0.533627 0.826026 0.758146 0.100658
H45   H     H_    0.726251 0.489680 0.425077 0.174986
H46   H     H_    0.277482 0.068470 0.120307 0.129700
H47   H     H_    0.264863 0.938729 0.610856 0.134594
H48   H     H_    0.916657 0.422414 0.380142 0.087308
H49   H     H_    0.936423 0.588150 0.845477 0.115306
H50   H     H_    0.421781 0.919951 0.371207 0.094458
H51   H     H_    0.435101 0.087268 0.847837 0.113241
H52   H     H_    0.040623 0.323946 0.548436 -0.048026
H53   H     H_    0.019439 0.691408 0.981531 -0.034923
H54   H     H_    0.543181 0.827180 0.556944 -0.051928
H55   H     H_    0.548546 0.176178 0.177569 0.074662
H56   H     H_    0.519102 0.190154 0.981831 -0.039353
H57   H     H_    0.098167 0.263858 0.663303 0.064532
H58   H     H_    0.089292 0.749305 0.088328 0.089812
H59   H     H_    0.601900 0.766785 0.665748 0.067369
H60   H     H_    0.587848 0.249659 0.080675 0.094585
H61   H     H_    0.041233 0.238670 0.543648 0.157134
H62   H     H_    0.018813 0.773510 0.062595 0.159389
H63   H     H_    0.547077 0.742135 0.537208 0.152561
H64   H     H_    0.516997 0.272985 0.053152 0.153586
H65   H     H_    0.982233 0.218515 0.026954 0.171252
H66   H     H_    0.205379 0.402055 0.185291 -0.019388
H67   H     H_    0.903588 0.728147 0.597541 0.058893
H68   H     H_    0.487007 0.716831 0.020614 0.170398
H69   H     H_    0.404149 0.228948 0.603609 0.063774
H70   H     H_    0.146444 0.816143 0.659548 0.191954
H71   H     H_    0.138762 0.176845 0.187047 0.174455
H72   H     H_    0.666346 0.310176 0.617106 0.168098
H73   H     H_    0.637796 0.677667 0.190991 0.171486
H74   H     H_    0.793899 0.401950 0.926771 0.131740
H75   H     H_    0.786485 0.595138 0.447932 0.093729
H76   H     H_    0.288146 0.903897 0.936849 0.115335
H77   H     H_    0.202192 0.599238 0.677300 -0.012157
H78   H     H_    0.289552 0.096161 0.440180 0.121153
H79   H     H_    0.212837 0.596929 0.252845 0.094754
H80   H     H_    0.212689 0.403562 0.747032 0.110063
H81   H     H_    0.714026 0.096624 0.250401 0.094017
H82   H     H_    0.713907 0.904426 0.745507 0.111943
H83   H     H_    0.290338 0.622679 0.429862 0.060344
H84   H     H_    0.287120 0.378488 0.930366 0.080305
H85   H     H_    0.793368 0.122187 0.423259 0.062575
H86   H     H_    0.789590 0.879739 0.926388 0.083589
H87   H     H_    0.038833 0.238280 0.756019 0.163271
H88   H     H_    0.705254 0.901994 0.187810 -0.017080
H89   H     H_    0.046000 0.758325 0.256938 0.171189
H90   H     H_    0.542618 0.738305 0.748806 0.163510
H91   H     H_    0.544860 0.259993 0.249099 0.170350
H92   H     H_    0.846023 0.186260 0.545330 0.094067
H93   H     H_    0.847353 0.818365 0.041054 0.098966
H94   H     H_    0.344676 0.686096 0.549204 0.094841
H95   H     H_    0.344671 0.317101 0.045394 0.097811
H96   H     H_    0.955691 0.321585 0.977359 0.068429
H97   H     H_    0.989700 0.690662 0.720358 -0.123707
H98   H     H_    0.457246 0.819547 0.975303 0.066304
H99   H     H_    0.702003 0.099405 0.673510 -0.006746
H100  H     H_    0.490355 0.190445 0.721650 -0.128126
H101  H     H_    0.911538 0.242648 0.026592 0.081633
H102  H     H_    0.925820 0.678013 0.489892 0.135518
H103  H     H_    0.415462 0.739274 0.019338 0.086852
H104  H     H_    0.425157 0.179080 0.492721 0.134354
H105  H     H_    0.951026 0.245981 0.852904 0.159449
H106  H     H_    0.938936 0.735866 0.417927 0.189861
H107  H     H_    0.455401 0.744380 0.847273 0.159768
H108  H     H_    0.438829 0.236907 0.422286 0.185399
H109  H     H_    0.156915 0.470270 0.309936 -0.015394
H110  H     H_    0.227830 0.439867 0.032200 0.100027
H111  H     H_    0.152508 0.530820 0.809129 -0.064582
H112  H     H_    0.656343 0.970247 0.310034 -0.015801
H113  H     H_    0.652605 0.031313 0.808280 -0.065164
H114  H     H_    0.130306 0.455824 0.109554 0.046522
H115  H     H_    0.129652 0.544762 0.606380 0.041650
H116  H     H_    0.630067 0.955732 0.109611 0.046221
H117  H     H_    0.629360 0.044696 0.605496 0.041764
H118  H     H_    0.300937 0.458563 0.485350 0.337316
H119  H     H_    0.268406 0.618444 0.867746 0.259446
H120  H     H_    0.801030 0.959651 0.484772 0.337291
O1    O     O_2   0.885810 0.435270 0.885040 -0.463465
O2    O     O_3   0.036496 0.701024 0.515300 -0.593709
O3    O     O_3   0.539754 0.796745 0.008207 -0.628702
O4    O     O_3   0.536018 0.200589 0.514605 -0.586274
O5    O     O_3   0.066460 0.522600 0.056690 -0.463758
O6    O     O_3   0.066460 0.477400 0.556690 -0.477584
O7    O     O_3   0.566460 0.022600 0.056690 -0.463831
O8    O     O_3   0.566460 0.977400 0.556690 -0.477623
O9    O     O_3   0.933490 0.477290 0.133000 -0.476801
O10   O     O_3   0.933490 0.522710 0.633000 -0.469467
O11   O     O_3   0.433490 0.977290 0.133000 -0.478417
O12   O     O_2   0.885810 0.564730 0.385040 -0.496325
O13   O     O_3   0.433490 0.022710 0.633000 -0.485415
O14   O     O_3   0.980190 0.395350 0.639000 -0.490439
O15   O     O_3   0.980190 0.604650 0.139000 -0.463212
O16   O     O_3   0.480190 0.895350 0.639000 -0.488989
O17   O     O_3   0.480190 0.104650 0.139000 -0.462293
O18   O     O_2   0.893561 0.353722 0.772243 -0.473435
O19   O     O_2   0.886718 0.641855 0.237295 -0.466912
O20   O     O_2   0.394218 0.852990 0.770769 -0.473217
O21   O     O_2   0.386785 0.141664 0.239270 -0.466128
O22   O     O_3   0.823024 0.488646 0.040870 -0.635095
O23   O     O_2   0.385810 0.935270 0.885040 -0.483784
O24   O     O_3   0.821155 0.512919 0.566017 -0.619924
O25   O     O_3   0.322795 0.988546 0.049056 -0.623358
O26   O     O_3   0.319353 0.015187 0.557050 -0.618304
O27   O     O_3   0.962641 0.299231 0.625265 -0.553383
O28   O     O_3   0.966568 0.699692 0.170127 -0.545159
O29   O     O_3   0.465297 0.799301 0.625219 -0.552284
O30   O     O_3   0.465915 0.199778 0.169295 -0.543604
O31   O     O_2   0.113920 0.434910 0.804950 -0.480340
O32   O     O_2   0.113920 0.565090 0.304950 -0.477057
O33   O     O_2   0.613920 0.934910 0.804950 -0.479323
O34   O     O_2   0.385810 0.064730 0.385040 -0.483635
O35   O     O_2   0.613920 0.065090 0.304950 -0.475532
O36   O     O_3   0.019410 0.395290 0.051170 -0.406441
O37   O     O_3   0.019410 0.604710 0.551170 -0.446359
O38   O     O_3   0.519410 0.895290 0.051170 -0.409579
O39   O     O_3   0.519410 0.104710 0.551170 -0.446666
O40   O     O_2   0.112709 0.360221 0.943185 -0.486611
O41   O     O_2   0.111327 0.640067 0.446461 -0.453371
O42   O     O_2   0.613389 0.860830 0.944612 -0.486782
O43   O     O_2   0.610289 0.139597 0.443441 -0.452915
O44   O     O_2   0.310614 0.465666 0.204668 -0.550546
O45   O     O_3   0.179219 0.486303 0.639238 -0.589593
O46   O     O_R   0.264558 0.448344 0.427143 -0.758060
O47   O     O_2   0.282784 0.513663 0.797694 -0.517628
O48   O     O_R   0.285296 0.586879 0.889729 -0.715487
O49   O     O_2   0.810376 0.965666 0.203678 -0.551387
O50   O     O_R   0.764586 0.949230 0.427351 -0.757652
O51   O     O_2   0.782774 0.014148 0.795590 -0.517229
O52   O     O_R   0.785857 0.087727 0.884054 -0.716735
O53   O     O_3   0.853289 0.274673 0.618268 -0.702695
O54   O     O_3   0.868609 0.732583 0.099360 -0.699573
O55   O     O_3   0.356156 0.773869 0.617897 -0.699964
O56   O     O_3   0.179975 0.514683 0.136263 -0.631174
O57   O     O_3   0.366503 0.231376 0.102165 -0.699481
O58   O     O_2   0.717116 0.422157 0.752493 -0.594132
O59   O     O_R   0.722654 0.380306 0.526434 -0.771877
O60   O     O_2   0.684290 0.573090 0.406391 -0.609812
O61   O     O_R   0.664881 0.592419 0.149834 -0.748134
O62   O     O_2   0.193192 0.927351 0.863300 -0.596672
O63   O     O_R   0.162585 0.900451 0.622522 -0.749684
O64   O     O_2   0.194734 0.069567 0.379748 -0.598130
O65   O     O_R   0.166467 0.094326 0.134677 -0.746383
O66   O     O_3   0.048306 0.586966 0.849079 -0.723564
O67   O     O_3   0.679158 0.986371 0.639542 -0.589202
O68   O     O_3   0.051992 0.415048 0.336446 -0.694340
O69   O     O_3   0.548135 0.087174 0.850140 -0.722543
O70   O     O_3   0.551521 0.914486 0.338856 -0.694000
O71   O     O_2   0.192983 0.698096 0.512591 -0.644261
O72   O     O_R   0.131411 0.756999 0.470804 -0.743343
O73   O     O_2   0.111742 0.234611 0.015811 -0.607795
O74   O     O_R   0.179311 0.288446 0.979219 -0.757754
O75   O     O_2   0.696078 0.192678 0.507417 -0.649305
O76   O     O_R   0.632053 0.249435 0.457778 -0.737071
O77   O     O_2   0.616375 0.735166 0.011435 -0.608636
O78   O     O_3   0.679834 0.014542 0.136446 -0.631510
O79   O     O_R   0.682118 0.790881 0.981291 -0.757441
O80   O     O_2   0.973129 0.266956 0.303236 -0.611506
O81   O     O_R   0.972880 0.344447 0.263450 -0.783301
O82   O     O_2   0.047690 0.768114 0.770901 -0.652930
O83   O     O_R   0.972104 0.799562 0.636725 -0.758132
O84   O     O_2   0.471941 0.763623 0.298106 -0.607056
O85   O     O_R   0.475353 0.841216 0.264003 -0.781605
O86   O     O_2   0.552445 0.267485 0.762948 -0.643510
O87   O     O_R   0.472652 0.299161 0.651249 -0.762469
O88   O     O_3   0.037491 0.297319 0.007422 -0.626169
P1    P     P_3+3 0.880180 0.450420 0.058010 0.999646
P2    P     P_3+3 0.069046 0.649181 0.576501 1.015491
P3    P     P_3+3 0.569860 0.850578 0.070306 1.006838
P4    P     P_3+3 0.568962 0.148901 0.575519 1.018224
P5    P     P_3+3 0.931363 0.648919 0.111359 1.029760
P6    P     P_3+3 0.927284 0.352951 0.619952 1.033167
P7    P     P_3+3 0.430967 0.148708 0.112115 1.033830
P8    P     P_3+3 0.428520 0.852368 0.619322 1.026338
P9    P     P_3+3 0.880180 0.549580 0.558010 0.983750
P10   P     P_3+3 0.380180 0.950420 0.058010 0.998212
P11   P     P_3+3 0.380180 0.049580 0.558010 0.982448
P12   P     P_3+3 0.119600 0.450040 0.631910 1.015350
P13   P     P_3+3 0.119600 0.549960 0.131910 1.005599
P14   P     P_3+3 0.619600 0.950040 0.631910 1.016544
P15   P     P_3+3 0.619600 0.049960 0.131910 1.007540
P16   P     P_3+3 0.069341 0.350391 0.069776 1.008982

loop_
_geom_bond_atom_site_label_1
_geom_bond_atom_site_label_2
_ccdc_geom_bond_type
C95   C99   A    
O43   P4    D    
C36   H111  S    
C129  C133  A    
C138  C142  A    
C100  C153  A    
H3    O52   S    
C51   H42   S    
C111  H98   S    
C131  C135  A    
C44   H31   S    
C22   P5    S    
C59   C129  A    
C150  C154  A    
C134  C139  A    
C2    C125  A    
C78   C83   A    
C25   C29   A    
C96   C100  A    
C117  O70   S    
C13   C35   A    
C5    C9    A    
C63   O50   S    
C27   H49   S    
Ba2   P13   S    
C7    C11   A    
C50   H37   S    
C148  C152  A    
C127  C162  A    
O19   P5    D    
C130  C165  A    
C85   C102  A    
C43   H26   S    
O17   P7    S    
C4    H92   S    
C125  C141  A    
C54   H54   S    
C137  C141  A    
C35   H70   S    
C79   C84   A    
C45   H32   S    
Ba4   P15   S    
O32   P13   D    
C25   P7    S    
C24   C69   S    
C153  C164  A    
C46   C79   A    
C50   H46   S    
O1    P1    D    
C60   C130  A    
C47   H34   S    
O3    P3    S    
Ba2   O15   S    
C44   H27   S    
C105  C113  A    
C58   C128  A    
Ba1   O6    S    
C82   C86   A    
O67   P14   S    
C141  H75   S    
O35   P15   D    
C94   C98   A    
C151  C155  A    
C48   H43   S    
C78   C87   A    
Ba4   O11   S    
C69   O64   D    
C15   C19   A    
C132  C137  A    
Ba4   O17   S    
C101  C154  A    
Ba4   O34   S    
Ba3   O13   S    
H20   O79   S    
C17   O53   S    
O78   P15   S    
C55   H56   S    
Ba3   O7    S    
C157  H101  S    
C124  C146  A    
Ba3   O33   S    
Ba1   P1    S    
C126  C148  A    
O34   P11   D    
C74   C109  S    
C161  H69   S    
C144  C149  A    
C10   C164  A    
C110  H97   S    
C159  H67   S    
C26   H48   S    
C12   C21   A    
C114  C158  A    
Ba4   O39   S    
C92   H90   S    
C62   O47   D    
O21   P7    D    
C57   C80   A    
C75   O83   S    
C42   H24   S    
C43   C48   S    
C115  C119  A    
C34   C39   S    
C41   H13   S    
C53   C81   S    
C47   C51   S    
C80   C89   A    
C99   C126  A    
H10   O63   S    
C71   O73   D    
C45   O25   S    
C109  C157  S    
C40   H77   S    
C74   O81   S    
H16   O70   S    
O28   P5    S    
C37   C41   S    
Ba4   O8    S    
C168  H85   S    
O24   P9    S    
O41   P2    D    
C159  H102  S    
C133  C138  A    
C143  H78   S    
C118  C122  A    
C12   C17   A    
C160  H103  S    
C72   O76   S    
C18   O54   S    
C117  C121  A    
C102  C155  A    
C166  H83   S    
C96   C122  A    
C28   C32   A    
C40   H2    S    
C98   C124  A    
C64   O52   S    
O27   P6    S    
O37   P2    S    
O4    P4    S    
C155  C162  A    
C73   C90   S    
C32   C138  A    
O14   P6    S    
C34   H109  S    
C3    C152  A    
O9    P1    S    
C149  C166  A    
C14   C132  A    
C128  C132  A    
C77   O86   D    
C53   H53   S    
C145  H80   S    
C106  P16   S    
C161  H104  S    
C151  C168  A    
C88   C93   A    
O40   P16   D    
C49   H45   S    
C44   C49   S    
C26   C30   A    
C111  O3    S    
C57   C158  A    
Ba1   O36   S    
C152  C156  A    
C65   C158  S    
H8    O59   S    
C46   H71   S    
C6    C10   A    
C129  C164  A    
C51   H47   S    
C55   C103  S    
C43   H30   S    
Ba3   O23   S    
C143  C147  A    
C113  C118  A    
C76   O84   D    
C42   C64   S    
C119  C123  A    
C37   O78   S    
C4    C8    A    
H23   O85   S    
C11   C20   A    
C31   C137  A    
C13   C67   S    
C146  C151  A    
C55   O30   S    
C121  P14   S    
Ba1   O10   S    
Ba2   O5    S    
Ba3   Ba4   S    
C34   H114  S    
O45   P12   S    
Ba3   O38   S    
C6    H94   S    
C14   C18   A    
C35   C78   A    
C106  C115  A    
C41   C63   S    
Ba1   P12   S    
H5    O54   S    
C70   O72   S    
Ba1   O1    S    
C86   C104  A    
C108  C117  A    
O11   P10   S    
C61   O44   D    
C157  H105  S    
C123  C145  A    
C84   C101  A    
H7    O57   S    
C49   H40   S    
C73   O77   D    
C77   C112  S    
C97   C123  A    
C92   H63   S    
C150  C167  A    
C44   O24   S    
H22   O83   S    
C67   O62   D    
C63   O49   D    
H14   O68   S    
C87   C91   A    
C4    C168  A    
C36   C40   S    
C24   C147  A    
C161  H108  S    
C103  H64   S    
C48   H35   S    
C1    C52   S    
C14   C22   A    
C128  C163  A    
C37   H112  S    
C52   O27   S    
H12   O66   S    
Ba3   P14   S    
C2    C68   A    
C41   H88   S    
Ba1   O5    S    
C19   O55   S    
C157  H65   S    
O56   P13   S    
C142  H76   S    
H6    O55   S    
C1    H87   S    
C49   H36   S    
C53   O28   S    
O6    P12   S    
O39   P4    S    
C38   C42   S    
C92   H59   S    
C16   C134  A    
H21   O81   S    
C36   O45   S    
C65   O59   S    
O25   P10   S    
Ba3   O16   S    
C160  H107  S    
C56   C114  A    
C116  O69   S    
C55   H55   S    
C119  P12   S    
C120  C124  A    
O13   P11   S    
C38   H117  S    
C103  H60   S    
C43   O22   S    
H15   O69   S    
C30   P1    S    
O42   P3    D    
C56   C127  A    
O2    P2    S    
O18   P6    D    
C60   C147  A    
C62   O48   S    
C81   H62   S    
O16   P8    S    
C113  O66   S    
C136  C142  A    
H19   O76   S    
H17   O72   S    
C122  C144  A    
C91   C96   A    
C146  H81   S    
H120  O50   S    
C73   O79   S    
C29   C33   A    
C70   C87   S    
C145  C150  A    
C72   C89   S    
O12   P9    D    
O38   P3    S    
C76   C111  S    
C39   C61   S    
C38   O67   S    
C29   H51   S    
C110  O2    S    
Ba2   O32   S    
C91   C105  A    
C27   C31   A    
C112  C161  S    
C34   O56   S    
C7    C167  A    
O29   P8    S    
O30   P7    S    
C21   C26   A    
C2    C66   S    
C112  O4    S    
C144  H79   S    
C33   C139  A    
H9    O61   S    
C23   C28   A    
C81   H58   S    
C68   C82   A    
H119  O48   S    
C33   P11   S    
C6    C166  A    
C36   H115  S    
C114  C140  A    
H18   O74   S    
C52   H1    S    
C69   O65   S    
O31   P12   D    
C109  H96   S    
C51   H38   S    
C23   P8    S    
C47   O26   S    
C5    H93   S    
C21   P6    S    
C9    C18   A    
C76   O85   S    
Ba2   O9    S    
C149  C153  A    
Ba3   O8    S    
C38   H113  S    
O22   P1    S    
C83   C100  A    
O36   P16   S    
C7    H95   S    
C3    H86   S    
C112  H100  S    
C67   O63   S    
C60   C84   A    
C47   H29   S    
O26   P11   S    
C50   H41   S    
C66   O60   D    
C42   H99   S    
C140  H74   S    
C59   C136  A    
H11   O65   S    
C54   O29   S    
C40   C62   S    
O15   P5    S    
C56   C85   A    
C139  C143  A    
C79   C88   A    
C68   H73   S    
Ba2   O37   S    
Ba4   P11   S    
C127  C131  A    
C8    C162  A    
C9    C163  A    
C45   C50   S    
C53   H33   S    
C30   C135  A    
C11   C165  A    
Ba1   Ba2   S    
C156  C163  A    
C111  C160  S    
C54   C92   S    
C71   O74   S    
C82   C90   A    
C24   C46   A    
C121  C126  A    
C74   O80   D    
C16   C20   A    
C118  P13   S    
C32   P10   S    
C160  H68   S    
C48   H39   S    
C99   C104  A    
Ba4   O7    S    
C37   H116  S    
C15   C23   A    
O5    P13   S    
Ba3   P10   S    
C57   H72   S    
C22   C27   A    
C1    H61   S    
C20   O57   S    
C58   C125  A    
C61   O46   S    
C109  O88   S    
C115  O68   S    
Ba2   O6    S    
C72   O75   D    
Ba1   O31   S    
C16   C25   A    
C97   C101  A    
H25   O87   S    
C105  P2    S    
C107  P4    S    
C52   H52   S    
C64   O51   D    
C8    C17   A    
Ba4   O35   S    
C107  C116  A    
C10   C19   A    
C167  H84   S    
C39   H66   S    
C15   C133  A    
C39   H110  S    
C135  C140  A    
C120  P15   S    
C31   P9    S    
O7    P15   S    
O20   P8    D    
C71   C88   S    
C77   O87   S    
C1    H57   S    
C80   C85   A    
C75   O82   D    
O33   P14   D    
C3    C5    A    
C108  P3    S    
O8    P14   S    
C94   C107  A    
C59   C83   A    
C70   O71   D    
O88   P16   S    
C81   H89   S    
C130  C134  A    
C28   H50   S    
C154  C165  A    
C104  C156  A    
C159  H106  S    
Ba1   O14   S    
O23   P10   D    
C66   O61   S    
O10   P9    S    
C148  H82   S    
C93   C106  A    
C110  C159  S    
C90   C95   A    
C95   C108  A    
C58   C86   A    
C98   C102  A    
C13   C136  A    
H4    O53   S    
Ba2   P9    S    
C65   O58   D    
C75   C110  S    
C103  H91   S    
H118  O46   S    
Ba2   O12   S    
C12   C131  A    
C89   C94   A    
C93   C97   A    
C116  C120  A    
C45   H28   S    
C54   H44   S    
