data_mof_unit_23751.cif
_audit_creation_date              2012-12-11T17:37:43-0500
_audit_creation_method            fapswitch 2.2
_symmetry_space_group_name_H-M    P1
_symmetry_Int_Tables_number       1
_space_group_crystal_system       triclinic
_cell_length_a                    13.034076
_cell_length_b                    13.072318
_cell_length_c                    15.443122
_cell_angle_alpha                 117.711563
_cell_angle_beta                  63.534708
_cell_angle_gamma                 97.882588
_cell_volume                      2077.18519433

loop_
_atom_site_label
_atom_site_type_symbol
_atom_type_description
_atom_site_fract_x
_atom_site_fract_y
_atom_site_fract_z
_atom_type_partial_charge
C1    C     C_R   0.994063 0.830998 0.063997 -0.180151
C2    C     C_R   0.672495 0.556792 0.320699 0.041881
C3    C     C_R   0.662834 0.458175 0.925409 0.159915
C4    C     C_R   0.092084 0.788082 0.294607 0.074183
C5    C     C_R   0.338348 0.516240 0.950681 -0.117780
C6    C     C_R   0.966855 0.178222 0.780790 -0.136980
C7    C     C_R   0.206632 0.492664 0.690211 -0.134027
C8    C     C_R   0.051792 0.255007 0.086364 -0.108185
C9    C     C_R   0.948028 0.172453 0.995166 -0.098085
C10   C     C_R   0.301510 0.589946 0.789775 -0.148595
C11   C     C_R   0.259188 0.417479 0.047652 -0.154015
C12   C     C_R   0.679104 0.476961 0.219574 -0.126189
C13   C     C_R   0.048758 0.275305 0.683518 -0.113971
C14   C     C_R   0.361836 0.435547 0.975068 0.153888
C15   C     C_R   0.035971 0.163811 0.675704 0.062693
C16   C     C_R   0.302054 0.552442 0.690012 0.066235
C17   C     C_R   0.004881 0.151932 0.043928 -0.043129
C18   C     C_R   0.440262 0.886537 0.100345 -0.035394
C19   C     C_R   0.360443 0.880340 0.194944 -0.144436
C20   C     C_R   0.272794 0.970493 0.275738 0.102611
C21   C     C_R   0.266975 0.066933 0.260104 -0.160692
C22   C     C_R   0.347064 0.072775 0.165396 -0.126391
C23   C     C_R   0.755965 0.518227 0.892934 -0.160928
C24   C     C_R   0.433661 0.982715 0.085632 -0.067780
C25   C     C_R   0.163000 0.059991 0.477544 -0.212982
C26   C     C_R   0.087110 0.053968 0.574341 0.065176
C27   C     C_R   0.061314 0.942557 0.568554 0.028920
C28   C     C_R   0.095374 0.846589 0.467892 -0.226415
C29   C     C_R   0.137148 0.861166 0.374527 0.040604
C30   C     C_R   0.188917 0.963664 0.376323 0.046541
C31   C     C_R   0.028716 0.911626 0.725889 -0.160722
C32   C     C_R   0.954832 0.892810 0.814961 -0.164949
C33   C     C_R   0.838194 0.881379 0.838623 -0.114615
C34   C     C_R   0.026041 0.696288 0.297274 -0.144871
C35   C     C_R   0.795384 0.887841 0.772899 -0.130801
C36   C     C_R   0.868763 0.907133 0.684065 -0.171649
C37   C     C_R   0.985360 0.920749 0.661271 0.112339
C38   C     C_R   0.874955 0.397243 0.369352 -0.042345
C39   C     C_R   0.757199 0.419558 0.408457 -0.082572
C40   C     C_R   0.703884 0.531018 0.488572 0.093919
C41   C     C_R   0.764522 0.613704 0.540556 -0.185146
C42   C     C_R   0.882247 0.590562 0.501067 -0.135427
C43   C     C_R   0.938260 0.484637 0.411546 -0.150998
C44   C     C_R   0.499370 0.573892 0.595505 -0.240868
C45   C     C_R   0.676559 0.421183 0.989876 -0.120886
C46   C     C_R   0.389219 0.575014 0.603367 0.068352
C47   C     C_R   0.370077 0.582914 0.523034 0.022866
C48   C     C_R   0.464507 0.587166 0.434734 -0.243653
C49   C     C_R   0.575584 0.576508 0.423404 0.074180
C50   C     C_R   0.592384 0.566867 0.504044 0.021723
C51   C     C_R   0.240888 0.460480 0.445302 -0.180239
C52   C     C_R   0.130735 0.422653 0.466471 -0.163435
C53   C     C_R   0.035990 0.492889 0.560829 -0.110025
C54   C     C_R   0.049973 0.604354 0.629876 -0.133021
C55   C     C_R   0.160224 0.642336 0.609813 -0.132314
C56   C     C_R   0.103723 0.796370 0.204793 -0.132713
C57   C     C_R   0.256760 0.567374 0.520969 0.115590
C58   C     C_2   0.474906 0.394312 0.947295 -0.197731
C59   C     C_2   0.567923 0.437930 0.896646 -0.189778
C60   C     C_2   0.807812 0.947958 0.124370 0.577165
C61   C     C_2   0.802400 0.042893 0.214395 -0.063173
C62   C     C_R   0.783230 0.576638 0.309340 -0.101106
C63   C     C_R   0.892812 0.747110 0.968755 -0.057610
C64   C     C_R   0.900957 0.851082 0.050800 -0.095434
H1    H     H_    0.019763 0.886975 0.126590 0.109126
H2    H     H_    0.932348 0.115316 0.809286 0.131547
H3    H     H_    0.178970 0.452391 0.627558 0.135182
H4    H     H_    0.091330 0.274099 0.139954 0.079454
H5    H     H_    0.888616 0.116997 0.967430 0.121104
H6    H     H_    0.355873 0.650716 0.821828 0.091117
H7    H     H_    0.248778 0.364022 0.086684 0.092840
H8    H     H_    0.090891 0.297824 0.617811 0.095192
H9    H     H_    0.495628 0.987413 0.012401 0.098637
H10   H     H_    0.507390 0.816840 0.038522 0.117362
H11   H     H_    0.367028 0.805399 0.205291 0.119832
H12   H     H_    0.608801 0.440198 0.199042 0.098393
H13   H     H_    0.199669 0.136728 0.320407 0.112783
H14   H     H_    0.341823 0.147101 0.153782 0.102961
H15   H     H_    0.199416 0.140082 0.479735 0.123009
H16   H     H_    0.071964 0.763159 0.465337 0.122330
H17   H     H_    0.118549 0.921836 0.708760 0.120962
H18   H     H_    0.988247 0.888233 0.865838 0.133337
H19   H     H_    0.780467 0.867776 0.907774 0.171787
H20   H     H_    0.705276 0.878482 0.791150 0.107675
H21   H     H_    0.834869 0.912580 0.633641 0.125670
H22   H     H_    0.030828 0.470418 0.374183 0.124019
H23   H     H_    0.778618 0.546392 0.831391 0.091298
H24   H     H_    0.918024 0.314628 0.302613 0.122992
H25   H     H_    0.710282 0.354403 0.369237 0.121725
H26   H     H_    0.723454 0.699220 0.603694 0.119907
H27   H     H_    0.930877 0.656854 0.536155 0.138851
H28   H     H_    0.514817 0.562755 0.654265 0.130009
H29   H     H_    0.451958 0.589931 0.370950 0.132304
H30   H     H_    0.314282 0.401269 0.376681 0.121032
H31   H     H_    0.119075 0.337381 0.411907 0.125031
H32   H     H_    0.951368 0.461389 0.579809 0.141276
H33   H     H_    0.975996 0.657814 0.702286 0.131081
H34   H     H_    0.012690 0.654126 0.346212 0.104413
H35   H     H_    0.171492 0.723482 0.669848 0.113426
H36   H     H_    0.477650 0.348030 0.989104 0.121820
H37   H     H_    0.566284 0.480686 0.851609 0.126364
H38   H     H_    0.629320 0.358988 0.017062 0.083247
H39   H     H_    0.158998 0.849789 0.170081 0.109915
H40   H     H_    0.809323 0.638865 0.370174 0.125786
H41   H     H_    0.824287 0.728978 0.944086 0.126017
H42   H     H_    0.397406 0.554103 0.900348 0.087801
N1    N     N_R   0.037320 0.720000 0.995830 -0.030340
N2    N     N_R   0.946240 0.290870 0.848020 -0.044432
N3    N     N_R   0.146160 0.501170 0.788610 -0.041971
N4    N     N_R   0.025750 0.332680 0.063570 -0.036767
N5    N     N_R   0.962680 0.280000 0.004170 -0.043086
N6    N     N_R   0.209230 0.553860 0.848010 -0.037332
N7    N     N_R   0.175100 0.482030 0.063570 -0.041506
N8    N     N_R   0.996810 0.351820 0.788610 -0.040795
N9    N     N_R   0.790770 0.446140 0.151990 -0.043635
N10   N     N_R   0.824900 0.517970 0.936430 -0.041915
N11   N     N_R   0.003190 0.648180 0.211390 -0.040478
N12   N     N_R   0.774330 0.457010 0.995830 -0.042091
N13   N     N_R   0.053760 0.709130 0.151980 -0.039604
N14   N     N_R   0.853840 0.498830 0.211390 -0.045384
N15   N     N_R   0.974250 0.667320 0.936430 -0.047474
N16   N     N_R   0.225670 0.542990 0.004170 -0.046075
Ni1   Ni    Ni4+2 0.130310 0.630310 0.000000 0.213084
Ni2   Ni    Ni4+2 0.869690 0.369690 0.000000 0.217826
Ni3   Ni    Ni4+2 0.985660 0.509480 0.863750 0.216185
Ni4   Ni    Ni4+2 0.014340 0.490520 0.136250 0.212440
F1    F     F_    0.712485 0.933828 0.106663 -0.715161
C65   C     C_2   0.892801 0.082950 0.252151 0.384532
H43   H     H_    0.982717 0.069905 0.195375 -0.000200
O1    O     O_2   0.865838 0.137014 0.349341 -0.561011

loop_
_geom_bond_atom_site_label_1
_geom_bond_atom_site_label_2
_ccdc_geom_bond_type
C45   N12   A    
C9    N5    A    
C41   C42   A    
C3    C23   A    
C35   C36   A    
N1    Ni1   S    
C2    C12   A    
C65   H43   S    
C20   C30   S    
C53   C54   A    
C26   C27   A    
C18   C24   A    
C28   C29   A    
C9    H5    S    
C18   C19   A    
N11   N13   A    
C38   C39   A    
C11   C14   A    
C11   H7    S    
C24   H9    S    
C44   C50   A    
C52   H31   S    
C42   H27   S    
N2    N8    A    
C49   C50   A    
N4    N5    A    
C33   C35   A    
C6    C15   A    
C46   C47   A    
N7    N16   A    
C19   C20   A    
C1    H1    S    
C54   H33   S    
C10   N6    A    
C51   C57   A    
C63   H41   S    
N11   Ni4   S    
C62   N14   A    
C13   N8    A    
C44   H28   S    
C12   N9    A    
C34   N11   A    
C41   H26   S    
C23   N10   A    
C18   H10   S    
C23   H23   S    
C21   C22   A    
C4    C56   A    
C53   H32   S    
N2    Ni2   S    
C28   H16   S    
C63   N15   A    
C44   C46   A    
C62   H40   S    
C5    H42   S    
C60   F1    S    
C14   C58   S    
C4    C34   A    
C48   H29   S    
C51   C52   A    
C59   H37   S    
C58   H36   S    
C22   H14   S    
N6    Ni1   S    
N3    N6    A    
C16   C46   S    
C39   C40   A    
N8    Ni3   S    
C15   C26   S    
N7    Ni4   S    
C58   C59   D    
C5    N16   A    
C3    C45   A    
C7    N3    A    
C38   H24   S    
C60   C61   D    
N15   Ni3   S    
C29   C30   A    
C2    C49   S    
C8    N4    A    
C47   C57   S    
C47   C48   A    
C48   C49   A    
N12   Ni2   S    
C33   H19   S    
C5    C14   A    
C1    N1    A    
C10   H6    S    
N3    Ni3   S    
C40   C41   A    
N4    Ni4   S    
C8    H4    S    
N10   Ni3   S    
C55   C57   A    
C12   H12   S    
C56   N13   A    
C22   C24   A    
C42   C43   A    
N1    N15   A    
C21   H13   S    
C1    C64   A    
C52   C53   A    
C9    C17   A    
C25   C30   A    
C54   C55   A    
C36   C37   A    
N9    Ni2   S    
N5    Ni2   S    
C25   H15   S    
C43   H22   S    
C31   C32   A    
C7    C16   A    
C4    C29   S    
C56   H39   S    
C65   O1    D    
C35   H20   S    
C13   H8    S    
N13   Ni1   S    
C36   H21   S    
C32   H18   S    
C8    C17   A    
C31   H17   S    
C60   C64   S    
C32   C33   A    
C13   C15   A    
C25   C26   A    
C38   C43   A    
C10   C16   A    
C27   C37   S    
C40   C50   S    
C19   H11   S    
C34   H34   S    
N10   N12   A    
C61   C65   S    
N14   Ni4   S    
C11   N7    A    
C45   H38   S    
C51   H30   S    
C7    H3    S    
C63   C64   A    
C31   C37   A    
C6    H2    S    
C20   C21   A    
N9    N14   A    
C55   H35   S    
C27   C28   A    
C6    N2    A    
N16   Ni1   S    
C39   H25   S    
C2    C62   A    
C3    C59   S    
