data_mof_unit_55514.cif
_audit_creation_date              2012-12-11T15:08:37-0500
_audit_creation_method            fapswitch 2.2
_symmetry_space_group_name_H-M    P1
_symmetry_Int_Tables_number       1
_space_group_crystal_system       triclinic
_cell_length_a                    26.006312
_cell_length_b                    27.534032
_cell_length_c                    8.391085
_cell_angle_alpha                 89.999977
_cell_angle_beta                  96.018969
_cell_angle_gamma                 90.005415
_cell_volume                      5975.38527537

loop_
_atom_site_label
_atom_site_type_symbol
_atom_type_description
_atom_site_fract_x
_atom_site_fract_y
_atom_site_fract_z
_atom_type_partial_charge
Ba1   Ba    Ba6+2 0.999910 0.465960 0.844870 1.624188
Ba2   Ba    Ba6+2 0.999910 0.534040 0.344870 1.624148
Ba3   Ba    Ba6+2 0.499910 0.965960 0.844870 1.624170
Ba4   Ba    Ba6+2 0.499910 0.034040 0.344870 1.624140
C1    C     C_3   0.041717 0.241213 0.683286 -0.356012
C2    C     C_3   0.042366 0.758532 0.177951 -0.355675
C3    C     C_3   0.541749 0.741250 0.683310 -0.355880
C4    C     C_3   0.542368 0.258530 0.177955 -0.355677
C5    C     C_R   0.884999 0.390834 0.150728 0.067217
C6    C     C_R   0.885063 0.609199 0.650698 0.066667
C7    C     C_R   0.384993 0.890838 0.150731 0.067238
C8    C     C_R   0.385065 0.109199 0.650699 0.066683
C9    C     C_R   0.845113 0.358076 0.099480 -0.125599
C10   C     C_R   0.845244 0.642000 0.599286 -0.126288
C11   C     C_R   0.345105 0.858081 0.099483 -0.125579
C12   C     C_R   0.345245 0.142000 0.599288 -0.126290
C13   C     C_R   0.834175 0.317874 0.195622 -0.008216
C14   C     C_R   0.834176 0.682132 0.695603 -0.008240
C15   C     C_R   0.334161 0.817884 0.195636 -0.008251
C16   C     C_R   0.334172 0.182129 0.695613 -0.008242
C17   C     C_R   0.863345 0.312155 0.346359 -0.134402
C18   C     C_R   0.863313 0.687798 0.846491 -0.134325
C19   C     C_R   0.363325 0.812170 0.346384 -0.134399
C20   C     C_R   0.363309 0.187793 0.846504 -0.134323
C21   C     C_R   0.902577 0.345438 0.398106 0.009746
C22   C     C_R   0.902592 0.654562 0.898204 0.009269
C23   C     C_R   0.402557 0.845453 0.398129 0.009862
C24   C     C_R   0.402590 0.154560 0.898211 0.009277
C25   C     C_R   0.795407 0.233519 0.168937 -0.084945
C26   C     C_R   0.795171 0.766344 0.671131 -0.084626
C27   C     C_R   0.295396 0.733529 0.168960 -0.084942
C28   C     C_R   0.295152 0.266336 0.671237 -0.084625
C29   C     C_R   0.254412 0.701877 0.120579 -0.107110
C30   C     C_R   0.254325 0.298035 0.622722 -0.106788
C31   C     C_R   0.754421 0.201869 0.120558 -0.107115
C32   C     C_R   0.754342 0.798043 0.622625 -0.106805
C33   C     C_R   0.206944 0.719207 0.045113 0.028882
C34   C     C_R   0.206985 0.280857 0.546131 0.030542
C35   C     C_R   0.706952 0.219202 0.045106 0.028882
C36   C     C_R   0.706988 0.780861 0.546169 0.030525
C37   C     C_R   0.201614 0.770306 0.019088 0.202718
C38   C     C_R   0.201041 0.229797 0.520188 0.207203
C39   C     C_R   0.701624 0.270301 0.019092 0.202720
C40   C     C_R   0.701027 0.729799 0.520363 0.207266
C41   C     C_R   0.743338 0.301541 0.069275 -0.071084
C42   C     C_R   0.743370 0.698517 0.567831 -0.074586
C43   C     C_R   0.243327 0.801548 0.069272 -0.071082
C44   C     C_R   0.243379 0.198515 0.567718 -0.074573
C45   C     C_3   0.985521 0.289260 0.110502 0.344826
C46   C     C_3   0.985344 0.710757 0.607526 0.343711
C47   C     C_3   0.485536 0.789258 0.110624 0.344777
C48   C     C_3   0.485343 0.210755 0.607535 0.343700
C49   C     C_R   0.790585 0.283775 0.143153 0.026067
C50   C     C_R   0.790471 0.716211 0.643428 0.029596
C51   C     C_R   0.290573 0.783783 0.143164 0.026070
C52   C     C_R   0.290467 0.216206 0.643437 0.029602
C53   C     C_R   0.137904 0.686265 0.836912 -0.140305
C54   C     C_R   0.138050 0.313714 0.337126 -0.137538
C55   C     C_R   0.637908 0.186263 0.836911 -0.140302
C56   C     C_R   0.638045 0.813705 0.337172 -0.137486
C57   C     C_R   0.098302 0.653347 0.787565 0.013551
C58   C     C_R   0.098477 0.346683 0.287560 0.010612
C59   C     C_R   0.598304 0.153346 0.787566 0.013553
C60   C     C_R   0.598478 0.846680 0.287587 0.010674
C61   C     C_R   0.114542 0.609818 0.038553 0.065133
C62   C     C_R   0.114678 0.390278 0.538440 0.065618
C63   C     C_R   0.614544 0.109817 0.038553 0.065123
C64   C     C_R   0.614681 0.890279 0.538455 0.065661
C65   C     C_R   0.153499 0.643656 0.090619 -0.129792
C66   C     C_R   0.153725 0.356575 0.590528 -0.130440
C67   C     C_R   0.653504 0.143653 0.090616 -0.129786
C68   C     C_R   0.653731 0.856579 0.590547 -0.130456
C69   C     C_R   0.164835 0.683242 0.991741 -0.017886
C70   C     C_R   0.165120 0.316985 0.491852 -0.019148
C71   C     C_R   0.664841 0.183239 0.991737 -0.017886
C72   C     C_R   0.665121 0.816986 0.491887 -0.019189
C73   C     C_R   0.085720 0.616463 0.890454 -0.284046
C74   C     C_R   0.085898 0.383597 0.390325 -0.283738
C75   C     C_R   0.585722 0.116463 0.890456 -0.284046
C76   C     C_R   0.585901 0.883596 0.390342 -0.283683
C77   C     C_3   0.961461 0.238920 0.099079 -0.372420
C78   C     C_3   0.961289 0.761085 0.594909 -0.372945
C79   C     C_3   0.461512 0.738902 0.099486 -0.372235
C80   C     C_3   0.461286 0.261083 0.594928 -0.372944
C81   C     C_3   0.148260 0.469733 0.223742 0.314088
C82   C     C_3   0.148160 0.530319 0.723821 0.314280
C83   C     C_3   0.648253 0.969731 0.223733 0.314099
C84   C     C_3   0.648162 0.030319 0.723812 0.314298
C85   C     C_3   0.197497 0.439560 0.245803 -0.394846
C86   C     C_3   0.197392 0.560500 0.746375 -0.395265
C87   C     C_3   0.697511 0.939587 0.246102 -0.394865
C88   C     C_3   0.697392 0.060503 0.746339 -0.395279
C89   C     C_3   0.852262 0.531282 0.968116 0.314728
C90   C     C_3   0.852245 0.468701 0.468361 0.314611
C91   C     C_3   0.352262 0.031283 0.968115 0.314719
C92   C     C_3   0.352235 0.968706 0.468348 0.314606
C93   C     C_3   0.803553 0.562258 0.950585 -0.393317
C94   C     C_3   0.803579 0.437653 0.451564 -0.393186
C95   C     C_3   0.303553 0.062257 0.950576 -0.393325
C96   C     C_3   0.303567 0.937663 0.451562 -0.393200
C97   C     C_3   0.017107 0.290300 0.641352 0.346499
C98   C     C_3   0.017419 0.709468 0.138222 0.344545
C99   C     C_3   0.517129 0.790343 0.641550 0.346493
C100  C     C_3   0.517420 0.209466 0.138228 0.344540
C101  C     C_R   0.914509 0.383192 0.297273 -0.290384
C102  C     C_R   0.914536 0.616821 0.797331 -0.289786
C103  C     C_R   0.414496 0.883201 0.297286 -0.290421
C104  C     C_R   0.414537 0.116820 0.797334 -0.289797
H1    H     H_    0.035560 0.317469 0.726662 0.109457
H2    H     H_    0.036262 0.682406 0.223200 0.108440
H3    H     H_    0.535506 0.817474 0.727159 0.109697
H4    H     H_    0.536259 0.182405 0.223214 0.108449
H5    H     H_    0.226356 0.457390 0.333832 0.125665
H6    H     H_    0.226172 0.542667 0.834631 0.125752
H7    H     H_    0.726293 0.957418 0.334395 0.125672
H8    H     H_    0.726179 0.042671 0.834582 0.125739
H9    H     H_    0.189323 0.402871 0.290458 0.066263
H10   H     H_    0.189174 0.597184 0.790975 0.066201
H11   H     H_    0.689321 0.902880 0.290581 0.066260
H12   H     H_    0.689176 0.097186 0.790944 0.066207
H13   H     H_    0.213962 0.435845 0.129504 0.124460
H14   H     H_    0.213977 0.564230 0.630274 0.124333
H15   H     H_    0.714084 0.935912 0.129948 0.124459
H16   H     H_    0.713971 0.064233 0.630227 0.124332
H17   H     H_    0.867064 0.527909 0.849847 0.011163
H18   H     H_    0.866908 0.472024 0.349872 0.011012
H19   H     H_    0.367067 0.027910 0.849851 0.011179
H20   H     H_    0.366892 0.972032 0.349850 0.011036
H21   H     H_    0.881503 0.549238 0.054628 0.065053
H22   H     H_    0.881590 0.450823 0.554713 0.065475
H23   H     H_    0.381502 0.049239 0.054634 0.065053
H24   H     H_    0.381583 0.950824 0.554681 0.065415
H25   H     H_    0.774020 0.545437 0.862320 0.121355
H26   H     H_    0.773923 0.454398 0.363534 0.122376
H27   H     H_    0.274022 0.045436 0.862303 0.121364
H28   H     H_    0.273906 0.954416 0.363568 0.122386
H29   H     H_    0.812196 0.599140 0.908546 0.066471
H30   H     H_    0.812224 0.400764 0.409585 0.066469
H31   H     H_    0.312196 0.099140 0.908543 0.066477
H32   H     H_    0.312203 0.900776 0.409544 0.066454
H33   H     H_    0.787708 0.565401 0.068044 0.125507
H34   H     H_    0.787891 0.434538 0.569278 0.124526
H35   H     H_    0.287705 0.065398 0.068031 0.125492
H36   H     H_    0.287888 0.934540 0.569289 0.124516
H37   H     H_    0.024598 0.300088 0.517302 -0.054981
H38   H     H_    0.024181 0.699479 0.013738 -0.055426
H39   H     H_    0.524706 0.800220 0.517637 -0.054868
H40   H     H_    0.524185 0.199474 0.013748 -0.055415
H41   H     H_    0.031173 0.214891 0.584851 0.094026
H42   H     H_    0.030612 0.784931 0.080848 0.099600
H43   H     H_    0.531376 0.715009 0.584423 0.093814
H44   H     H_    0.530616 0.284928 0.080850 0.099604
H45   H     H_    0.084405 0.245158 0.702236 0.079575
H46   H     H_    0.085062 0.754632 0.191546 0.081451
H47   H     H_    0.584442 0.745246 0.702907 0.079845
H48   H     H_    0.585064 0.254628 0.191554 0.081452
H49   H     H_    0.924288 0.239278 0.153129 0.071818
H50   H     H_    0.923730 0.760692 0.646780 0.072691
H51   H     H_    0.424284 0.739296 0.153249 0.071834
H52   H     H_    0.423719 0.260684 0.646756 0.072707
H53   H     H_    0.175299 0.638661 0.206593 0.087362
H54   H     H_    0.175460 0.361615 0.706584 0.087533
H55   H     H_    0.675305 0.138658 0.206588 0.087358
H56   H     H_    0.675470 0.861624 0.706592 0.087545
H57   H     H_    0.260289 0.663306 0.140016 0.072788
H58   H     H_    0.260258 0.336575 0.642710 0.072865
H59   H     H_    0.760297 0.163298 0.139986 0.072786
H60   H     H_    0.760284 0.836585 0.642523 0.072879
H61   H     H_    0.831311 0.218471 0.224902 0.070208
H62   H     H_    0.830991 0.781313 0.728006 0.070091
H63   H     H_    0.331299 0.718482 0.224938 0.070221
H64   H     H_    0.330962 0.281305 0.728199 0.070088
H65   H     H_    0.822332 0.364344 0.985808 0.081242
H66   H     H_    0.822616 0.635777 0.485341 0.083058
H67   H     H_    0.322327 0.864347 0.985802 0.081242
H68   H     H_    0.322622 0.135778 0.485335 0.083051
H69   H     H_    0.738195 0.340382 0.055624 0.067659
H70   H     H_    0.739662 0.659760 0.550708 0.059099
H71   H     H_    0.238184 0.840388 0.055610 0.067659
H72   H     H_    0.239680 0.159760 0.550535 0.059097
H73   H     H_    0.148114 0.713634 0.753472 0.086812
H74   H     H_    0.148017 0.285950 0.254331 0.102684
H75   H     H_    0.648117 0.213633 0.753470 0.086811
H76   H     H_    0.648002 0.785929 0.254406 0.102653
H77   H     H_    0.854221 0.283216 0.426103 0.080227
H78   H     H_    0.854137 0.716663 0.926425 0.080633
H79   H     H_    0.354200 0.783232 0.426130 0.080259
H80   H     H_    0.354129 0.216655 0.926446 0.080627
H81   H     H_    0.055746 0.590683 0.850020 0.066248
H82   H     H_    0.055896 0.409341 0.349864 0.066073
H83   H     H_    0.555746 0.090685 0.850024 0.066246
H84   H     H_    0.555900 0.909341 0.349873 0.066057
H85   H     H_    0.028302 0.226919 0.795527 0.157416
H86   H     H_    0.030431 0.772627 0.292376 0.155679
H87   H     H_    0.528160 0.726815 0.795191 0.157238
H88   H     H_    0.530433 0.272626 0.292378 0.155677
H89   H     H_    0.944460 0.408903 0.338502 0.068023
H90   H     H_    0.944478 0.591108 0.838570 0.067957
H91   H     H_    0.444450 0.908910 0.338512 0.068031
H92   H     H_    0.444480 0.091108 0.838572 0.067962
H93   H     H_    0.958381 0.314818 0.042153 0.071409
H94   H     H_    0.958446 0.685158 0.538406 0.073936
H95   H     H_    0.458376 0.814773 0.042181 0.071366
H96   H     H_    0.458446 0.185157 0.538410 0.073939
H97   H     H_    0.990721 0.299906 0.239120 -0.055014
H98   H     H_    0.990063 0.700174 0.736206 -0.054712
H99   H     H_    0.490740 0.799959 0.239188 -0.054988
H100  H     H_    0.490062 0.200170 0.736212 -0.054705
H101  H     H_    0.953914 0.227766 0.971601 0.135308
H102  H     H_    0.954483 0.772268 0.467260 0.137301
H103  H     H_    0.454072 0.727633 0.972073 0.135167
H104  H     H_    0.454494 0.272274 0.467286 0.137304
H105  H     H_    0.987898 0.212269 0.164523 0.113921
H106  H     H_    0.987398 0.787737 0.661753 0.112055
H107  H     H_    0.487927 0.712314 0.165383 0.113826
H108  H     H_    0.487387 0.287730 0.661817 0.112046
H109  H     H_    0.132632 0.473323 0.340748 0.015116
H110  H     H_    0.132410 0.526716 0.840633 0.015167
H111  H     H_    0.632546 0.973318 0.340632 0.015088
H112  H     H_    0.632417 0.026717 0.840633 0.015135
H113  H     H_    0.119825 0.451039 0.136489 0.059673
H114  H     H_    0.119799 0.549015 0.636357 0.060008
H115  H     H_    0.619874 0.951018 0.136336 0.059718
H116  H     H_    0.619796 0.049013 0.636353 0.060018
O1    O     O_2   0.898940 0.431940 0.867860 -0.457476
O2    O     O_2   0.898940 0.568060 0.367860 -0.457623
O3    O     O_2   0.398940 0.931940 0.867860 -0.457489
O4    O     O_2   0.398940 0.068060 0.367860 -0.457635
O5    O     O_3   0.160646 0.484559 0.667144 -0.635323
O6    O     O_3   0.160686 0.515504 0.167006 -0.635376
O7    O     O_3   0.660647 0.984559 0.667141 -0.635324
O8    O     O_3   0.660686 0.015504 0.167032 -0.635371
O9    O     O_3   0.033062 0.288322 0.044658 -0.603329
O10   O     O_3   0.033191 0.711686 0.543552 -0.605317
O11   O     O_3   0.533066 0.788320 0.044723 -0.603358
O12   O     O_3   0.533190 0.211686 0.543563 -0.605317
O13   O     O_3   0.058810 0.523750 0.066650 -0.493179
O14   O     O_3   0.058810 0.476250 0.566650 -0.493136
O15   O     O_3   0.558810 0.023750 0.066650 -0.493185
O16   O     O_3   0.558810 0.976250 0.566650 -0.493129
O17   O     O_3   0.941140 0.476130 0.123050 -0.493339
O18   O     O_3   0.941140 0.523870 0.623050 -0.493335
O19   O     O_3   0.441140 0.976130 0.123050 -0.493335
O20   O     O_3   0.441140 0.023870 0.623050 -0.493326
O21   O     O_3   0.982430 0.389880 0.635700 -0.495794
O22   O     O_3   0.982430 0.610120 0.135700 -0.495349
O23   O     O_3   0.482430 0.889880 0.635700 -0.495854
O24   O     O_3   0.482430 0.110120 0.135700 -0.495352
O25   O     O_2   0.896052 0.351207 0.726217 -0.478156
O26   O     O_2   0.896288 0.649020 0.226820 -0.478080
O27   O     O_2   0.396066 0.851185 0.726284 -0.478180
O28   O     O_2   0.396290 0.149022 0.226830 -0.478085
O29   O     O_3   0.839391 0.485441 0.023209 -0.636538
O30   O     O_3   0.839377 0.514566 0.523256 -0.636829
O31   O     O_3   0.339392 0.985442 0.023205 -0.636543
O32   O     O_3   0.339374 0.014569 0.523266 -0.636831
O33   O     O_3   0.963811 0.287518 0.654868 -0.601536
O34   O     O_3   0.964307 0.712403 0.154568 -0.600830
O35   O     O_3   0.463811 0.787510 0.654690 -0.601604
O36   O     O_3   0.464307 0.212403 0.154558 -0.600833
O37   O     O_2   0.100770 0.431440 0.821660 -0.460249
O38   O     O_2   0.100770 0.568560 0.321660 -0.459963
O39   O     O_2   0.600770 0.931440 0.821660 -0.460283
O40   O     O_2   0.600770 0.068560 0.321660 -0.459947
O41   O     O_3   0.017130 0.389790 0.053700 -0.487191
O42   O     O_3   0.017130 0.610210 0.553700 -0.486928
O43   O     O_3   0.517130 0.889790 0.053700 -0.487200
O44   O     O_3   0.517130 0.110210 0.553700 -0.486930
O45   O     O_2   0.101677 0.349113 0.955741 -0.492908
O46   O     O_2   0.101794 0.650705 0.455995 -0.492760
O47   O     O_2   0.601684 0.849108 0.955774 -0.493019
O48   O     O_2   0.601793 0.150707 0.455993 -0.492764
P1    P     P_3+3 0.893960 0.447890 0.040050 0.985381
P2    P     P_3+3 0.893960 0.552110 0.540050 0.985058
P3    P     P_3+3 0.393960 0.947890 0.040050 0.985382
P4    P     P_3+3 0.393960 0.052110 0.540050 0.985059
P5    P     P_3+3 0.105800 0.447360 0.649510 0.982157
P6    P     P_3+3 0.105800 0.552640 0.149510 0.982204
P7    P     P_3+3 0.605800 0.947360 0.649510 0.982147
P8    P     P_3+3 0.605800 0.052640 0.149510 0.982210
P9    P     P_3+3 0.063826 0.344098 0.085256 0.937308
P10   P     P_3+3 0.063818 0.655895 0.585061 0.935155
P11   P     P_3+3 0.563830 0.844100 0.085282 0.937169
P12   P     P_3+3 0.563818 0.155895 0.585063 0.935149
P13   P     P_3+3 0.935834 0.656153 0.103370 0.942422
P14   P     P_3+3 0.935732 0.343903 0.603294 0.941429
P15   P     P_3+3 0.435834 0.156152 0.103373 0.942422
P16   P     P_3+3 0.435727 0.843906 0.603289 0.941410
N1    N     N_2   0.153809 0.791526 0.954440 -0.434951
H117  H     H_    0.121247 0.770413 0.955479 0.194210
C105  C     C_3   0.155211 0.819401 0.808549 -0.239908
H118  H     H_    0.115778 0.832868 0.767545 0.112103
H119  H     H_    0.168875 0.796473 0.712583 0.107469
H120  H     H_    0.180970 0.851395 0.829325 0.112032
N2    N     N_2   0.152676 0.210672 0.448351 -0.433061
H121  H     H_    0.120326 0.230436 0.467711 0.193189
C106  C     C_3   0.143655 0.158730 0.442953 -0.246444
H122  H     H_    0.103976 0.151323 0.385461 0.108174
H123  H     H_    0.147115 0.143513 0.566343 0.106911
H124  H     H_    0.171183 0.140657 0.369345 0.117671
N3    N     N_2   0.653818 0.291523 0.954457 -0.434951
H125  H     H_    0.621256 0.270411 0.955501 0.194211
C107  C     C_3   0.655217 0.319400 0.808570 -0.239906
H126  H     H_    0.615785 0.332870 0.767578 0.112107
H127  H     H_    0.668877 0.296473 0.712595 0.107468
H128  H     H_    0.680979 0.351392 0.829344 0.112034
N4    N     N_2   0.652636 0.710671 0.448763 -0.433030
H129  H     H_    0.620302 0.730475 0.468084 0.193157
C108  C     C_3   0.643597 0.658740 0.443878 -0.246562
H130  H     H_    0.603879 0.651340 0.386826 0.108214
H131  H     H_    0.647175 0.643603 0.567369 0.106927
H132  H     H_    0.671034 0.640587 0.370152 0.117692

loop_
_geom_bond_atom_site_label_1
_geom_bond_atom_site_label_2
_ccdc_geom_bond_type
C56   H76   S    
C77   H101  S    
C83   C87   S    
C105  H118  S    
O14   P5    S    
O30   P2    S    
C21   C101  A    
C107  H127  S    
N3    H125  S    
C9    H65   S    
C48   O12   S    
C67   H55   S    
C94   H30   S    
C95   H35   S    
C90   O30   S    
C91   C95   S    
Ba1   O1    S    
C32   H60   S    
C1    H41   S    
C47   O11   S    
C21   P14   S    
C48   C80   S    
C5    C9    A    
C23   P16   S    
C7    C11   A    
C24   P15   S    
C8    C12   A    
C97   O33   S    
C66   C70   A    
Ba4   O19   S    
C101  H89   S    
C28   H64   S    
C75   H83   S    
C76   H84   S    
O45   P9    D    
C66   H54   S    
C40   C42   A    
C46   H94   S    
C85   H5    S    
C61   C73   A    
O41   P9    S    
C63   C75   A    
C96   H36   S    
C8    C104  A    
C56   C72   A    
C13   C17   A    
C36   C72   S    
C28   C30   A    
C15   C19   A    
Ba1   P5    S    
Ba2   P2    S    
Ba3   P7    S    
C107  H126  S    
C12   C16   A    
O15   P8    S    
O16   P7    S    
C4    C100  S    
Ba4   P8    S    
C47   C79   S    
C2    H86   S    
Ba2   O2    S    
C82   O5    S    
O1    P1    D    
C53   C57   A    
C26   C32   A    
C25   C31   A    
C55   C59   A    
C20   H80   S    
C56   C60   A    
O8    P8    S    
Ba1   O21   S    
Ba2   O38   S    
O4    P4    D    
O5    P5    S    
O33   P14   S    
Ba4   O15   S    
C2    C98   S    
O35   P16   S    
C61   P6    S    
O32   P4    S    
C25   H61   S    
O48   P12   D    
O9    P9    S    
C58   P9    S    
C93   H25   S    
C16   C52   S    
C99   H39   S    
N2    C106  S    
C62   C66   A    
C26   C50   A    
C97   H37   S    
C90   H22   S    
O6    P6    S    
C40   N4    S    
C5    P1    S    
C4    H44   S    
C24   C104  A    
C78   H50   S    
O39   P7    D    
C5    C101  A    
Ba2   O42   S    
C82   H110  S    
C53   C69   A    
O3    P3    D    
C77   H105  S    
C57   C73   A    
C84   H116  S    
C35   C71   S    
Ba3   O16   S    
O42   P10   S    
C86   H6    S    
C47   H99   S    
C41   C49   A    
C87   H15   S    
C94   H34   S    
C106  H123  S    
C95   H31   S    
C93   H29   S    
C59   P12   S    
C89   H17   S    
C108  H131  S    
C45   H93   S    
C92   O32   S    
C22   P13   S    
C6    C10   A    
C100  H4    S    
Ba1   O13   S    
C98   O34   S    
C18   H78   S    
O7    P7    S    
O47   P11   D    
Ba4   O40   S    
N1    H117  S    
C37   C43   A    
C38   C44   A    
O46   P10   D    
C55   H75   S    
C39   C41   A    
C46   H98   S    
C85   H9    S    
O25   P14   D    
C87   H11   S    
C6    C102  A    
Ba3   Ba4   S    
C89   C93   S    
C44   H72   S    
C54   C70   A    
C34   C70   S    
C17   C21   A    
C14   C18   A    
C58   C74   A    
C29   H57   S    
C20   C24   A    
O23   P16   S    
Ba2   P6    S    
O24   P15   S    
Ba2   O13   S    
Ba3   P3    S    
O43   P11   S    
Ba3   O39   S    
C9    C13   A    
C73   H81   S    
C88   H12   S    
C103  H91   S    
C27   H63   S    
C92   C96   S    
C45   C77   S    
Ba3   O20   S    
C33   C37   A    
Ba1   O18   S    
C36   C40   A    
O37   P5    D    
Ba3   O15   S    
O20   P4    S    
C81   H113  S    
C96   H28   S    
C78   H102  S    
C54   C58   A    
O19   P3    S    
C100  H40   S    
O12   P12   S    
C22   C102  A    
C80   H52   S    
C11   C15   A    
O34   P13   S    
C86   H10   S    
C88   H16   S    
C89   O29   S    
C90   C94   S    
C97   H1    S    
C83   O8    S    
C92   H20   S    
C62   P5    S    
C99   H3    S    
C100  O36   S    
O17   P1    S    
C46   O10   S    
C10   C14   A    
C26   H62   S    
O10   P10   S    
C65   C69   A    
C102  H90   S    
C12   H68   S    
C48   H100  S    
C91   H23   S    
C60   C76   A    
Ba3   O23   S    
C6    P2    S    
C89   H21   S    
C47   H95   S    
C107  H128  S    
C1    C97   S    
N3    C107  S    
C62   C74   A    
C77   H49   S    
N4    H129  S    
Ba3   O43   S    
Ba3   O3    S    
N2    H121  S    
C81   C85   S    
C29   C33   A    
C84   H112  S    
O31   P3    S    
C64   C68   A    
C48   H96   S    
C31   C35   A    
C23   C103  A    
C42   C50   A    
C68   H56   S    
C95   H27   S    
C93   H33   S    
C2    H46   S    
C3    H43   S    
C45   H97   S    
C82   C86   S    
C98   H2    S    
O27   P16   D    
C3    H87   S    
O28   P15   D    
C13   C49   S    
C46   C78   S    
C1    H85   S    
C15   C51   S    
C105  H119  S    
O21   P14   S    
C99   O35   S    
C81   O6    S    
C79   H107  S    
C80   H104  S    
C17   H77   S    
Ba4   O44   S    
C54   H74   S    
C57   P10   S    
O13   P6    S    
Ba2   O22   S    
C10   H66   S    
O29   P1    S    
C85   H13   S    
C61   C65   A    
O26   P13   D    
C87   H7    S    
C4    H88   S    
C63   C67   A    
Ba4   O4    S    
O11   P11   S    
C2    H42   S    
C91   H19   S    
C84   O7    S    
C3    H47   S    
C38   N2    S    
C18   C22   A    
O2    P2    D    
C27   C51   A    
C30   H58   S    
C28   C52   A    
C83   H115  S    
C64   C76   A    
C19   H79   S    
C106  H122  S    
C42   H70   S    
C74   H82   S    
C68   C72   A    
C8    P4    S    
C53   H73   S    
C64   P7    S    
C59   C75   A    
C108  H130  S    
C39   N3    S    
O44   P12   S    
C65   H53   S    
C34   C38   A    
O38   P6    D    
Ba1   Ba2   S    
C81   H109  S    
Ba4   O24   S    
C45   O9    S    
C96   H32   S    
N1    C105  S    
C78   H106  S    
C16   C20   A    
C43   H71   S    
C27   C29   A    
C83   H111  S    
Ba1   P1    S    
C41   H69   S    
C92   H24   S    
C86   H14   S    
C55   C71   A    
C90   H18   S    
Ba4   O16   S    
Ba4   P4    S    
C84   C88   S    
C32   C36   A    
C105  H120  S    
O18   P2    S    
Ba2   O14   S    
C35   C39   A    
N4    C108  S    
C104  H92   S    
C88   H8    S    
C31   H59   S    
C79   H51   S    
C7    P3    S    
Ba1   O37   S    
C19   C23   A    
C7    C103  A    
C106  H124  S    
C91   O31   S    
C43   C51   A    
C108  H132  S    
C44   C52   A    
C33   C69   S    
C30   C34   A    
C37   N1    S    
Ba1   O14   S    
C94   H26   S    
C11   H67   S    
C98   H38   S    
C67   C71   A    
C60   P11   S    
C25   C49   A    
C1    H45   S    
O40   P8    D    
C4    H48   S    
Ba2   O17   S    
O36   P15   S    
C14   C50   S    
Ba1   O41   S    
O22   P13   S    
C3    C99   S    
C82   H114  S    
C63   P8    S    
C79   H103  S    
C80   H108  S    
