data_mof_unit_48953.cif
_audit_creation_date              2012-12-10T17:15:50-0500
_audit_creation_method            fapswitch 2.2
_symmetry_space_group_name_H-M    P1
_symmetry_Int_Tables_number       1
_space_group_crystal_system       triclinic
_cell_length_a                    10.185905
_cell_length_b                    10.696147
_cell_length_c                    10.64733
_cell_angle_alpha                 91.01092
_cell_angle_beta                  94.670932
_cell_angle_gamma                 80.693713
_cell_volume                      1140.943906

loop_
_atom_site_label
_atom_site_type_symbol
_atom_type_description
_atom_site_fract_x
_atom_site_fract_y
_atom_site_fract_z
_atom_type_partial_charge
C1    C     C_R   0.445138 0.515218 0.266727 0.816568
C2    C     C_R   0.632647 0.043334 0.507137 -0.062284
C3    C     C_R   0.518290 0.126788 0.541341 -0.335017
C4    C     C_R   0.406798 0.079188 0.577958 0.389342
C5    C     C_R   0.399028 0.953433 0.556851 0.522615
C6    C     C_R   0.500587 0.875346 0.497225 -0.349534
C7    C     C_2   0.415736 0.540958 0.133508 0.320629
C8    C     C_2   0.503941 0.588309 0.067796 0.382745
C9    C     C_2   0.583027 0.515173 0.867252 -0.383885
C10   C     C_2   0.485754 0.578594 0.931732 -0.185859
C11   C     C_2   0.071335 0.503136 0.475163 0.413852
C12   C     C_R   0.505634 0.260672 0.516249 0.892154
C13   C     C_2   0.926594 0.516017 0.503936 0.635430
C14   C     C_R   0.554908 0.496317 0.733684 0.915866
C15   C     C_R   0.498524 0.740932 0.494407 0.929735
C16   C     C_R   0.762493 0.076086 0.512091 -0.136895
C17   C     C_R   0.865014 0.004069 0.450011 0.594404
C18   C     C_R   0.836787 0.894735 0.384314 -0.289568
C19   C     C_R   0.713423 0.855860 0.390644 -0.127520
C20   C     C_R   0.614934 0.923395 0.463599 0.038751
H1    H     H_    0.125813 0.583917 0.637074 0.181637
H2    H     H_    0.786705 0.156995 0.566239 0.196920
H3    H     H_    0.909841 0.835960 0.331561 0.147240
H4    H     H_    0.696748 0.772680 0.337162 0.200324
H5    H     H_    0.387025 0.613220 0.886962 0.210505
H6    H     H_    0.681380 0.480232 0.912468 0.183848
N1    N     N_2   0.157290 0.551390 0.551110 -0.215370
N2    N     N_2   0.842740 0.448550 0.448960 0.050660
O1    O     O_R   0.568950 0.489660 0.307530 -0.629556
O2    O     O_R   0.348880 0.522640 0.340350 -0.551374
O3    O     O_R   0.610060 0.300270 0.483590 -0.639165
O4    O     O_R   0.389990 0.333260 0.516410 -0.597927
O5    O     O_R   0.651120 0.477360 0.659650 -0.577762
O6    O     O_R   0.431050 0.510340 0.692470 -0.612702
O7    O     O_R   0.610010 0.666740 0.483590 -0.578243
O8    O     O_R   0.389940 0.699730 0.516410 -0.551984
Zn1   Zn    Zn3+2 0.646940 0.477980 0.478090 1.021777
Zn2   Zn    Zn3+2 0.353060 0.522020 0.521910 1.018185
O9    O     O_3   0.300917 0.155603 0.628547 -0.564330
C21   C     C_3   0.337181 0.178081 0.756621 -0.171596
H7    H     H_    0.422750 0.231266 0.767987 0.126890
H8    H     H_    0.360843 0.087882 0.810529 0.152652
H9    H     H_    0.251290 0.237150 0.797775 0.193294
F1    F     F_    0.300260 0.511327 0.075842 -0.679811
F2    F     F_    0.879010 0.610888 0.582777 -0.686254
O10   O     O_3   0.104555 0.466776 0.354276 -0.582798
C22   C     C_3   0.156982 0.336073 0.348113 -0.028635
H10   H     H_    0.099188 0.291366 0.272476 0.147043
H11   H     H_    0.156590 0.282979 0.437191 0.190172
H12   H     H_    0.259201 0.322960 0.316825 0.160793
O11   O     O_3   0.897205 0.338548 0.397106 -0.585505
C23   C     C_3   0.822527 0.321862 0.282819 -0.097010
H13   H     H_    0.803268 0.409594 0.224978 0.189750
H14   H     H_    0.729088 0.286851 0.298647 0.182369
H15   H     H_    0.880864 0.247338 0.227048 0.110051
O12   O     O_3   0.989037 0.044612 0.460786 -0.557273
C24   C     C_3   0.071068 0.997633 0.364364 -0.189005
H16   H     H_    0.017219 0.013249 0.269305 0.104342
H17   H     H_    0.112859 0.896048 0.380104 0.196624
H18   H     H_    0.156744 0.050026 0.367783 0.172890
F3    F     F_    0.291637 0.908927 0.596187 -0.616040
O13   O     O_3   0.620578 0.622002 0.127017 -0.626537
C25   C     C_3   0.649885 0.732757 0.072372 -0.319924
H19   H     H_    0.565186 0.812404 0.076500 0.152646
H20   H     H_    0.677740 0.716299 0.974083 0.201502
H21   H     H_    0.738101 0.761358 0.126105 0.185153

loop_
_geom_bond_atom_site_label_1
_geom_bond_atom_site_label_2
_ccdc_geom_bond_type
C14   O6    A    
C9    C14   S    
C25   H20   S    
C13   N2    D    
O13   C25   S    
C25   H19   S    
O4    Zn2   S    
C6    C20   A    
C9    C10   D    
C19   C20   A    
C4    O9    S    
C11   N1    D    
C14   O5    A    
C21   H8    S    
C19   H4    S    
H1    N1    S    
C25   H21   S    
C5    F3    S    
C7    C8    D    
C22   H11   S    
C1    C7    S    
C7    F1    S    
C12   O4    A    
C13   F2    S    
C11   C13   S    
C17   O12   S    
C24   H16   S    
C16   C17   A    
N2    Zn1   S    
C10   H5    S    
O8    Zn2   S    
C1    O2    A    
O7    Zn1   S    
C23   H15   S    
C23   H14   S    
C9    H6    S    
C17   C18   A    
C22   H12   S    
C2    C3    A    
C12   O3    A    
C5    C6    A    
N2    O11   S    
C24   H17   S    
O1    Zn1   S    
C1    O1    A    
N1    Zn2   S    
C2    C20   A    
O11   C23   S    
C22   H10   S    
O3    Zn1   S    
C15   O8    A    
C2    C16   A    
O12   C24   S    
O2    Zn2   S    
C8    C10   S    
C18   C19   A    
C15   O7    A    
O9    C21   S    
O10   C22   S    
C21   H7    S    
C24   H18   S    
C16   H2    S    
C3    C12   S    
C6    C15   S    
O6    Zn2   S    
C21   H9    S    
O5    Zn1   S    
C3    C4    A    
C18   H3    S    
C8    O13   S    
C23   H13   S    
C4    C5    A    
C11   O10   S    
