data_mof_unit_6902.cif
_audit_creation_date              2012-12-10T17:50:35-0500
_audit_creation_method            fapswitch 2.2
_symmetry_space_group_name_H-M    P1
_symmetry_Int_Tables_number       1
_space_group_crystal_system       triclinic
_cell_length_a                    15.717641
_cell_length_b                    10.720401
_cell_length_c                    9.888442
_cell_angle_alpha                 89.320682
_cell_angle_beta                  90.236124
_cell_angle_gamma                 91.764003
_cell_volume                      1665.27825591

loop_
_atom_site_label
_atom_site_type_symbol
_atom_type_description
_atom_site_fract_x
_atom_site_fract_y
_atom_site_fract_z
_atom_type_partial_charge
C1    C     C_R   0.505112 0.259831 0.501958 0.860890
C2    C     C_R   0.486446 0.044363 0.878257 -0.150995
C3    C     C_R   0.441599 0.931315 0.867068 -0.169671
C4    C     C_R   0.337983 0.499452 0.499738 0.883280
C5    C     C_R   0.432882 0.875703 0.740983 -0.154345
C6    C     C_R   0.468839 0.933822 0.624061 0.099567
C7    C     C_R   0.497805 0.058011 0.631508 0.096544
C8    C     C_R   0.508160 0.125785 0.507591 -0.120937
C9    C     C_R   0.507650 0.064194 0.383771 -0.224953
C10   C     C_R   0.496833 0.937253 0.380833 -0.221408
C11   C     C_R   0.480140 0.871225 0.500631 -0.131230
C12   C     C_3   0.082926 0.498005 0.500191 0.131158
C13   C     C_R   0.387541 0.337103 0.141461 -0.148832
C14   C     C_R   0.331895 0.257403 0.071664 -0.213087
C15   C     C_R   0.331842 0.257618 0.931747 -0.183214
C16   C     C_R   0.491244 0.738832 0.499697 0.880689
C17   C     C_R   0.387634 0.337237 0.860881 -0.140551
C18   C     C_R   0.444681 0.419656 0.928242 0.105489
C19   C     C_R   0.444675 0.419663 0.072945 0.157763
C20   C     C_R   0.552600 0.577327 0.071215 -0.184919
C21   C     C_R   0.552762 0.577619 0.927483 0.156008
C22   C     C_R   0.662069 0.500303 0.500303 0.917321
C23   C     C_3   0.974016 0.585467 0.588709 -0.214308
C24   C     C_3   0.969410 0.384360 0.540209 -0.176188
C25   C     C_3   0.025658 0.411459 0.414053 -0.213700
C26   C     C_1   0.249112 0.498568 0.499211 -0.186619
C27   C     C_1   0.751034 0.499625 0.501110 -0.197694
C28   C     C_3   0.027822 0.471673 0.624983 0.126354
C29   C     C_3   0.067276 0.737621 0.418768 -0.429073
C30   C     C_3   0.997148 0.830529 0.389841 -0.334241
C31   C     C_3   0.034874 0.958012 0.348004 -0.894891
C32   C     C_3   0.063622 0.441877 0.765274 -0.422458
C33   C     C_3   0.992348 0.420680 0.869002 -0.338648
C34   C     C_3   0.917209 0.498447 0.502001 0.162138
C35   C     C_3   0.028515 0.393176 0.009367 -0.890460
C36   C     C_3   0.029767 0.610382 0.462577 0.131519
C37   C     C_3   0.971455 0.525094 0.375484 -0.177392
C38   C     C_1   0.173839 0.497985 0.499242 -0.098283
C39   C     C_1   0.826355 0.498963 0.501798 -0.075385
C40   C     C_R   0.514736 0.107466 0.761922 -0.167528
H1    H     H_    0.048737 0.340717 0.342950 0.150461
H2    H     H_    0.942529 0.291839 0.572584 0.131232
H3    H     H_    0.946254 0.547628 0.273322 0.133685
H4    H     H_    0.951076 0.656246 0.659880 0.124908
H5    H     H_    0.516832 0.113750 0.288509 0.171485
H6    H     H_    0.552233 0.192138 0.777251 0.169739
H7    H     H_    0.497898 0.084560 0.976868 0.144069
H8    H     H_    0.671425 0.642659 0.885391 0.158582
H9    H     H_    0.596302 0.752055 0.883620 0.173644
H10   H     H_    0.075789 0.996825 0.430181 0.260088
H11   H     H_    0.073331 0.950089 0.254664 0.260385
H12   H     H_    0.416225 0.884587 0.956488 0.138665
H13   H     H_    0.982733 0.023344 0.327680 0.248175
H14   H     H_    0.955217 0.794924 0.307168 0.219844
H15   H     H_    0.957797 0.841568 0.481832 0.220039
H16   H     H_    0.109587 0.773592 0.500744 0.201287
H17   H     H_    0.106085 0.725586 0.326402 0.205106
H18   H     H_    0.067532 0.308555 0.007312 0.262307
H19   H     H_    0.068513 0.473602 0.044946 0.264003
H20   H     H_    0.975507 0.376590 0.081897 0.245796
H21   H     H_    0.953257 0.505144 0.874278 0.219217
H22   H     H_    0.950444 0.340629 0.837727 0.220517
H23   H     H_    0.397807 0.787442 0.735967 0.157789
H24   H     H_    0.102033 0.356833 0.758817 0.203178
H25   H     H_    0.106091 0.521045 0.797202 0.205468
H26   H     H_    0.503236 0.890900 0.284755 0.168724
H27   H     H_    0.595357 0.640289 0.125328 0.147799
H28   H     H_    0.383636 0.331177 0.248676 0.205820
H29   H     H_    0.288660 0.194932 0.126662 0.148111
H30   H     H_    0.288799 0.195014 0.877592 0.147890
H31   H     H_    0.384673 0.330425 0.753749 0.207097
N1    N     N_R   0.499210 0.498800 0.142780 -0.124416
N2    N     N_R   0.499180 0.498720 0.857170 -0.123393
N3    N     N_3   0.609213 0.661005 0.855036 -0.386523
O1    O     O_R   0.500000 0.316780 0.614690 -0.656098
O2    O     O_R   0.499990 0.316750 0.385360 -0.639562
O3    O     O_R   0.376780 0.500000 0.614650 -0.642214
O4    O     O_R   0.376770 0.499980 0.385310 -0.630382
O5    O     O_R   0.500010 0.683250 0.614640 -0.603496
O6    O     O_R   0.500000 0.683220 0.385310 -0.621325
O7    O     O_R   0.623230 0.500020 0.614690 -0.594127
O8    O     O_R   0.623220 0.500000 0.385350 -0.611306
Zn1   Zn    Zn3+2 0.500010 0.500020 0.653130 0.937887
Zn2   Zn    Zn3+2 0.499990 0.499980 0.346870 0.932137

loop_
_geom_bond_atom_site_label_1
_geom_bond_atom_site_label_2
_ccdc_geom_bond_type
C8    C9    A    
C9    H5    S    
C34   C37   S    
C24   H2    S    
C20   H27   S    
O6    Zn2   S    
O2    Zn2   S    
C7    C8    A    
C40   H6    S    
C30   H14   S    
C29   C36   S    
C12   C28   S    
C35   H18   S    
C22   O8    A    
C36   C37   S    
C5    C6    A    
O3    Zn1   S    
C1    C8    S    
C21   N2    A    
C5    H23   S    
C35   H19   S    
C18   C19   A    
C25   C37   S    
C27   C39   T    
C33   H22   S    
C7    C40   A    
C12   C36   S    
C9    C10   A    
C13   C14   A    
C19   N1    A    
O7    Zn1   S    
C10   H26   S    
C13   C19   A    
C34   C39   S    
C1    O1    A    
C22   O7    A    
H8    N3    S    
C28   C32   S    
C24   C25   S    
C32   H24   S    
C25   H1    S    
C6    C11   A    
C26   C38   T    
C21   N3    S    
C24   C34   S    
C23   H4    S    
C35   H20   S    
C16   O6    A    
C37   H3    S    
C4    O4    A    
C29   C30   S    
O4    Zn2   S    
C11   C16   S    
C23   C34   S    
C17   C18   A    
C23   C28   S    
C31   H13   S    
N1    Zn2   S    
C29   H17   S    
C17   H31   S    
C18   N2    A    
O8    Zn2   S    
C22   C27   S    
C14   H29   S    
C31   H10   S    
C15   C17   A    
C15   H30   S    
C14   C15   A    
C1    O2    A    
C24   C28   S    
C31   H11   S    
C3    C5    A    
C4    C26   S    
C3    H12   S    
C6    C7    A    
C29   H16   S    
C2    H7    S    
C30   H15   S    
C12   C25   S    
C16   O5    A    
C32   C33   S    
C2    C3    A    
C4    O3    A    
O5    Zn1   S    
O1    Zn1   S    
C30   C31   S    
C33   C35   S    
C12   C38   S    
C10   C11   A    
C2    C40   A    
C20   C21   A    
C33   H21   S    
C23   C36   S    
H9    N3    S    
C20   N1    A    
N2    Zn1   S    
C32   H25   S    
C13   H28   S    
