data_mof_unit_7150.cif
_audit_creation_date              2012-12-11T14:30:08-0500
_audit_creation_method            fapswitch 2.2
_symmetry_space_group_name_H-M    P1
_symmetry_Int_Tables_number       1
_space_group_crystal_system       triclinic
_cell_length_a                    12.677409
_cell_length_b                    12.677298
_cell_length_c                    27.050377
_cell_angle_alpha                 90.044855
_cell_angle_beta                  90.041727
_cell_angle_gamma                 119.845549
_cell_volume                      3770.80847038

loop_
_atom_site_label
_atom_site_type_symbol
_atom_type_description
_atom_site_fract_x
_atom_site_fract_y
_atom_site_fract_z
_atom_type_partial_charge
C1    C     C_R   0.557640 0.454694 0.822380 0.564017
C2    C     C_R   0.895834 0.440243 0.677368 0.565642
C3    C     C_R   0.545600 0.103705 0.822547 0.574144
C4    C     C_R   0.560047 0.454782 0.677041 0.563116
C5    C     C_R   0.900146 0.443634 0.821596 0.574181
C6    C     C_R   0.545000 0.104904 0.677019 0.561191
C7    C     C_R   0.454690 0.557641 0.322380 0.564000
C8    C     C_R   0.440242 0.895828 0.177366 0.565568
C9    C     C_R   0.103711 0.545604 0.322550 0.574142
C10   C     C_R   0.454781 0.560049 0.177040 0.563114
C11   C     C_R   0.443635 0.900153 0.321594 0.574170
C12   C     C_R   0.104902 0.544997 0.177020 0.561178
C13   C     C_R   0.012709 0.518307 0.970956 -0.003593
C14   C     C_R   0.522182 0.025887 0.522756 0.001420
C15   C     C_R   0.469591 0.491378 0.970686 -0.012085
C16   C     C_R   0.970168 0.497155 0.523432 -0.006953
C17   C     C_R   0.508677 0.985921 0.971852 -0.010483
C18   C     C_R   0.502547 0.466827 0.522396 -0.005305
C19   C     C_R   0.518298 0.012700 0.470954 -0.003604
C20   C     C_R   0.025892 0.522189 0.022758 0.001434
C21   C     C_R   0.491352 0.469613 0.470689 -0.012079
C22   C     C_R   0.497165 0.970244 0.023433 -0.006894
C23   C     C_R   0.985877 0.508677 0.471853 -0.010471
C24   C     C_R   0.466804 0.502571 0.022392 -0.005315
C25   C     C_R   0.959476 0.679070 0.975417 -0.042442
C26   C     C_R   0.677690 0.965731 0.527788 -0.050125
C27   C     C_R   0.321176 0.274494 0.976983 -0.023735
C28   C     C_R   0.039818 0.714714 0.530477 -0.047033
C29   C     C_R   0.724845 0.049202 0.978200 -0.034408
C30   C     C_R   0.284117 0.323723 0.529321 -0.037655
C31   C     C_R   0.679010 0.959391 0.475412 -0.042455
C32   C     C_R   0.965818 0.677758 0.027792 -0.050137
C33   C     C_R   0.274465 0.321221 0.476992 -0.023746
C34   C     C_R   0.714713 0.039906 0.030470 -0.047012
C35   C     C_R   0.049196 0.724855 0.478206 -0.034549
C36   C     C_R   0.323673 0.284142 0.029312 -0.037652
C37   C     C_R   0.962784 0.584408 0.894630 0.383037
C38   C     C_R   0.608396 0.026711 0.603482 0.378078
C39   C     C_R   0.429742 0.365396 0.898230 0.397184
C40   C     C_R   0.984096 0.583243 0.605518 0.377592
C41   C     C_R   0.634731 0.067710 0.899214 0.394467
C42   C     C_R   0.417194 0.393944 0.604334 0.382678
C43   C     C_R   0.584418 0.962817 0.394622 0.383124
C44   C     C_R   0.026739 0.608419 0.103485 0.378074
C45   C     C_R   0.365377 0.429760 0.398234 0.397185
C46   C     C_R   0.583244 0.984012 0.105508 0.377102
C47   C     C_R   0.067762 0.634748 0.399225 0.394534
C48   C     C_R   0.393917 0.417209 0.104328 0.382668
C49   C     C_R   0.060775 0.529367 0.125613 0.009238
C50   C     C_R   0.487440 0.963509 0.369368 0.003223
C51   C     C_R   0.467916 0.532725 0.125289 0.011636
C52   C     C_R   0.046375 0.531385 0.371283 0.003518
C53   C     C_R   0.467055 0.938150 0.126015 0.012157
C54   C     C_R   0.469046 0.511544 0.370528 -0.005122
C55   C     C_R   0.529372 0.060784 0.625611 0.009252
C56   C     C_R   0.963494 0.487441 0.869371 0.003216
C57   C     C_R   0.532716 0.467921 0.625291 0.011668
C58   C     C_R   0.531373 0.046360 0.871278 0.003512
C59   C     C_R   0.938120 0.467031 0.626012 0.012164
C60   C     C_R   0.511540 0.469062 0.870527 -0.005127
C61   C     C_R   0.979278 0.596174 0.946689 0.012243
C62   C     C_R   0.602479 0.003927 0.551738 0.015114
C63   C     C_R   0.403232 0.376396 0.948083 0.027064
C64   C     C_R   0.999626 0.600128 0.553508 0.003204
C65   C     C_R   0.623516 0.032057 0.949291 0.018585
C66   C     C_R   0.399330 0.395561 0.552445 0.017662
C67   C     C_R   0.596153 0.979252 0.446684 0.012280
C68   C     C_R   0.003966 0.602511 0.051742 0.015108
C69   C     C_R   0.376370 0.403261 0.448089 0.027057
C70   C     C_R   0.600131 0.999664 0.053503 0.002960
C71   C     C_R   0.032074 0.623528 0.449298 0.018720
C72   C     C_R   0.395528 0.399351 0.052438 0.017678
C73   C     C_R   0.007335 0.419594 0.893131 -0.145252
C74   C     C_R   0.445334 0.073511 0.596390 -0.183994
C75   C     C_R   0.560364 0.584133 0.891600 -0.142574
C76   C     C_R   0.913529 0.368103 0.595657 -0.145711
C77   C     C_R   0.416502 0.985559 0.892767 -0.149483
C78   C     C_R   0.631281 0.541808 0.594897 -0.147472
C79   C     C_R   0.419589 0.007340 0.393133 -0.145210
C80   C     C_R   0.073464 0.445303 0.096391 -0.184222
C81   C     C_R   0.584112 0.560361 0.391601 -0.142570
C82   C     C_R   0.368151 0.913692 0.095670 -0.145584
C83   C     C_R   0.985526 0.416507 0.392764 -0.149494
C84   C     C_R   0.541813 0.631295 0.094897 -0.147483
C85   C     C_R   0.033645 0.435482 0.943280 0.007836
C86   C     C_R   0.444194 0.061034 0.545571 -0.003524
C87   C     C_R   0.543026 0.595860 0.941672 0.019865
C88   C     C_R   0.928013 0.381731 0.545037 0.020713
C89   C     C_R   0.404679 0.958611 0.942930 0.012102
C90   C     C_R   0.618102 0.538856 0.544069 0.008708
C91   C     C_R   0.435489 0.033661 0.443280 0.007856
C92   C     C_R   0.060994 0.444167 0.045572 -0.003685
C93   C     C_R   0.595834 0.543038 0.441674 0.019881
C94   C     C_R   0.381761 0.928151 0.045047 0.020761
C95   C     C_R   0.958546 0.404676 0.442924 0.012082
C96   C     C_R   0.538846 0.618126 0.044068 0.008644
C97   C     C_R   0.086861 0.367508 0.017306 -0.141645
C98   C     C_R   0.363891 0.074105 0.466473 -0.120377
C99   C     C_R   0.605989 0.720755 0.014684 -0.101263
C100  C     C_R   0.911345 0.290592 0.464996 -0.117669
C101  C     C_R   0.279746 0.898566 0.015845 -0.110133
C102  C     C_R   0.710288 0.605720 0.463774 -0.077467
C103  C     C_R   0.367567 0.086942 0.517306 -0.141531
C104  C     C_R   0.074049 0.363852 0.966472 -0.120381
C105  C     C_R   0.720725 0.606002 0.514683 -0.101408
C106  C     C_R   0.290610 0.911470 0.965010 -0.117663
C107  C     C_R   0.898400 0.279713 0.515829 -0.110168
C108  C     C_R   0.605702 0.710318 0.963774 -0.077312
Cr1   Cr    Cr6+3 0.487630 0.241180 0.750000 1.158265
Cr2   Cr    Cr6+3 0.753550 0.512370 0.750000 1.170418
Cr3   Cr    Cr6+3 0.758820 0.246450 0.750000 1.163242
Cr4   Cr    Cr6+3 0.241180 0.487630 0.250000 1.158249
Cr5   Cr    Cr6+3 0.512370 0.753550 0.250000 1.170435
Cr6   Cr    Cr6+3 0.246450 0.758820 0.250000 1.163215
H1    H     H_    0.102180 0.385532 0.112741 0.183055
H2    H     H_    0.348808 0.014079 0.373258 0.196860
H3    H     H_    0.596456 0.721553 0.110526 0.198582
H4    H     H_    0.968154 0.337027 0.371352 0.184176
H5    H     H_    0.277701 0.876949 0.111179 0.196955
H6    H     H_    0.663881 0.620769 0.370137 0.191393
H7    H     H_    0.385586 0.102259 0.612740 0.183058
H8    H     H_    0.014075 0.348815 0.873254 0.196865
H9    H     H_    0.721541 0.596433 0.610524 0.198527
H10   H     H_    0.337026 0.968210 0.871360 0.184185
H11   H     H_    0.876707 0.277638 0.611161 0.196877
H12   H     H_    0.620786 0.663899 0.870138 0.191387
H13   H     H_    0.115446 0.308949 0.034676 0.103704
H14   H     H_    0.302762 0.092964 0.445284 0.163840
H15   H     H_    0.660383 0.808918 0.031290 0.162175
H16   H     H_    0.889210 0.210540 0.443110 0.124353
H17   H     H_    0.191877 0.867768 0.032594 0.109330
H18   H     H_    0.790926 0.659820 0.441856 0.179302
H19   H     H_    0.309052 0.115585 0.534677 0.103611
H20   H     H_    0.092884 0.302707 0.945281 0.163873
H21   H     H_    0.808883 0.660397 0.531285 0.161943
H22   H     H_    0.210560 0.889347 0.943127 0.124214
H23   H     H_    0.867560 0.191833 0.532573 0.109369
H24   H     H_    0.659801 0.790958 0.941857 0.179348
O1    O     O_R   0.460870 0.120930 0.805240 -0.463809
O2    O     O_R   0.660060 0.539130 0.694760 -0.498626
O3    O     O_R   0.879070 0.339940 0.805240 -0.469143
O4    O     O_R   0.460870 0.120930 0.694760 -0.508396
O5    O     O_R   0.660060 0.539130 0.805240 -0.472054
O6    O     O_R   0.879070 0.339940 0.694760 -0.499040
O7    O     O_R   0.120930 0.460870 0.305240 -0.463805
O8    O     O_R   0.539130 0.660060 0.194760 -0.498607
O9    O     O_R   0.339940 0.879070 0.305240 -0.469135
O10   O     O_R   0.120930 0.460870 0.194760 -0.508433
O11   O     O_R   0.539130 0.660060 0.305240 -0.472060
O12   O     O_R   0.339940 0.879070 0.194760 -0.499096
O13   O     O_R   0.498910 0.350470 0.801870 -0.427628
O14   O     O_R   0.851560 0.501090 0.698130 -0.454607
O15   O     O_R   0.649530 0.148440 0.801870 -0.430070
O16   O     O_R   0.498910 0.350470 0.698130 -0.451792
O17   O     O_R   0.851560 0.501090 0.801870 -0.426652
O18   O     O_R   0.649530 0.148440 0.698130 -0.447965
O19   O     O_R   0.350470 0.498910 0.301870 -0.427641
O20   O     O_R   0.501090 0.851560 0.198130 -0.454481
O21   O     O_R   0.148440 0.649530 0.301870 -0.430090
O22   O     O_R   0.350470 0.498910 0.198130 -0.451760
O23   O     O_R   0.501090 0.851560 0.301870 -0.426677
O24   O     O_R   0.148440 0.649530 0.198130 -0.447927
O25   O     O_3   0.666667 0.333333 0.750000 -0.326120
O26   O     O_3   0.333333 0.666667 0.250000 -0.326106
F1    F     F_    0.023996 0.694921 0.132186 -0.585453
F2    F     F_    0.663788 0.943415 0.367994 -0.568777
F3    F     F_    0.317348 0.325807 0.134685 -0.581075
F4    F     F_    0.138312 0.747288 0.379754 -0.585560
F5    F     F_    0.677373 0.012451 0.136851 -0.576549
F6    F     F_    0.252922 0.390334 0.378919 -0.581261
F7    F     F_    0.694882 0.023942 0.632182 -0.585428
F8    F     F_    0.943255 0.663712 0.868017 -0.568822
F9    F     F_    0.325791 0.317396 0.634692 -0.581080
F10   F     F_    0.747268 0.138210 0.879733 -0.585539
F11   F     F_    0.012893 0.677406 0.636888 -0.576198
F12   F     F_    0.390316 0.252935 0.878916 -0.581270
C109  C     C_2   0.924964 0.751000 0.056546 0.334780
H25   H     H_    0.961163 0.846643 0.048290 0.093351
O27   O     O_2   0.845709 0.703057 0.087868 -0.389475
C110  C     C_2   0.765455 0.927339 0.452246 0.313515
H26   H     H_    0.862243 0.983040 0.459321 0.084068
O28   O     O_2   0.728719 0.835119 0.427585 -0.419873
C111  C     C_2   0.250240 0.172193 0.058792 0.298569
H27   H     H_    0.152963 0.117352 0.052599 0.080087
O29   O     O_2   0.299281 0.137548 0.088354 -0.410867
C112  C     C_2   0.063204 0.837784 0.454758 0.298117
H28   H     H_    0.112638 0.924566 0.473451 0.077494
O30   O     O_2   0.011972 0.833767 0.415978 -0.407965
C113  C     C_2   0.824143 0.067012 0.059945 0.284414
H29   H     H_    0.899491 0.159371 0.061854 0.106115
O31   O     O_2   0.832262 0.985677 0.080554 -0.445729
C114  C     C_2   0.158511 0.228325 0.453483 0.275045
H30   H     H_    0.072064 0.200896 0.471129 0.070053
O32   O     O_2   0.158969 0.176201 0.415575 -0.426584
C115  C     C_2   0.750873 0.924815 0.556545 0.334655
H31   H     H_    0.846511 0.960956 0.548291 0.093039
O33   O     O_2   0.702884 0.845577 0.587873 -0.389504
C116  C     C_2   0.927516 0.765570 0.952248 0.313599
H32   H     H_    0.983409 0.862360 0.959238 0.084219
O34   O     O_2   0.835175 0.728885 0.927677 -0.419942
C117  C     C_2   0.172169 0.250304 0.558804 0.298637
H33   H     H_    0.117315 0.153027 0.552611 0.079801
O35   O     O_2   0.137538 0.299358 0.588367 -0.410771
C118  C     C_2   0.837796 0.063220 0.954770 0.298436
H34   H     H_    0.924550 0.112628 0.973486 0.077773
O36   O     O_2   0.833825 0.012008 0.915988 -0.407891
C119  C     C_2   0.066630 0.824103 0.559936 0.284402
H35   H     H_    0.158690 0.899985 0.561533 0.105404
O37   O     O_2   0.985316 0.831632 0.580844 -0.445021
C120  C     C_2   0.228270 0.158549 0.953471 0.275082
H36   H     H_    0.200806 0.072098 0.971118 0.069969
O38   O     O_2   0.176176 0.159019 0.915557 -0.426566

loop_
_geom_bond_atom_site_label_1
_geom_bond_atom_site_label_2
_ccdc_geom_bond_type
C44   C49   A    
C4    O16   A    
C41   F10   S    
C80   C92   A    
C82   C94   A    
C18   C21   A    
C2    O6    A    
C117  H33   S    
C5    C56   S    
C3    O15   A    
C6    C55   S    
C97   H13   S    
C8    O20   A    
C45   F6    S    
C37   F8    S    
C12   C49   S    
C117  O35   D    
C38   F7    S    
C78   C90   A    
C31   C67   A    
C99   C108  A    
C20   C92   A    
C81   H6    S    
C77   C89   A    
C104  H20   S    
C33   C114  S    
C83   H4    S    
Cr1   O13   S    
C102  H18   S    
C41   C58   A    
Cr2   O14   S    
C24   C96   A    
C100  H16   S    
C98   H14   S    
Cr6   O24   S    
C9    O21   A    
C26   C115  S    
C98   C103  A    
C14   C62   A    
C96   C99   A    
C11   O23   A    
Cr4   O7    S    
C102  C105  A    
C84   C96   A    
C113  O31   D    
Cr2   O17   S    
C58   C77   A    
C7    O11   A    
C37   C56   A    
Cr6   O26   S    
C48   C51   A    
C38   C55   A    
C94   C101  A    
C84   H3    S    
C109  O27   D    
C4    C57   S    
C19   C67   A    
C116  H32   S    
C25   C116  S    
Cr5   O20   S    
C6    O4    A    
Cr3   O18   S    
C34   C70   A    
C79   C91   A    
C13   C20   A    
C33   C69   A    
C32   C68   A    
Cr2   O2    S    
C25   C32   A    
C106  H22   S    
C35   C71   A    
C26   C31   A    
C40   C59   A    
C79   H2    S    
C50   C79   A    
C76   H11   S    
C22   C94   A    
C113  H29   S    
C9    C52   S    
C82   H5    S    
C48   C72   A    
C86   C103  A    
C14   C19   A    
C42   C57   A    
C110  O28   D    
C92   C97   A    
C2    O14   A    
Cr4   O26   S    
C16   C88   A    
Cr4   O19   S    
C87   C108  A    
C45   C69   A    
C119  H35   S    
C18   C90   A    
Cr5   O11   S    
C17   C89   A    
C28   C35   A    
Cr1   O25   S    
C1    C60   S    
C88   C107  A    
C99   H15   S    
C2    C59   S    
C41   C65   A    
C5    O17   A    
Cr5   O23   S    
C29   C34   A    
C27   C120  S    
Cr4   O10   S    
C21   C69   A    
C53   C82   A    
C114  O32   D    
Cr5   O8    S    
C107  H23   S    
C52   C83   A    
C8    O12   A    
C111  H27   S    
C1    O5    A    
C23   C71   A    
C4    O2    A    
C81   C93   A    
C5    O3    A    
C80   H1    S    
C83   C95   A    
Cr3   O25   S    
C36   C111  S    
C25   C61   A    
C74   C86   A    
C78   H9    S    
Cr3   O15   S    
C14   C86   A    
C30   C66   A    
C85   C104  A    
C27   C63   A    
Cr3   O6    S    
C10   O8    A    
C29   C65   A    
C101  H17   S    
C75   C87   A    
C15   C24   A    
C118  O36   D    
C45   C54   A    
C120  H36   S    
C16   C23   A    
C120  O38   D    
C89   C106  A    
C32   C109  S    
C44   C68   A    
C3    O1    A    
C47   C71   A    
C112  O30   D    
C10   O22   A    
C110  H26   S    
C24   C72   A    
C15   C87   A    
C73   C85   A    
C43   F2    S    
C101  C106  A    
C30   C117  S    
C76   C88   A    
C100  C107  A    
C15   C63   A    
C56   C73   A    
Cr4   O22   S    
C30   C33   A    
C95   C100  A    
C93   C102  A    
C57   C78   A    
C20   C68   A    
C34   C113  S    
Cr1   O16   S    
C90   C105  A    
C119  O37   D    
C39   F12   S    
C42   F9    S    
C8    C53   S    
Cr6   O9    S    
C40   F11   S    
C37   C61   A    
Cr2   O25   S    
C46   F5    S    
C43   C50   A    
C28   C64   A    
C47   C52   A    
C7    O19   A    
C27   C36   A    
C18   C66   A    
C39   C63   A    
C60   C75   A    
C17   C65   A    
C17   C22   A    
C40   C64   A    
C49   C80   A    
C105  H21   S    
C31   C110  S    
Cr1   O1    S    
C75   H12   S    
C10   C51   S    
C114  H30   S    
C12   O10   A    
C109  H25   S    
C111  O29   D    
C103  H19   S    
C55   C74   A    
C11   C50   S    
Cr5   O26   S    
C108  H24   S    
C47   F4    S    
C11   O9    A    
C48   F3    S    
C21   C93   A    
C35   C112  S    
C39   C60   A    
C59   C76   A    
C46   C53   A    
C9    O7    A    
C42   C66   A    
C23   C95   A    
C1    O13   A    
C77   H10   S    
C44   F1    S    
C91   C98   A    
C26   C62   A    
Cr2   O5    S    
Cr6   O21   S    
C46   C70   A    
C97   C104  A    
C19   C91   A    
Cr3   O3    S    
C12   O24   A    
C115  H31   S    
C3    C58   S    
C74   H7    S    
C13   C61   A    
C118  H34   S    
C43   C67   A    
C73   H8    S    
C13   C85   A    
C29   C118  S    
C28   C119  S    
Cr6   O12   S    
C116  O34   D    
C16   C64   A    
C7    C54   S    
C38   C62   A    
C112  H28   S    
C51   C84   A    
C22   C70   A    
C54   C81   A    
C6    O18   A    
C36   C72   A    
Cr1   O4    S    
C115  O33   D    
