data_mof_unit_5988.cif
_audit_creation_date              2013-03-05T15:42:42-0500
_audit_creation_method            fapswitch 2.2
_symmetry_space_group_name_H-M    P1
_symmetry_Int_Tables_number       1
_space_group_crystal_system       triclinic
_cell_length_a                    19.221373
_cell_length_b                    11.028413
_cell_length_c                    18.782175
_cell_angle_alpha                 90.352413
_cell_angle_beta                  90.1824
_cell_angle_gamma                 89.420676
_cell_volume                      3981.1705186

loop_
_atom_site_label
_atom_site_type_symbol
_atom_site_description
_atom_site_fract_x
_atom_site_fract_y
_atom_site_fract_z
_atom_type_partial_charge
O1    O     O_R   0.788190 0.043000 0.172520 -0.483229
O2    O     O_R   0.211810 0.043000 0.827480 -0.478395
O3    O     O_R   0.288190 0.543000 0.172520 -0.482052
O4    O     O_R   0.711810 0.543000 0.827480 -0.480494
O5    O     O_R   0.766240 0.292300 0.176860 -0.496349
O6    O     O_R   0.233760 0.292300 0.823140 -0.493997
O7    O     O_R   0.266240 0.792300 0.176860 -0.496673
O8    O     O_R   0.733760 0.792300 0.823140 -0.497673
C1    C     C_R   0.729627 0.374827 0.145181 0.543611
C2    C     C_R   0.271109 0.373293 0.855430 0.547874
C3    C     C_R   0.229000 0.873315 0.144593 0.545704
C4    C     C_R   0.770333 0.875116 0.854730 0.539960
O9    O     O_R   0.670310 0.409160 0.168720 -0.528041
O10   O     O_R   0.329690 0.409160 0.831280 -0.521217
O11   O     O_R   0.170310 0.909160 0.168720 -0.527646
O12   O     O_R   0.829690 0.909160 0.831280 -0.525206
O13   O     O_R   0.556160 0.251900 0.173380 -0.521526
O14   O     O_R   0.443840 0.251900 0.826620 -0.515077
O15   O     O_R   0.056160 0.751900 0.173380 -0.521434
O16   O     O_R   0.943840 0.751900 0.826620 -0.515859
C5    C     C_R   0.532220 0.154924 0.144542 0.533753
C6    C     C_R   0.465869 0.154963 0.856444 0.547650
C7    C     C_R   0.034144 0.655067 0.143538 0.535881
C8    C     C_R   0.967945 0.654790 0.855366 0.546150
O17   O     O_R   0.545410 0.050140 0.168240 -0.521846
O18   O     O_R   0.454590 0.050140 0.831760 -0.512248
O19   O     O_R   0.045410 0.550140 0.168240 -0.520808
O20   O     O_R   0.954590 0.550140 0.831760 -0.515149
O21   O     O_R   0.681530 0.958350 0.176970 -0.513624
O22   O     O_R   0.318470 0.958350 0.823030 -0.512877
O23   O     O_R   0.181530 0.458350 0.176970 -0.515345
O24   O     O_R   0.818470 0.458350 0.823030 -0.512190
C9    C     C_R   0.743201 0.966304 0.150076 0.544014
C10   C     C_R   0.256664 0.965759 0.849581 0.550046
C11   C     C_R   0.243656 0.465674 0.150512 0.540050
C12   C     C_R   0.757059 0.466262 0.849932 0.553685
O25   O     O_R   0.788610 0.044480 0.334450 -0.543424
O26   O     O_R   0.211390 0.044480 0.665550 -0.541332
O27   O     O_R   0.288610 0.544480 0.334450 -0.545673
O28   O     O_R   0.711390 0.544480 0.665550 -0.533802
O29   O     O_R   0.766630 0.293670 0.326970 -0.510366
O30   O     O_R   0.233370 0.293670 0.673030 -0.522870
O31   O     O_R   0.266630 0.793670 0.326970 -0.512382
O32   O     O_R   0.733370 0.793670 0.673030 -0.528944
C13   C     C_R   0.708597 0.327467 0.360417 0.570234
C14   C     C_R   0.285474 0.343560 0.638152 0.528001
C15   C     C_R   0.208102 0.826865 0.360051 0.574250
C16   C     C_R   0.771277 0.880410 0.645933 0.549911
O33   O     O_R   0.670730 0.410640 0.330640 -0.528015
O34   O     O_R   0.329270 0.410640 0.669360 -0.502927
O35   O     O_R   0.170730 0.910640 0.330640 -0.529857
O36   O     O_R   0.829270 0.910640 0.669360 -0.518447
O37   O     O_R   0.556550 0.253260 0.323480 -0.548537
O38   O     O_R   0.443450 0.253260 0.676520 -0.523479
O39   O     O_R   0.056550 0.753260 0.323480 -0.549644
O40   O     O_R   0.943450 0.753260 0.676520 -0.506076
C17   C     C_R   0.531465 0.158097 0.351909 0.519543
C18   C     C_R   0.438900 0.151464 0.639064 0.528038
C19   C     C_R   0.030514 0.658078 0.351437 0.521382
C20   C     C_R   0.937462 0.651554 0.639217 0.544432
O41   O     O_R   0.545830 0.051610 0.330160 -0.489878
O42   O     O_R   0.454170 0.051610 0.669840 -0.525547
O43   O     O_R   0.045830 0.551610 0.330160 -0.488161
O44   O     O_R   0.954170 0.551610 0.669840 -0.530338
O45   O     O_R   0.681920 0.959720 0.327070 -0.496503
O46   O     O_R   0.318080 0.959720 0.672930 -0.523410
O47   O     O_R   0.181920 0.459720 0.327070 -0.495961
O48   O     O_R   0.818080 0.459720 0.672930 -0.525332
C21   C     C_R   0.740659 0.971881 0.356488 0.518073
C22   C     C_R   0.258194 0.973706 0.642544 0.524265
C23   C     C_R   0.241580 0.470054 0.355220 0.518621
C24   C     C_R   0.758690 0.474515 0.642539 0.532007
Cr1   Cr    Cr6+3 0.772820 0.169820 0.252640 0.995555
Cr2   Cr    Cr6+3 0.227180 0.169820 0.747360 1.004170
Cr3   Cr    Cr6+3 0.272820 0.669820 0.252640 0.993563
Cr4   Cr    Cr6+3 0.727180 0.669820 0.747360 1.007228
Cr5   Cr    Cr6+3 0.615040 0.323610 0.249150 0.973087
Cr6   Cr    Cr6+3 0.384960 0.323610 0.750850 0.999727
Cr7   Cr    Cr6+3 0.115040 0.823610 0.249150 0.973936
Cr8   Cr    Cr6+3 0.884960 0.823610 0.750850 1.000386
Cr9   Cr    Cr6+3 0.616720 0.011130 0.250660 1.018758
Cr10  Cr    Cr6+3 0.383280 0.011130 0.749340 1.008214
Cr11  Cr    Cr6+3 0.116720 0.511130 0.250660 1.017333
Cr12  Cr    Cr6+3 0.883280 0.511130 0.749340 1.009461
O49   O     O_3   0.668190 0.168190 0.250820 -0.272338
O50   O     O_3   0.331810 0.168190 0.749180 -0.283494
O51   O     O_3   0.168190 0.668190 0.250820 -0.273121
O52   O     O_3   0.831810 0.668190 0.749180 -0.272512
C25   C     C_3   0.473421 0.268759 0.982006 -0.117476
C26   C     C_3   0.438172 0.183761 0.036038 -0.137417
C27   C     C_3   0.062392 0.678791 0.963912 -0.135982
C28   C     C_3   0.028282 0.767073 0.018143 -0.116928
C29   C     C_3   0.545140 0.242612 0.016313 -0.120810
C30   C     C_3   0.450467 0.075598 0.984962 -0.106931
C31   C     C_3   0.048600 0.572284 0.014757 -0.104711
C32   C     C_3   0.956267 0.746116 0.983712 -0.122679
H1    H     H_    0.583110 0.311164 0.032597 0.134090
H2    H     H_    0.411389 0.006680 0.970225 0.147963
H3    H     H_    0.086667 0.500846 0.029693 0.150192
H4    H     H_    0.919774 0.817867 0.967209 0.132850
H5    H     H_    0.455894 0.359794 0.964984 0.106884
H6    H     H_    0.388427 0.199392 0.064446 0.114169
H7    H     H_    0.112181 0.691340 0.935393 0.115612
H8    H     H_    0.047022 0.856953 0.035328 0.109003
C33   C     C_3   0.509543 0.158672 0.069438 0.042498
C34   C     C_3   0.486266 0.160590 0.931923 0.045883
C35   C     C_3   0.013899 0.660546 0.067982 0.049468
C36   C     C_3   0.990698 0.658806 0.930441 0.039337
C37   C     C_3   0.521953 0.049689 0.019208 -0.095858
C38   C     C_3   0.557370 0.133982 0.965315 -0.128921
C39   C     C_3   0.942477 0.639161 0.034458 -0.130116
C40   C     C_3   0.976785 0.551440 0.980434 -0.097510
H9    H     H_    0.540563 0.959031 0.036112 0.151938
H10   H     H_    0.606144 0.114068 0.935789 0.109396
H11   H     H_    0.893420 0.623140 0.063827 0.106748
H12   H     H_    0.956772 0.461989 0.963506 0.152380
C41   C     C_R   0.755438 0.906909 0.930152 -0.038707
C42   C     C_R   0.241851 0.900158 0.068383 -0.033080
C43   C     C_R   0.258451 0.400286 0.931818 -0.034474
C44   C     C_R   0.744285 0.405625 0.069786 -0.038597
C45   C     C_R   0.699228 0.856995 0.968155 0.011232
C46   C     C_R   0.299290 0.852619 0.030177 0.008027
C47   C     C_R   0.201848 0.352350 0.969964 0.006737
C48   C     C_R   0.801486 0.356490 0.031733 0.012041
C49   C     C_R   0.703583 0.848153 0.043415 -0.005612
C50   C     C_R   0.295401 0.844369 0.954797 -0.016936
C51   C     C_R   0.206450 0.343281 0.045152 -0.016045
C52   C     C_R   0.797905 0.348544 0.956282 -0.006708
C53   C     C_R   0.816001 0.946696 0.042431 0.132734
C54   C     C_R   0.181513 0.942175 0.955894 0.131704
C55   C     C_R   0.319083 0.441800 0.044175 0.133226
C56   C     C_R   0.684083 0.445882 0.957262 0.130880
C57   C     C_R   0.811246 0.956037 0.968876 -0.138539
C58   C     C_R   0.184489 0.945490 0.029787 -0.127407
C59   C     C_R   0.315543 0.445525 0.970367 -0.127600
C60   C     C_R   0.687889 0.453920 0.031007 -0.139105
C61   C     C_R   0.638949 0.814392 0.933853 -0.065126
C62   C     C_R   0.360835 0.813481 0.064141 -0.070446
C63   C     C_R   0.140368 0.313900 0.936151 -0.070359
C64   C     C_R   0.861966 0.313581 0.066131 -0.065560
C65   C     C_R   0.090250 0.252016 0.974182 -0.121652
C66   C     C_R   0.911628 0.247461 0.028476 -0.120173
C67   C     C_R   0.590438 0.747746 0.971195 -0.117799
C68   C     C_R   0.411840 0.751542 0.025905 -0.123428
C69   C     C_R   0.600128 0.724074 0.043244 -0.142757
C70   C     C_R   0.402258 0.725876 0.953903 -0.132605
C71   C     C_R   0.100522 0.225992 0.045888 -0.131096
C72   C     C_R   0.902638 0.224064 0.956157 -0.145802
C73   C     C_R   0.655364 0.775911 0.079622 -0.085081
C74   C     C_R   0.345299 0.774062 0.918068 -0.083408
C75   C     C_R   0.157497 0.273059 0.081632 -0.083891
C76   C     C_R   0.847222 0.276528 0.919783 -0.086513
C77   C     C_R   0.757271 0.908295 0.080444 0.008052
C78   C     C_R   0.241598 0.905706 0.918004 0.001729
C79   C     C_R   0.259629 0.404750 0.082087 0.001054
C80   C     C_R   0.743662 0.408645 0.919367 0.009368
H13   H     H_    0.628128 0.832650 0.878463 0.136282
H14   H     H_    0.370959 0.831614 0.119759 0.133820
H15   H     H_    0.129410 0.333079 0.880912 0.138517
H16   H     H_    0.871951 0.330864 0.121873 0.132754
H17   H     H_    0.855644 0.992342 0.941414 0.136169
H18   H     H_    0.139240 0.980220 0.057418 0.133298
H19   H     H_    0.360140 0.480760 0.942744 0.134709
H20   H     H_    0.642486 0.488607 0.058409 0.134618
H21   H     H_    0.044962 0.220099 0.946663 0.105173
H22   H     H_    0.955510 0.210267 0.056592 0.105844
H23   H     H_    0.546734 0.711029 0.943066 0.108153
H24   H     H_    0.457119 0.718631 0.053513 0.102738
H25   H     H_    0.064830 0.169094 0.074292 0.088458
H26   H     H_    0.938015 0.164404 0.927885 0.090375
H27   H     H_    0.565341 0.664931 0.071321 0.088353
H28   H     H_    0.438375 0.668120 0.925366 0.090657
H29   H     H_    0.661735 0.754940 0.135499 0.129220
H30   H     H_    0.339392 0.753026 0.862012 0.137695
H31   H     H_    0.163992 0.251848 0.137478 0.128697
H32   H     H_    0.841487 0.255809 0.863683 0.137988
H33   H     H_    0.579544 0.282916 0.460280 0.116329
H34   H     H_    0.540854 0.284900 0.583005 0.136418
H35   H     H_    0.070827 0.792092 0.458637 0.119160
H36   H     H_    0.029670 0.799107 0.579531 0.140726
C81   C     C_R   0.462655 0.148680 0.565107 0.005223
C82   C     C_R   0.498758 0.166823 0.421465 0.019022
C83   C     C_R   0.958511 0.650740 0.564210 0.007219
C84   C     C_R   0.995223 0.667112 0.420085 0.010246
C85   C     C_R   0.438548 0.060681 0.515033 0.012960
C86   C     C_R   0.448372 0.082262 0.441699 0.041516
C87   C     C_R   0.937010 0.559199 0.514818 0.016587
C88   C     C_R   0.947141 0.578753 0.441106 0.043911
C89   C     C_R   0.535062 0.230685 0.473954 -0.145854
C90   C     C_R   0.514815 0.227395 0.544489 -0.138348
C91   C     C_R   0.027267 0.738226 0.471982 -0.148602
C92   C     C_R   0.005844 0.737017 0.541977 -0.128076
C93   C     C_R   0.415092 0.944420 0.534610 -0.105404
C94   C     C_R   0.418008 0.003610 0.391062 -0.069411
C95   C     C_R   0.914697 0.442777 0.535570 -0.105000
C96   C     C_R   0.919207 0.496034 0.391206 -0.067557
C97   C     C_R   0.902065 0.352651 0.484831 -0.118843
C98   C     C_R   0.900106 0.381084 0.413066 -0.080065
C99   C     C_R   0.401659 0.856516 0.482676 -0.116834
C100  C     C_R   0.398525 0.888175 0.411440 -0.078530
H37   H     H_    0.413949 0.914082 0.588736 0.172642
H38   H     H_    0.418195 0.024179 0.334764 0.116125
H39   H     H_    0.912758 0.414378 0.589970 0.171145
H40   H     H_    0.919794 0.514318 0.334640 0.117056
H41   H     H_    0.892358 0.260605 0.501345 0.121947
H42   H     H_    0.887926 0.311903 0.374142 0.143930
H43   H     H_    0.392902 0.763461 0.497618 0.125324
H44   H     H_    0.386068 0.820718 0.371632 0.146342
C101  C     C_R   0.761824 0.925355 0.574106 0.004409
C102  C     C_R   0.207850 0.844726 0.437004 -0.018884
C103  C     C_R   0.274975 0.386587 0.566983 -0.000118
C104  C     C_R   0.710325 0.347207 0.437215 -0.020167
C105  C     C_R   0.820859 0.939425 0.528709 0.029060
C106  C     C_R   0.172020 0.946698 0.466473 0.029793
C107  C     C_R   0.331897 0.402551 0.520392 0.013312
C108  C     C_R   0.677464 0.452112 0.466070 0.031605
C109  C     C_R   0.812582 0.914719 0.456314 0.000454
C110  C     C_R   0.200457 0.998425 0.526519 0.015709
C111  C     C_R   0.319205 0.396837 0.447216 0.008234
C112  C     C_R   0.708360 0.504390 0.524477 0.012023
C113  C     C_R   0.687192 0.925338 0.472678 -0.045253
C114  C     C_R   0.261463 0.807310 0.551282 -0.049388
C115  C     C_R   0.194932 0.412828 0.471410 -0.047732
C116  C     C_R   0.760459 0.308057 0.552820 -0.047870
C117  C     C_R   0.695774 0.927167 0.545762 -0.188580
C118  C     C_R   0.247841 0.769987 0.481430 -0.172669
C119  C     C_R   0.207657 0.402674 0.543051 -0.173120
C120  C     C_R   0.747745 0.269915 0.482775 -0.175384
C121  C     C_R   0.887158 0.980859 0.551180 -0.077361
C122  C     C_R   0.111867 0.003876 0.436079 -0.094141
C123  C     C_R   0.399672 0.433813 0.542827 -0.087662
C124  C     C_R   0.616135 0.508167 0.438673 -0.096074
C125  C     C_R   0.942194 0.985602 0.504305 -0.157125
C126  C     C_R   0.086075 0.113288 0.461131 -0.139047
C127  C     C_R   0.450597 0.458688 0.493407 -0.147725
C128  C     C_R   0.590867 0.616493 0.466261 -0.138863
C129  C     C_R   0.934090 0.945847 0.434549 -0.112308
C130  C     C_R   0.118756 0.167445 0.517652 -0.117293
C131  C     C_R   0.439082 0.436261 0.421448 -0.113714
C132  C     C_R   0.627344 0.672269 0.520059 -0.104281
C133  C     C_R   0.871066 0.901928 0.412141 -0.076634
C134  C     C_R   0.180950 0.119062 0.541883 -0.078944
C135  C     C_R   0.375415 0.394164 0.399429 -0.079412
C136  C     C_R   0.691791 0.626025 0.539583 -0.074316
C137  C     C_R   0.746203 0.921666 0.427414 -0.010790
C138  C     C_R   0.243575 0.926545 0.571617 -0.003822
C139  C     C_R   0.251025 0.411882 0.422969 -0.004541
C140  C     C_R   0.746655 0.429317 0.571193 -0.001859
H45   H     H_    0.898391 0.018410 0.602849 0.176302
H46   H     H_    0.082010 0.963016 0.394476 0.147448
H47   H     H_    0.415530 0.447740 0.597008 0.177383
H48   H     H_    0.584292 0.464945 0.399635 0.144750
H49   H     H_    0.651226 0.924161 0.581005 0.124863
H50   H     H_    0.269645 0.685523 0.461332 0.139569
H51   H     H_    0.164678 0.401579 0.580352 0.138256
H52   H     H_    0.766709 0.182672 0.464091 0.137595
H53   H     H_    0.991437 0.014652 0.524745 0.122987
H54   H     H_    0.039359 0.153168 0.438474 0.133307
H55   H     H_    0.500558 0.483927 0.513441 0.121265
H56   H     H_    0.541791 0.653900 0.447840 0.136474
H57   H     H_    0.975419 0.947648 0.396736 0.104668
H58   H     H_    0.096482 0.247455 0.542067 0.126239
H59   H     H_    0.478295 0.449349 0.381833 0.107081
H60   H     H_    0.605247 0.750115 0.546632 0.125065
H61   H     H_    0.866487 0.869994 0.357627 0.114587
H62   H     H_    0.211761 0.173234 0.575739 0.158689
H63   H     H_    0.368248 0.373924 0.343348 0.115595
H64   H     H_    0.725070 0.678483 0.572694 0.159537
C141  C     C_1   0.617401 0.909102 0.447204 0.239649
N1    N     N_1   0.561346 0.889692 0.428574 -0.288023
C142  C     C_1   0.297378 0.726629 0.599472 0.189255
N2    N     N_1   0.326540 0.663334 0.638569 -0.283735
C143  C     C_1   0.123161 0.410994 0.450326 0.230861
N3    N     N_1   0.065147 0.403036 0.435489 -0.284959
C144  C     C_1   0.787683 0.226561 0.605839 0.179458
N4    N     N_1   0.808839 0.165525 0.650914 -0.313033
N5    N     N_2   0.879662 0.980106 0.077087 -0.489090
H65   H     H_    0.918749 0.007739 0.043662 0.224936
C145  C     C_3   0.905523 0.904041 0.134463 -0.273086
H66   H     H_    0.960684 0.881413 0.125215 0.136608
H67   H     H_    0.875849 0.818552 0.139335 0.126035
H68   H     H_    0.903937 0.954663 0.185616 0.169525
N6    N     N_2   0.119046 0.983799 0.921459 -0.492134
H69   H     H_    0.080256 0.015358 0.954620 0.225036
C146  C     C_3   0.091942 0.916386 0.861055 -0.262778
H70   H     H_    0.039999 0.881190 0.874263 0.138972
H71   H     H_    0.126409 0.839551 0.845142 0.135509
H72   H     H_    0.085156 0.978236 0.815133 0.168857
N7    N     N_2   0.381055 0.484898 0.078417 -0.487788
H73   H     H_    0.419217 0.516298 0.045149 0.225733
C147  C     C_3   0.409487 0.420366 0.139180 -0.268653
H74   H     H_    0.461803 0.384944 0.125845 0.141064
H75   H     H_    0.376105 0.344267 0.156114 0.126659
H76   H     H_    0.415890 0.484350 0.184497 0.160516
N8    N     N_2   0.620190 0.478022 0.922252 -0.492858
H77   H     H_    0.580493 0.505896 0.955483 0.224609
C148  C     C_3   0.595955 0.399598 0.865098 -0.268608
H78   H     H_    0.540701 0.378317 0.873361 0.136430
H79   H     H_    0.626151 0.313229 0.861847 0.131763
H80   H     H_    0.598511 0.447560 0.813485 0.178693

loop_
_geom_bond_atom_site_label_1
_geom_bond_atom_site_label_2
_geom_bond_distance
_ccdc_geom_bond_type
O4    C12   1.279717 A    
O7    Cr3   1.971147 S    
O39   C19   1.283405 A    
C98   H42   1.080301 S    
C148  H79   1.111849 S    
C147  H74   1.104083 S    
C23   C139  1.438736 S    
C41   C57   1.405414 A    
Cr7   O51   1.986867 S    
C109  C137  1.386569 A    
O25   C21   1.297425 A    
C31   H3    1.106589 S    
C95   H39   1.071375 S    
C142  N2    1.156067 T    
O21   C9    1.294019 A    
C132  C136  1.384097 A    
C93   H37   1.072562 S    
C1    O9    1.277191 A    
O44   Cr12  2.078229 S    
C120  H52   1.082285 S    
C3    O11   1.275257 A    
C4    O12   1.284739 A    
C25   C34   1.533172 S    
C124  H48   1.066859 S    
C96   H40   1.082723 S    
C29   C38   1.545830 S    
O2    C10   1.276119 A    
C112  C140  1.410564 A    
C63   H15   1.079783 S    
C99   C100  1.385823 A    
C100  H44   1.079551 S    
O17   Cr9   2.107838 S    
C54   C58   1.389137 A    
C116  C120  1.400233 A    
O9    Cr5   2.085391 S    
O31   Cr3   1.950156 S    
C108  C124  1.421929 A    
C13   C104  1.457767 S    
O16   Cr8   1.979161 S    
C91   C92   1.379078 A    
C55   N7    1.435706 S    
C93   C99   1.396334 A    
C32   C36   1.531568 S    
C101  C105  1.431795 A    
O28   Cr4   2.084061 S    
O12   Cr8   2.067185 S    
O22   Cr10  1.960064 S    
O15   C7    1.278252 A    
O46   Cr10  1.986101 S    
C81   C90   1.390315 A    
C115  C143  1.434343 S    
O48   C24   1.284072 A    
C7    C35   1.471735 S    
C84   C91   1.393245 A    
C49   C73   1.407778 A    
C53   C57   1.388646 A    
C50   C78   1.411270 A    
C21   C137  1.449001 S    
C106  C110  1.374984 A    
C133  H61   1.084312 S    
C105  C121  1.420191 A    
C60   H20   1.080061 S    
C126  H54   1.082926 S    
C116  C144  1.439251 S    
C105  C109  1.394042 A    
C25   H5    1.104578 S    
C59   H19   1.080285 S    
O5    Cr1   1.971147 S    
Cr12  O52   1.986054 S    
C26   C33   1.530048 S    
C27   H7    1.108506 S    
C119  H51   1.085097 S    
C17   O41   1.269069 A    
C43   C47   1.413417 A    
C30   C37   1.540167 S    
C19   O43   1.270056 A    
C20   O44   1.283870 A    
C24   C140  1.445620 S    
C146  H71   1.110431 S    
C6    C34   1.470773 S    
O46   C22   1.291446 A    
O19   Cr11  2.107838 S    
C122  C126  1.380419 A    
C145  H67   1.111246 S    
C52   C80   1.412159 A    
C4    C41   1.485276 S    
C58   H18   1.079905 S    
C16   O36   1.244956 A    
H35   C91   1.063024 S    
Cr8   O52   2.004280 S    
O27   C23   1.290072 A    
C131  C135  1.374801 A    
O31   C15   1.333798 A    
O16   C8    1.284001 A    
C121  H45   1.074912 S    
C83   C87   1.430061 A    
O32   C16   1.314332 A    
O47   Cr11  1.983906 S    
C113  C117  1.382083 A    
C39   C40   1.542612 S    
C123  H47   1.071977 S    
N8    C148  1.452905 S    
O5    C1    1.291773 A    
C18   C81   1.463609 S    
O24   C12   1.287414 A    
C147  H75   1.110264 S    
C11   C79   1.478220 S    
C126  C130  1.368899 A    
C9    C77   1.476930 S    
C47   C63   1.407720 A    
C124  C128  1.383429 A    
C42   C46   1.413302 A    
C45   C61   1.407419 A    
O32   Cr4   1.963821 S    
C26   H6    1.107900 S    
C125  C129  1.387814 A    
C2    C43   1.483837 S    
C51   C75   1.407102 A    
C52   C76   1.407678 A    
O11   Cr7   2.085391 S    
O27   Cr3   2.092509 S    
O3    Cr3   2.067975 S    
C38   H10   1.110112 S    
C42   C58   1.406905 A    
O8    C4    1.297716 A    
Cr5   O49   1.986867 S    
C70   C74   1.386366 A    
N5    H65   1.030279 S    
C102  C118  1.399318 A    
C131  H59   1.072211 S    
C132  H60   1.074829 S    
C17   C82   1.453838 S    
C109  C133  1.404712 A    
C32   C39   1.546537 S    
C128  H56   1.082389 S    
O22   C10   1.291509 A    
C129  H57   1.067678 S    
C2    O10   1.282406 A    
C27   C28   1.547389 S    
C65   C71   1.391818 A    
C115  C139  1.412900 A    
C71   C75   1.386362 A    
C45   C49   1.419658 A    
C54   N6    1.434652 S    
C66   H22   1.073035 S    
C62   H14   1.079828 S    
C47   C51   1.418772 A    
O3    C11   1.280241 A    
C56   C60   1.389110 A    
C67   H23   1.072464 S    
N7    H73   1.029144 S    
C54   C78   1.412219 A    
Cr1   O49   2.011576 S    
C114  C142  1.442570 S    
Cr3   O51   2.011576 S    
C29   H1    1.097582 S    
C40   H12   1.106916 S    
O26   Cr2   2.084061 S    
C5    O17   1.263916 A    
O29   C13   1.330791 A    
O28   C24   1.262127 A    
O14   C6    1.277760 A    
C35   C39   1.528387 S    
C86   C94   1.412125 A    
C72   C76   1.387032 A    
C65   H21   1.072341 S    
O40   Cr8   1.947811 S    
C61   H13   1.080023 S    
O41   Cr9   2.068342 S    
C64   H16   1.079948 S    
C53   C77   1.407829 A    
C50   C74   1.406981 A    
C32   H4    1.097568 S    
C56   C80   1.406689 A    
O33   Cr5   2.098083 S    
C110  C134  1.407058 A    
C121  C125  1.380062 A    
C97   C98   1.386090 A    
C69   C73   1.386987 A    
O29   Cr1   1.950156 S    
C16   C101  1.450344 S    
N6    H69   1.029578 S    
C1    C44   1.486744 S    
C123  C127  1.381794 A    
C3    C42   1.485410 S    
Cr9   O49   2.003394 S    
C95   C97   1.395281 A    
C18   O42   1.277967 A    
Cr11  O51   2.003394 S    
O26   C22   1.260721 A    
O20   Cr12  2.109609 S    
C97   H41   1.081463 S    
C144  N4    1.155205 T    
C83   C92   1.390058 A    
C117  H49   1.084851 S    
C64   C66   1.388179 A    
C31   C40   1.540401 S    
O38   C18   1.324688 A    
H34   C90   1.083733 S    
C30   H2    1.107307 S    
C14   C103  1.434177 S    
C94   H38   1.082849 S    
C82   C86   1.406095 A    
C33   C37   1.540535 S    
C116  C140  1.401996 A    
C145  H66   1.100878 S    
C26   C30   1.542963 S    
C8    C36   1.475546 S    
C48   C52   1.420795 A    
C20   C83   1.466939 S    
O42   Cr10  2.078229 S    
O18   Cr10  2.109609 S    
C141  N1    1.153484 T    
C101  C117  1.375120 A    
O34   Cr6   2.096794 S    
O6    Cr2   1.960873 S    
C10   C78   1.480130 S    
O24   Cr12  1.960064 S    
O30   Cr2   1.963821 S    
C75   H31   1.082652 S    
O48   Cr12  1.986101 S    
C8    O20   1.262317 A    
C46   C62   1.407454 A    
C68   C70   1.392009 A    
C51   C79   1.410444 A    
N8    H77   1.030618 S    
O37   C17   1.279772 A    
C15   O35   1.290386 A    
Cr10  O50   1.986054 S    
C43   C59   1.406763 A    
C36   C40   1.541724 S    
O43   Cr11  2.068342 S    
C44   C60   1.406179 A    
O37   Cr5   1.963643 S    
O21   Cr9   1.947484 S    
C146  H70   1.104376 S    
C107  C111  1.396279 A    
O39   Cr7   1.963643 S    
C28   H8    1.104091 S    
O45   Cr9   1.983906 S    
C13   O33   1.293894 A    
O13   Cr5   1.981311 S    
O15   Cr7   1.981311 S    
C31   C35   1.539767 S    
C22   C138  1.454699 S    
C96   C98   1.388254 A    
O30   C14   1.324629 A    
C111  C139  1.394667 A    
C130  H58   1.077412 S    
C106  C122  1.430331 A    
C12   C80   1.478689 S    
C130  C134  1.381138 A    
C127  C131  1.389943 A    
C27   C36   1.530283 S    
C48   C64   1.407343 A    
O6    C2    1.297908 A    
C129  C133  1.373094 A    
C56   N8    1.433610 S    
O1    Cr1   2.067975 S    
C55   C79   1.413563 A    
C87   C88   1.416839 A    
C37   C38   1.543048 S    
C114  C138  1.406687 A    
C85   C86   1.412813 A    
O45   C21   1.263414 A    
O47   C23   1.267117 A    
C89   C90   1.382754 A    
O13   C5    1.284594 A    
C104  C120  1.403159 A    
O40   C20   1.324633 A    
C127  H55   1.069156 S    
C6    O18   1.263409 A    
C62   C68   1.388672 A    
C25   C26   1.548087 S    
O36   Cr8   2.096794 S    
C5    C33   1.475789 S    
O38   Cr6   1.947811 S    
C103  C107  1.416239 A    
C69   H27   1.079781 S    
C70   H28   1.078966 S    
N6    C146  1.450863 S    
C63   C65   1.388408 A    
C148  H78   1.101661 S    
C28   C32   1.544888 S    
O1    C9    1.284141 A    
O7    C3    1.291868 A    
C112  C136  1.403091 A    
C68   H24   1.072908 S    
C107  C123  1.413276 A    
C110  C138  1.422420 A    
C146  H72   1.109474 S    
C55   C59   1.388571 A    
C114  C118  1.397357 A    
O23   Cr11  1.947484 S    
C145  H68   1.108578 S    
C41   C45   1.414783 A    
C29   C33   1.532728 S    
C104  C108  1.418050 A    
C72   H26   1.079902 S    
C53   N5    1.434519 S    
C82   C89   1.397111 A    
C7    O19   1.265747 A    
Cr4   O52   2.011216 S    
C73   H29   1.082365 S    
O2    Cr2   2.084469 S    
C37   H9    1.106492 S    
Cr6   O50   2.004280 S    
C134  H62   1.054563 S    
C61   C67   1.387798 A    
C103  C119  1.378555 A    
C25   C29   1.545094 S    
C49   C77   1.411444 A    
O35   Cr7   2.098083 S    
C94   C100  1.387073 A    
H33   C89   1.068624 S    
C66   C72   1.391600 A    
C147  H76   1.109615 S    
H36   C92   1.083723 S    
C81   C85   1.426946 A    
C125  H53   1.071566 S    
C102  C106  1.422841 A    
C27   C31   1.543916 S    
C84   C88   1.408849 A    
C136  H64   1.063561 S    
C46   C50   1.419946 A    
C28   C35   1.534487 S    
C99   H43   1.080555 S    
C143  N3    1.152618 T    
C115  C119  1.371904 A    
Cr2   O50   2.011216 S    
O14   Cr6   1.979161 S    
C74   H30   1.082578 S    
N5    C145  1.453054 S    
O8    Cr4   1.960873 S    
C148  H80   1.108651 S    
C113  C141  1.435365 S    
C34   C38   1.528427 S    
C67   C69   1.391354 A    
O25   Cr1   2.092509 S    
C30   C34   1.540563 S    
C87   C95   1.415200 A    
C85   C93   1.414567 A    
C57   H17   1.080220 S    
C14   O34   1.266345 A    
C135  H63   1.084006 S    
C113  C137  1.419774 A    
N7    C147  1.451141 S    
C111  C135  1.406770 A    
O23   C11   1.298334 A    
O10   Cr6   2.067185 S    
C19   C84   1.461210 S    
O4    Cr4   2.084469 S    
C76   H32   1.082326 S    
C71   H25   1.078963 S    
C118  H50   1.083799 S    
C88   C96   1.412478 A    
C15   C102  1.457520 S    
C128  C132  1.373861 A    
C39   H11   1.110188 S    
C122  H46   1.068192 S    
C108  C112  1.372399 A    
C44   C48   1.414752 A    
