data_mof_unit_18742.cif
_audit_creation_date              2012-12-10T19:00:47-0500
_audit_creation_method            fapswitch 2.2
_symmetry_space_group_name_H-M    P1
_symmetry_Int_Tables_number       1
_space_group_crystal_system       triclinic
_cell_length_a                    14.974742
_cell_length_b                    11.074444
_cell_length_c                    9.608992
_cell_angle_alpha                 91.809868
_cell_angle_beta                  89.206514
_cell_angle_gamma                 90.416838
_cell_volume                      1592.54088264

loop_
_atom_site_label
_atom_site_type_symbol
_atom_type_description
_atom_site_fract_x
_atom_site_fract_y
_atom_site_fract_z
_atom_type_partial_charge
C1    C     C_R   0.496838 0.262809 0.499350 0.805155
C2    C     C_R   0.907812 0.612448 0.464958 -0.047185
C3    C     C_R   0.956953 0.284669 0.423676 -0.200290
C4    C     C_R   0.048148 0.282953 0.448766 0.251843
C5    C     C_R   0.094844 0.392278 0.469016 0.084121
C6    C     C_R   0.048511 0.502499 0.460859 -0.038746
C7    C     C_R   0.095837 0.612493 0.453495 -0.096952
C8    C     C_R   0.049150 0.715650 0.413858 0.237610
C9    C     C_R   0.955309 0.718748 0.428354 0.287281
C10   C     C_R   0.186889 0.394654 0.490055 -0.236761
C11   C     C_R   0.232664 0.504314 0.498230 -0.158204
C12   C     C_R   0.329174 0.501804 0.500421 0.858197
C13   C     C_R   0.188383 0.613931 0.479644 0.443703
C14   C     C_R   0.496845 0.067120 0.625765 0.023220
C15   C     C_R   0.494835 0.130118 0.501097 -0.080756
C16   C     C_R   0.497355 0.059804 0.376770 -0.229935
C17   C     C_R   0.500029 0.932777 0.379514 -0.180846
C18   C     C_R   0.506991 0.871657 0.506346 -0.059153
C19   C     C_R   0.512618 0.945751 0.628937 -0.001355
C20   C     C_3   0.519035 0.949731 0.787064 0.473568
C21   C     C_3   0.495037 0.086136 0.780960 0.532029
C22   C     C_R   0.576761 0.522455 0.073252 0.185746
C23   C     C_R   0.503246 0.737796 0.502508 0.865968
C24   C     C_R   0.426919 0.466405 0.076478 -0.107218
C25   C     C_R   0.426375 0.464443 0.929581 0.396199
C26   C     C_R   0.578016 0.515776 0.925411 0.047335
C27   C     C_3   0.638728 0.622439 0.915831 0.232221
C28   C     C_3   0.624627 0.640714 0.072575 -0.004645
C29   C     C_R   0.671285 0.496674 0.498110 0.913513
C30   C     C_R   0.815321 0.608325 0.498195 0.276914
C31   C     C_R   0.768991 0.497368 0.489845 -0.247222
C32   C     C_R   0.814505 0.389834 0.453313 0.364036
C33   C     C_R   0.908160 0.391449 0.444560 0.006820
C34   C     C_R   0.954633 0.502155 0.457781 -0.079138
Cu1   Cu    Cu3+1 0.500000 0.499980 0.640670 1.037694
Cu2   Cu    Cu3+1 0.500000 0.500020 0.359330 1.005367
H1    H     H_    0.497118 0.882728 0.281056 0.171002
H2    H     H_    0.367814 0.438775 0.133041 0.173926
H3    H     H_    0.608812 0.693703 0.853260 0.178233
H4    H     H_    0.576400 0.712602 0.102234 0.104017
H5    H     H_    0.924565 0.200774 0.394677 0.212610
H6    H     H_    0.224543 0.311921 0.496115 0.200707
H7    H     H_    0.496126 0.102607 0.277191 0.160320
N1    N     N_R   0.500570 0.500930 0.147930 -0.216691
N2    N     N_R   0.500570 0.500890 0.852020 -0.201954
O1    O     O_R   0.500000 0.319640 0.618810 -0.520396
O2    O     O_R   0.500010 0.319680 0.381230 -0.600057
O3    O     O_R   0.370250 0.499950 0.618800 -0.540352
O4    O     O_R   0.370260 0.499990 0.381220 -0.588344
O5    O     O_R   0.499990 0.680320 0.618770 -0.556516
O6    O     O_R   0.500000 0.680360 0.381190 -0.574150
O7    O     O_R   0.629740 0.500010 0.618780 -0.595935
O8    O     O_R   0.629750 0.500050 0.381200 -0.525053
Br1   Br    Br    0.750641 0.745980 0.572494 -0.471618
Br2   Br    Br    0.428462 0.838743 0.862707 -0.643742
O9    O     O_3   0.609083 0.935064 0.830095 -0.603428
C35   C     C_3   0.619519 0.921763 0.976147 0.069383
H8    H     H_    0.668963 0.849491 0.985243 0.227793
H9    H     H_    0.557711 0.896791 0.032635 0.134756
C36   C     C_3   0.660713 0.031403 0.054319 -0.402209
H10   H     H_    0.711022 0.076768 0.989018 0.263118
H11   H     H_    0.607416 0.096076 0.085795 0.230856
C37   C     C_3   0.708072 0.995095 0.186119 -0.766703
H12   H     H_    0.663872 0.939281 0.251944 0.274513
H13   H     H_    0.728577 0.077257 0.247025 0.280189
H14   H     H_    0.768719 0.942599 0.157247 0.312008
O10   O     O_3   0.407397 0.112338 0.830176 -0.572940
C38   C     C_3   0.405255 0.125426 0.977588 0.124214
H15   H     H_    0.428721 0.217291 0.009075 0.181887
H16   H     H_    0.448241 0.058963 0.028695 0.128837
C39   C     C_3   0.309422 0.107647 0.030756 -0.325681
H17   H     H_    0.262983 0.162105 0.969589 0.268298
H18   H     H_    0.290452 0.011106 0.017089 0.250517
C40   C     C_3   0.298734 0.143421 0.184612 -0.819590
H19   H     H_    0.226787 0.141943 0.213349 0.304726
H20   H     H_    0.325305 0.235788 0.206541 0.241968
H21   H     H_    0.333582 0.077951 0.249390 0.273154
Br3   Br    Br    0.585622 0.206031 0.837378 -0.669411
Br4   Br    Br    0.318121 0.395669 0.856838 -0.496068
O11   O     O_3   0.731114 0.604631 0.879952 -0.531243
C41   C     C_3   0.760190 0.483902 0.853939 0.140363
H22   H     H_    0.809886 0.486664 0.767442 0.151432
H23   H     H_    0.707602 0.420147 0.818671 0.161749
C42   C     C_3   0.807292 0.434261 0.980274 -0.316099
H24   H     H_    0.857815 0.500835 0.018747 0.271968
H25   H     H_    0.757522 0.417643 0.064357 0.253852
C43   C     C_3   0.854437 0.315662 0.943768 -0.893666
H26   H     H_    0.805124 0.246953 0.908066 0.260316
H27   H     H_    0.887922 0.282445 0.037467 0.283824
H28   H     H_    0.905490 0.328613 0.860462 0.259701
Br5   Br    Br    0.732195 0.656756 0.181758 -0.473476
O12   O     O_3   0.767529 0.285103 0.418831 -0.616116
C44   C     C_3   0.740261 0.225360 0.540386 0.019083
H29   H     H_    0.674674 0.182710 0.518313 0.190640
H30   H     H_    0.730557 0.286575 0.633189 0.141524
C45   C     C_3   0.806460 0.126227 0.573288 -0.420523
H31   H     H_    0.822721 0.074116 0.476263 0.285693
H32   H     H_    0.867890 0.167084 0.618470 0.226700
C46   C     C_3   0.768380 0.039171 0.676462 -0.663530
H33   H     H_    0.750840 0.088846 0.773416 0.254631
H34   H     H_    0.819132 0.970515 0.700095 0.289918
H35   H     H_    0.708174 0.994648 0.632253 0.307841
Br6   Br    Br    0.104050 0.128590 0.458100 -0.506742
O13   O     O_3   0.236344 0.721388 0.482331 -0.584405
C47   C     C_3   0.247918 0.763620 0.621572 0.075737
H36   H     H_    0.302781 0.831595 0.620050 0.212352
H37   H     H_    0.269519 0.691079 0.691203 0.170973
C48   C     C_3   0.163246 0.824810 0.681025 -0.356869
H38   H     H_    0.137285 0.888786 0.605158 0.295038
H39   H     H_    0.111083 0.755519 0.701428 0.207876
C49   C     C_3   0.182029 0.894881 0.816272 -0.780004
H40   H     H_    0.209781 0.834105 0.894409 0.282380
H41   H     H_    0.119142 0.934798 0.858762 0.270006
H42   H     H_    0.230107 0.969194 0.795701 0.282004
Br7   Br    Br    0.110195 0.837301 0.307035 -0.357707
Br8   Br    Br    0.895794 0.859116 0.363238 -0.431547

loop_
_geom_bond_atom_site_label_1
_geom_bond_atom_site_label_2
_ccdc_geom_bond_type
C8    C9    A    
C43   H26   S    
C37   H13   S    
C44   H29   S    
C10   H6    S    
C49   H40   S    
C42   C43   S    
C12   O3    A    
C12   O4    A    
C7    C8    A    
C32   O12   S    
O9    C35   S    
C47   H37   S    
C26   C27   S    
C40   H20   S    
C36   C37   S    
C14   C21   S    
C42   H25   S    
C30   C31   A    
C1    O1    A    
C35   H9    S    
C3    C33   A    
C15   C16   A    
C45   C46   S    
C48   H38   S    
Cu2   O2    S    
C36   H11   S    
C18   C19   A    
Cu2   O8    S    
C8    Br7   S    
C38   H15   S    
C22   N1    A    
Cu1   Cu2   S    
C27   H3    S    
C16   C17   A    
C40   H21   S    
C45   H32   S    
C21   Br3   S    
C24   H2    S    
C1    C15   S    
C49   H42   S    
C26   N2    A    
C20   O9    S    
C2    C34   A    
C37   H14   S    
C44   H30   S    
C22   C28   S    
C21   O10   S    
C20   Br2   S    
Cu1   O3    S    
O13   C47   S    
C41   H23   S    
C41   H22   S    
C47   C48   S    
C4    Br6   S    
C40   H19   S    
C18   C23   S    
C24   C25   A    
C27   O11   S    
C39   H18   S    
C1    O2    A    
C35   C36   S    
O10   C38   S    
C36   H10   S    
C2    C9    A    
C30   Br1   S    
C23   O6    A    
C31   C32   A    
C7    C13   A    
C45   H31   S    
Cu1   O5    S    
C17   C18   A    
C49   H41   S    
C17   H1    S    
C42   H24   S    
C13   O13   S    
C16   H7    S    
Cu2   O6    S    
C46   H34   S    
C44   C45   S    
C43   H27   S    
C24   N1    A    
Cu2   N1    S    
C3    C4    A    
Cu1   N2    S    
C25   N2    A    
Cu1   O7    S    
C41   C42   S    
C3    H5    S    
C25   Br4   S    
C9    Br8   S    
C14   C19   A    
O11   C41   S    
C23   O5    A    
C39   C40   S    
C11   C12   S    
C48   H39   S    
C6    C7    A    
C47   H36   S    
C48   C49   S    
C2    C30   A    
C32   C33   A    
C19   C20   S    
C5    C10   A    
C29   C31   S    
C46   H33   S    
C11   C13   A    
C35   H8    S    
C5    C6    A    
C29   O8    A    
C38   C39   S    
O12   C44   S    
C33   C34   A    
C28   Br5   S    
C10   C11   A    
C37   H12   S    
C6    C34   A    
C4    C5    A    
C46   H35   S    
C39   H17   S    
C20   C21   S    
C38   H16   S    
C22   C26   A    
C43   H28   S    
C27   C28   S    
C28   H4    S    
C14   C15   A    
Cu1   O1    S    
Cu2   O4    S    
C29   O7    A    
