data_mof_unit_63341.cif
_audit_creation_date              2013-03-05T16:14:58-0500
_audit_creation_method            fapswitch 2.2
_symmetry_space_group_name_H-M    P1
_symmetry_Int_Tables_number       1
_space_group_crystal_system       triclinic
_cell_length_a                    26.198704
_cell_length_b                    34.563912
_cell_length_c                    34.564547
_cell_angle_alpha                 89.999916
_cell_angle_beta                  90.008949
_cell_angle_gamma                 89.999967
_cell_volume                      31299.2234789

loop_
_atom_site_label
_atom_site_type_symbol
_atom_site_description
_atom_site_fract_x
_atom_site_fract_y
_atom_site_fract_z
_atom_type_partial_charge
Zn1   Zn    Zn3+2 0.792920 0.967500 0.217510 1.013697
Zn2   Zn    Zn3+2 0.792920 0.967500 0.782490 1.017470
Zn3   Zn    Zn3+2 0.207080 0.967500 0.217510 1.016391
Zn4   Zn    Zn3+2 0.207080 0.967500 0.782490 1.014410
Zn5   Zn    Zn3+2 0.292920 0.467500 0.217510 1.014128
Zn6   Zn    Zn3+2 0.292920 0.467500 0.782490 1.016698
Zn7   Zn    Zn3+2 0.707080 0.467500 0.217510 1.016640
Zn8   Zn    Zn3+2 0.707080 0.467500 0.782490 1.014533
Zn9   Zn    Zn3+2 0.292920 0.967500 0.717510 1.014322
Zn10  Zn    Zn3+2 0.292920 0.967500 0.282490 1.016558
Zn11  Zn    Zn3+2 0.707080 0.967500 0.717510 1.016440
Zn12  Zn    Zn3+2 0.707080 0.967500 0.282490 1.014665
Zn13  Zn    Zn3+2 0.792920 0.467500 0.717510 1.014436
Zn14  Zn    Zn3+2 0.792920 0.467500 0.282490 1.016795
Zn15  Zn    Zn3+2 0.207080 0.467500 0.717510 1.015964
Zn16  Zn    Zn3+2 0.207080 0.467500 0.282490 1.015397
Zn17  Zn    Zn3+2 0.707080 0.032480 0.217500 0.973797
Zn18  Zn    Zn3+2 0.707080 0.032480 0.782500 0.971465
Zn19  Zn    Zn3+2 0.292920 0.032480 0.217500 0.971288
Zn20  Zn    Zn3+2 0.292920 0.032480 0.782500 0.973842
Zn21  Zn    Zn3+2 0.207080 0.532480 0.217500 0.973734
Zn22  Zn    Zn3+2 0.207080 0.532480 0.782500 0.971383
Zn23  Zn    Zn3+2 0.792920 0.532480 0.217500 0.971361
Zn24  Zn    Zn3+2 0.792920 0.532480 0.782500 0.973302
Zn25  Zn    Zn3+2 0.207080 0.032480 0.717500 0.973727
Zn26  Zn    Zn3+2 0.207080 0.032480 0.282500 0.971420
Zn27  Zn    Zn3+2 0.792920 0.032480 0.717500 0.971345
Zn28  Zn    Zn3+2 0.792920 0.032480 0.282500 0.973237
Zn29  Zn    Zn3+2 0.707080 0.532480 0.717500 0.973175
Zn30  Zn    Zn3+2 0.707080 0.532480 0.282500 0.971484
Zn31  Zn    Zn3+2 0.292920 0.532480 0.717500 0.971538
Zn32  Zn    Zn3+2 0.292920 0.532480 0.282500 0.973458
O1    O     O_3   0.750000 0.999990 0.250000 -0.488500
O2    O     O_3   0.750000 0.999990 0.750000 -0.488808
O3    O     O_3   0.250000 0.999990 0.250000 -0.488597
O4    O     O_3   0.250000 0.999990 0.750000 -0.488646
O5    O     O_3   0.250000 0.499990 0.250000 -0.488759
O6    O     O_3   0.250000 0.499990 0.750000 -0.488568
O7    O     O_3   0.750000 0.499990 0.250000 -0.488696
O8    O     O_3   0.750000 0.499990 0.750000 -0.488529
O9    O     O_R   0.635430 0.977260 0.272720 -0.587084
O10   O     O_R   0.635430 0.977260 0.727280 -0.587758
O11   O     O_R   0.364570 0.977260 0.272720 -0.587224
O12   O     O_R   0.364570 0.977260 0.727280 -0.587255
O13   O     O_R   0.135430 0.477260 0.272720 -0.585342
O14   O     O_R   0.135430 0.477260 0.727280 -0.589383
O15   O     O_R   0.864570 0.477260 0.272720 -0.587360
O16   O     O_R   0.864570 0.477260 0.727280 -0.587296
O17   O     O_R   0.135430 0.977260 0.772720 -0.587262
O18   O     O_R   0.135430 0.977260 0.227280 -0.587343
O19   O     O_R   0.864570 0.977260 0.772720 -0.585326
O20   O     O_R   0.864570 0.977260 0.227280 -0.589222
O21   O     O_R   0.635430 0.477260 0.772720 -0.587297
O22   O     O_R   0.635430 0.477260 0.227280 -0.587472
O23   O     O_R   0.364570 0.477260 0.772720 -0.586938
O24   O     O_R   0.364570 0.477260 0.227280 -0.587466
O25   O     O_R   0.719960 0.022730 0.163260 -0.646162
O26   O     O_R   0.719960 0.022730 0.836740 -0.646650
O27   O     O_R   0.280040 0.022730 0.163260 -0.645351
O28   O     O_R   0.280040 0.022730 0.836740 -0.647624
O29   O     O_R   0.219960 0.522730 0.163260 -0.647677
O30   O     O_R   0.219960 0.522730 0.836740 -0.645288
O31   O     O_R   0.780040 0.522730 0.163260 -0.646321
O32   O     O_R   0.780040 0.522730 0.836740 -0.647402
O33   O     O_R   0.219960 0.022730 0.663260 -0.647666
O34   O     O_R   0.219960 0.022730 0.336740 -0.645304
O35   O     O_R   0.780040 0.022730 0.663260 -0.646341
O36   O     O_R   0.780040 0.022730 0.336740 -0.647401
O37   O     O_R   0.719960 0.522730 0.663260 -0.647456
O38   O     O_R   0.719960 0.522730 0.336740 -0.646279
O39   O     O_R   0.280040 0.522730 0.663260 -0.644837
O40   O     O_R   0.280040 0.522730 0.336740 -0.648758
O41   O     O_R   0.719950 0.086720 0.227250 -0.642725
O42   O     O_R   0.719950 0.086720 0.772750 -0.645744
O43   O     O_R   0.280050 0.086720 0.227250 -0.645720
O44   O     O_R   0.280050 0.086720 0.772750 -0.642971
O45   O     O_R   0.219950 0.586720 0.227250 -0.642787
O46   O     O_R   0.219950 0.586720 0.772750 -0.646013
O47   O     O_R   0.780050 0.586720 0.227250 -0.644306
O48   O     O_R   0.780050 0.586720 0.772750 -0.644430
O49   O     O_R   0.219950 0.086720 0.727250 -0.642976
O50   O     O_R   0.219950 0.086720 0.272750 -0.645718
O51   O     O_R   0.780050 0.086720 0.727250 -0.644110
O52   O     O_R   0.780050 0.086720 0.272750 -0.644723
O53   O     O_R   0.719950 0.586720 0.727250 -0.644432
O54   O     O_R   0.719950 0.586720 0.272750 -0.644301
O55   O     O_R   0.280050 0.586720 0.727250 -0.644009
O56   O     O_R   0.280050 0.586720 0.272750 -0.644405
O57   O     O_R   0.719970 0.913260 0.272730 -0.643524
O58   O     O_R   0.719970 0.913260 0.727270 -0.636470
O59   O     O_R   0.280030 0.913260 0.272730 -0.638965
O60   O     O_R   0.280030 0.913260 0.727270 -0.641103
O61   O     O_R   0.219970 0.413260 0.272730 -0.642704
O62   O     O_R   0.219970 0.413260 0.727270 -0.637064
O63   O     O_R   0.780030 0.413260 0.272730 -0.636620
O64   O     O_R   0.780030 0.413260 0.727270 -0.643266
O65   O     O_R   0.219970 0.913260 0.772730 -0.641087
O66   O     O_R   0.219970 0.913260 0.227270 -0.638978
O67   O     O_R   0.780030 0.913260 0.772730 -0.638242
O68   O     O_R   0.780030 0.913260 0.227270 -0.641354
O69   O     O_R   0.719970 0.413260 0.772730 -0.643251
O70   O     O_R   0.719970 0.413260 0.227270 -0.636638
O71   O     O_R   0.280030 0.413260 0.772730 -0.639249
O72   O     O_R   0.280030 0.413260 0.227270 -0.640949
O73   O     O_R   0.780040 0.977250 0.163260 -0.635469
O74   O     O_R   0.780040 0.977250 0.836740 -0.640227
O75   O     O_R   0.219960 0.977250 0.163260 -0.638876
O76   O     O_R   0.219960 0.977250 0.836740 -0.637000
O77   O     O_R   0.280040 0.477250 0.163260 -0.637017
O78   O     O_R   0.280040 0.477250 0.836740 -0.638827
O79   O     O_R   0.719960 0.477250 0.163260 -0.641372
O80   O     O_R   0.719960 0.477250 0.836740 -0.633577
O81   O     O_R   0.280040 0.977250 0.663260 -0.637028
O82   O     O_R   0.280040 0.977250 0.336740 -0.638815
O83   O     O_R   0.719960 0.977250 0.663260 -0.641366
O84   O     O_R   0.719960 0.977250 0.336740 -0.633600
O85   O     O_R   0.780040 0.477250 0.663260 -0.633615
O86   O     O_R   0.780040 0.477250 0.336740 -0.641326
O87   O     O_R   0.219960 0.477250 0.663260 -0.639817
O88   O     O_R   0.219960 0.477250 0.336740 -0.634981
O89   O     O_R   0.635420 0.022730 0.227240 -0.672787
O90   O     O_R   0.635420 0.022730 0.772760 -0.669306
O91   O     O_R   0.364580 0.022730 0.227240 -0.671125
O92   O     O_R   0.364580 0.022730 0.772760 -0.671045
O93   O     O_R   0.135420 0.522730 0.227240 -0.671357
O94   O     O_R   0.135420 0.522730 0.772760 -0.670624
O95   O     O_R   0.864580 0.522730 0.227240 -0.671049
O96   O     O_R   0.864580 0.522730 0.772760 -0.671288
O97   O     O_R   0.135420 0.022730 0.727240 -0.671040
O98   O     O_R   0.135420 0.022730 0.272760 -0.671019
O99   O     O_R   0.864580 0.022730 0.727240 -0.671444
O100  O     O_R   0.864580 0.022730 0.272760 -0.670972
O101  O     O_R   0.635420 0.522730 0.727240 -0.671290
O102  O     O_R   0.635420 0.522730 0.272760 -0.670949
O103  O     O_R   0.364580 0.522730 0.727240 -0.672776
O104  O     O_R   0.364580 0.522730 0.272760 -0.669556
C1    C     C_R   0.611507 0.000749 0.250774 0.771968
C2    C     C_R   0.611507 0.999194 0.750775 0.773863
C3    C     C_R   0.388493 0.999192 0.249223 0.773655
C4    C     C_R   0.388492 0.000751 0.749223 0.773177
C5    C     C_R   0.111507 0.500749 0.250774 0.773280
C6    C     C_R   0.111507 0.499193 0.750775 0.772615
C7    C     C_R   0.888493 0.499192 0.249223 0.773627
C8    C     C_R   0.888493 0.500750 0.749224 0.772984
C9    C     C_R   0.111507 0.000750 0.750775 0.772702
C10   C     C_R   0.111507 0.999194 0.250775 0.773505
C11   C     C_R   0.888493 0.999192 0.749223 0.774487
C12   C     C_R   0.888492 0.000751 0.249223 0.772369
C13   C     C_R   0.611507 0.500749 0.750775 0.772511
C14   C     C_R   0.611507 0.499193 0.250775 0.773474
C15   C     C_R   0.388492 0.499192 0.749223 0.773229
C16   C     C_R   0.388492 0.500751 0.249223 0.773685
C17   C     C_R   0.750004 0.999995 0.144859 0.790151
C18   C     C_R   0.750002 0.999989 0.855142 0.785843
C19   C     C_R   0.249998 0.999989 0.144857 0.787416
C20   C     C_R   0.249996 0.999995 0.855141 0.788597
C21   C     C_R   0.250004 0.499995 0.144859 0.788529
C22   C     C_R   0.250001 0.499989 0.855143 0.787479
C23   C     C_R   0.750000 0.499988 0.144859 0.786110
C24   C     C_R   0.749998 0.499993 0.855142 0.789789
C25   C     C_R   0.250004 0.999995 0.644859 0.788529
C26   C     C_R   0.250002 0.999989 0.355143 0.787479
C27   C     C_R   0.750000 0.999988 0.644859 0.786080
C28   C     C_R   0.749998 0.999993 0.355142 0.789770
C29   C     C_R   0.750002 0.499993 0.644858 0.789727
C30   C     C_R   0.750000 0.499988 0.355141 0.786176
C31   C     C_R   0.250000 0.499988 0.644858 0.787727
C32   C     C_R   0.249998 0.499993 0.355142 0.788130
C33   C     C_R   0.749999 0.105119 0.250001 0.791321
C34   C     C_R   0.750002 0.105118 0.750001 0.787095
C35   C     C_R   0.250000 0.105118 0.250000 0.786472
C36   C     C_R   0.250000 0.105121 0.750000 0.791913
C37   C     C_R   0.249998 0.605120 0.250001 0.791247
C38   C     C_R   0.250001 0.605117 0.750001 0.787121
C39   C     C_R   0.750000 0.605118 0.250000 0.787788
C40   C     C_R   0.750000 0.605119 0.750000 0.790703
C41   C     C_R   0.750001 0.894854 0.250001 0.782378
C42   C     C_R   0.749998 0.894852 0.750001 0.790852
C43   C     C_R   0.250000 0.894853 0.250000 0.790509
C44   C     C_R   0.250000 0.894853 0.750000 0.783066
C45   C     C_R   0.250002 0.394853 0.250001 0.782027
C46   C     C_R   0.249999 0.394853 0.750001 0.791448
C47   C     C_R   0.750000 0.394852 0.250000 0.791844
C48   C     C_R   0.750000 0.394853 0.750000 0.781390
C49   C     C_R   0.708371 0.791838 0.265320 -0.172525
C50   C     C_R   0.729637 0.791835 0.718503 -0.170558
C51   C     C_R   0.291670 0.791840 0.265264 -0.172276
C52   C     C_R   0.270333 0.791834 0.718494 -0.171353
C53   C     C_R   0.229720 0.291838 0.281537 -0.171587
C54   C     C_R   0.208295 0.291843 0.734781 -0.171996
C55   C     C_R   0.770376 0.291837 0.281503 -0.170475
C56   C     C_R   0.791632 0.291838 0.734677 -0.172804
C57   C     C_R   0.229681 0.791837 0.781520 -0.171592
C58   C     C_R   0.208308 0.791842 0.234759 -0.172318
C59   C     C_R   0.770337 0.791838 0.781521 -0.170479
C60   C     C_R   0.791645 0.791839 0.234699 -0.172502
C61   C     C_R   0.708389 0.291836 0.765347 -0.172767
C62   C     C_R   0.729610 0.291835 0.218510 -0.170224
C63   C     C_R   0.291688 0.291842 0.765238 -0.172027
C64   C     C_R   0.270306 0.291835 0.218487 -0.171669
H1    H     H_    0.675352 0.776802 0.276664 0.137563
H2    H     H_    0.714551 0.776799 0.693513 0.134926
H3    H     H_    0.324719 0.776803 0.276564 0.138325
H4    H     H_    0.285401 0.776798 0.693502 0.135039
H5    H     H_    0.214679 0.276803 0.306540 0.134398
H6    H     H_    0.175233 0.276806 0.723503 0.138391
H7    H     H_    0.785487 0.276802 0.306485 0.134935
H8    H     H_    0.824641 0.276803 0.723315 0.137520
H9    H     H_    0.214614 0.776802 0.806513 0.134777
H10   H     H_    0.175257 0.776806 0.223462 0.138326
H11   H     H_    0.785422 0.776804 0.806512 0.134534
H12   H     H_    0.824665 0.776803 0.223356 0.137561
H13   H     H_    0.675383 0.276800 0.776711 0.137515
H14   H     H_    0.714498 0.276798 0.193530 0.135206
H15   H     H_    0.324750 0.276805 0.776517 0.138385
H16   H     H_    0.285348 0.276798 0.193485 0.134780
C65   C     C_R   0.708549 0.832101 0.265578 -0.175490
C66   C     C_R   0.729298 0.832098 0.718636 -0.167803
C67   C     C_R   0.291497 0.832104 0.265518 -0.171146
C68   C     C_R   0.270672 0.832098 0.718627 -0.172625
C69   C     C_R   0.229375 0.332102 0.281398 -0.173807
C70   C     C_R   0.208475 0.332106 0.734520 -0.169578
C71   C     C_R   0.770721 0.332100 0.281364 -0.167777
C72   C     C_R   0.791448 0.332101 0.734412 -0.175570
C73   C     C_R   0.229336 0.832100 0.781381 -0.172532
C74   C     C_R   0.208490 0.832105 0.234495 -0.171108
C75   C     C_R   0.770682 0.832101 0.781381 -0.169077
C76   C     C_R   0.791464 0.832102 0.234436 -0.174091
C77   C     C_R   0.708565 0.332099 0.765602 -0.175618
C78   C     C_R   0.729271 0.332097 0.218644 -0.167875
C79   C     C_R   0.291513 0.332105 0.765495 -0.171023
C80   C     C_R   0.270645 0.332098 0.218619 -0.172536
H17   H     H_    0.675942 0.847269 0.277458 0.169187
H18   H     H_    0.713506 0.847264 0.693960 0.163393
H19   H     H_    0.324140 0.847273 0.277347 0.173483
H20   H     H_    0.286444 0.847264 0.693947 0.162963
H21   H     H_    0.213628 0.347271 0.306086 0.161234
H22   H     H_    0.175821 0.347277 0.722708 0.173659
H23   H     H_    0.786541 0.347268 0.306029 0.163485
H24   H     H_    0.824041 0.347270 0.722511 0.169146
H25   H     H_    0.213563 0.847268 0.806059 0.162951
H26   H     H_    0.175850 0.847276 0.222663 0.173451
H27   H     H_    0.786475 0.847270 0.806056 0.161724
H28   H     H_    0.824069 0.847270 0.222556 0.169317
H29   H     H_    0.675969 0.347267 0.777500 0.169167
H30   H     H_    0.713452 0.347264 0.193977 0.163496
H31   H     H_    0.324167 0.347275 0.777305 0.173516
H32   H     H_    0.286390 0.347265 0.193930 0.162874
C81   C     C_R   0.750004 0.852484 0.250005 -0.006636
C82   C     C_R   0.749993 0.852483 0.750006 -0.000895
C83   C     C_R   0.249996 0.852486 0.250004 -0.010494
C84   C     C_R   0.250003 0.852483 0.750003 -0.001242
C85   C     C_R   0.250007 0.352484 0.250006 -0.000440
C86   C     C_R   0.249996 0.352487 0.750005 -0.010658
C87   C     C_R   0.749997 0.352482 0.250003 -0.001707
C88   C     C_R   0.750004 0.352484 0.750004 -0.006481
C89   C     C_R   0.750009 0.771321 0.250010 0.107237
C90   C     C_R   0.749986 0.771319 0.750013 0.108834
C91   C     C_R   0.249987 0.771324 0.250013 0.106469
C92   C     C_R   0.250008 0.771318 0.750008 0.109162
C93   C     C_R   0.250014 0.271319 0.250013 0.109361
C94   C     C_R   0.249991 0.271325 0.750010 0.106385
C95   C     C_R   0.749992 0.271318 0.250008 0.108620
C96   C     C_R   0.750012 0.271320 0.750013 0.107307
C97   C     C_R   0.770289 0.708137 0.218477 -0.172928
C98   C     C_R   0.791656 0.708134 0.765285 -0.172559
C99   C     C_R   0.229640 0.708141 0.218502 -0.172464
C100  C     C_R   0.208348 0.708133 0.765284 -0.173078
C101  C     C_R   0.291655 0.208133 0.234712 -0.173341
C102  C     C_R   0.270373 0.208140 0.781504 -0.172413
C103  C     C_R   0.708309 0.208132 0.234761 -0.172302
C104  C     C_R   0.729764 0.208133 0.781553 -0.173174
C105  C     C_R   0.291668 0.708133 0.734735 -0.173043
C106  C     C_R   0.270334 0.708138 0.281522 -0.172408
C107  C     C_R   0.708322 0.708133 0.734738 -0.172611
C108  C     C_R   0.729725 0.708134 0.281536 -0.173200
C109  C     C_R   0.770262 0.208136 0.718470 -0.173242
C110  C     C_R   0.791675 0.208133 0.265258 -0.172338
C111  C     C_R   0.229613 0.208142 0.718509 -0.172142
C112  C     C_R   0.208366 0.208135 0.265311 -0.173282
H33   H     H_    0.785321 0.723174 0.193473 0.134277
H34   H     H_    0.824697 0.723171 0.776600 0.136535
H35   H     H_    0.214554 0.723179 0.193513 0.134189
H36   H     H_    0.175312 0.723170 0.776600 0.135995
H37   H     H_    0.324681 0.223168 0.223379 0.135949
H38   H     H_    0.285483 0.223175 0.806486 0.134195
H39   H     H_    0.675254 0.223168 0.223467 0.136613
H40   H     H_    0.714760 0.223168 0.806569 0.133624
H41   H     H_    0.324705 0.723168 0.723420 0.136016
H42   H     H_    0.285418 0.723174 0.306512 0.133793
H43   H     H_    0.675278 0.723168 0.723426 0.136529
H44   H     H_    0.714694 0.723169 0.306542 0.133999
H45   H     H_    0.785268 0.223173 0.693457 0.134005
H46   H     H_    0.824728 0.223169 0.276553 0.136591
H47   H     H_    0.214501 0.223180 0.693529 0.134476
H48   H     H_    0.175343 0.223172 0.276647 0.135961
C113  C     C_R   0.770628 0.667874 0.218611 -0.182116
C114  C     C_R   0.791481 0.667871 0.765541 -0.182233
C115  C     C_R   0.229304 0.667878 0.218634 -0.180245
C116  C     C_R   0.208525 0.667870 0.765542 -0.183701
C117  C     C_R   0.291472 0.167870 0.234448 -0.183696
C118  C     C_R   0.270714 0.167876 0.781366 -0.180213
C119  C     C_R   0.708490 0.167869 0.234497 -0.180691
C120  C     C_R   0.729419 0.167870 0.781414 -0.183134
C121  C     C_R   0.291487 0.667870 0.734472 -0.182258
C122  C     C_R   0.270676 0.667875 0.281383 -0.181368
C123  C     C_R   0.708506 0.667870 0.734473 -0.182169
C124  C     C_R   0.729380 0.667871 0.281397 -0.182021
C125  C     C_R   0.770601 0.167873 0.718603 -0.182037
C126  C     C_R   0.791497 0.167870 0.265517 -0.182148
C127  C     C_R   0.229277 0.167879 0.718642 -0.180304
C128  C     C_R   0.208541 0.167872 0.265566 -0.183762
H49   H     H_    0.786365 0.652708 0.193918 0.158651
H50   H     H_    0.824113 0.652703 0.777389 0.159306
H51   H     H_    0.213518 0.652713 0.193955 0.158894
H52   H     H_    0.175899 0.652703 0.777392 0.158191
H53   H     H_    0.324084 0.152702 0.222576 0.158167
H54   H     H_    0.286529 0.152709 0.806034 0.158973
H55   H     H_    0.675848 0.152700 0.222666 0.159557
H56   H     H_    0.713707 0.152701 0.806115 0.156899
H57   H     H_    0.324112 0.652701 0.722621 0.158402
H58   H     H_    0.286464 0.652706 0.306061 0.157195
H59   H     H_    0.675877 0.652701 0.722621 0.159288
H60   H     H_    0.713641 0.652703 0.306089 0.158629
H61   H     H_    0.786311 0.152707 0.693900 0.158560
H62   H     H_    0.824140 0.152701 0.277347 0.159333
H63   H     H_    0.213464 0.152714 0.693972 0.158993
H64   H     H_    0.175926 0.152705 0.277434 0.158182
C129  C     C_R   0.750003 0.647488 0.250003 -0.000866
C130  C     C_R   0.749996 0.647487 0.750004 -0.001781
C131  C     C_R   0.249993 0.647491 0.250006 -0.000744
C132  C     C_R   0.250004 0.647487 0.750005 -0.000681
C133  C     C_R   0.250004 0.147487 0.250004 -0.000587
C134  C     C_R   0.249997 0.147492 0.750003 -0.001448
C135  C     C_R   0.749995 0.147487 0.250005 -0.001885
C136  C     C_R   0.750007 0.147487 0.750006 -0.000173
C137  C     C_R   0.750008 0.728653 0.250008 0.112678
C138  C     C_R   0.749988 0.728651 0.750013 0.111222
C139  C     C_R   0.249986 0.728657 0.250013 0.113055
C140  C     C_R   0.250009 0.728650 0.750010 0.111264
C141  C     C_R   0.250012 0.228652 0.250013 0.111325
C142  C     C_R   0.249992 0.228658 0.750008 0.112853
C143  C     C_R   0.749991 0.228650 0.250010 0.111146
C144  C     C_R   0.750014 0.228652 0.750013 0.112865
C145  C     C_2   0.527613 0.522659 0.268401 -0.225454
C146  C     C_2   0.527605 0.518340 0.727282 -0.226506
C147  C     C_2   0.472394 0.518350 0.272706 -0.223799
C148  C     C_2   0.472385 0.522650 0.731587 -0.225309
C149  C     C_2   0.027614 0.022665 0.268391 -0.223690
C150  C     C_2   0.027606 0.018339 0.727283 -0.224697
C151  C     C_2   0.972395 0.018357 0.272700 -0.225425
C152  C     C_2   0.972387 0.022651 0.731587 -0.225555
C153  C     C_2   0.027614 0.522657 0.768402 -0.223798
C154  C     C_2   0.027606 0.518330 0.227273 -0.225339
C155  C     C_2   0.972395 0.518348 0.772709 -0.226066
C156  C     C_2   0.972387 0.522644 0.231575 -0.225670
C157  C     C_2   0.527612 0.022657 0.768403 -0.224060
C158  C     C_2   0.527605 0.018337 0.227279 -0.226961
C159  C     C_2   0.472394 0.018346 0.772709 -0.224265
C160  C     C_2   0.472386 0.022648 0.231584 -0.223920
C161  C     C_2   0.557104 0.493418 0.256059 0.342204
C162  C     C_2   0.557103 0.506037 0.756539 0.343657
C163  C     C_2   0.442893 0.506046 0.243451 0.344183
C164  C     C_2   0.442893 0.493410 0.743929 0.343783
C165  C     C_2   0.057104 0.993419 0.256061 0.344247
C166  C     C_2   0.057105 0.006044 0.756543 0.344787
C167  C     C_2   0.942893 0.006045 0.243449 0.343240
C168  C     C_2   0.942896 0.993413 0.743934 0.342247
C169  C     C_2   0.057106 0.493415 0.756065 0.343809
C170  C     C_2   0.057103 0.506040 0.256537 0.344820
C171  C     C_2   0.942896 0.506041 0.743455 0.343256
C172  C     C_2   0.942894 0.493409 0.243930 0.341798
C173  C     C_2   0.557103 0.993418 0.756058 0.342280
C174  C     C_2   0.557103 0.006037 0.256538 0.343856
C175  C     C_2   0.442893 0.006046 0.743452 0.344377
C176  C     C_2   0.442893 0.993410 0.243930 0.343844
H65   H     H_    0.544269 0.550497 0.275741 0.149276
H66   H     H_    0.544255 0.525647 0.699436 0.147979
H67   H     H_    0.455747 0.525652 0.300555 0.148086
H68   H     H_    0.455732 0.550492 0.724254 0.147021
H69   H     H_    0.044269 0.050507 0.275718 0.147040
H70   H     H_    0.044255 0.025629 0.699432 0.146551
H71   H     H_    0.955750 0.025666 0.300547 0.148281
H72   H     H_    0.955735 0.050490 0.724247 0.149260
H73   H     H_    0.044268 0.550499 0.775732 0.147105
H74   H     H_    0.044257 0.525618 0.199423 0.146690
H75   H     H_    0.955748 0.525655 0.800556 0.148421
H76   H     H_    0.955736 0.550483 0.224232 0.149320
H77   H     H_    0.544267 0.050495 0.775746 0.149351
H78   H     H_    0.544256 0.025639 0.199432 0.146903
H79   H     H_    0.455746 0.025644 0.800558 0.146997
H80   H     H_    0.455734 0.050489 0.224249 0.147088
C177  C     C_R   0.729663 0.968482 0.458150 -0.170918
C178  C     C_R   0.708332 0.984708 0.541846 -0.169656
C179  C     C_R   0.270356 0.968489 0.458160 -0.171206
C180  C     C_R   0.291701 0.984750 0.541859 -0.170712
C181  C     C_R   0.229683 0.468474 0.458149 -0.170931
C182  C     C_R   0.208335 0.484704 0.541844 -0.169351
C183  C     C_R   0.791667 0.484707 0.458154 -0.169557
C184  C     C_R   0.770328 0.468479 0.541850 -0.170997
C185  C     C_R   0.208297 0.984752 0.958141 -0.170652
C186  C     C_R   0.229638 0.968491 0.041840 -0.171290
C187  C     C_R   0.770381 0.968497 0.958160 -0.171231
C188  C     C_R   0.791717 0.984774 0.041858 -0.170443
C189  C     C_R   0.729678 0.468477 0.958150 -0.170909
C190  C     C_R   0.708339 0.484698 0.041846 -0.169635
C191  C     C_R   0.270356 0.468489 0.958160 -0.171195
C192  C     C_R   0.291700 0.484748 0.041859 -0.170722
H81   H     H_    0.714601 0.943485 0.473184 0.135650
H82   H     H_    0.675298 0.973385 0.526808 0.141151
H83   H     H_    0.285427 0.943498 0.473201 0.135654
H84   H     H_    0.324746 0.973443 0.526829 0.141377
H85   H     H_    0.214637 0.443472 0.473183 0.135532
H86   H     H_    0.175302 0.473377 0.526805 0.141229
H87   H     H_    0.824701 0.473383 0.473193 0.141224
H88   H     H_    0.785383 0.443480 0.526816 0.135653
H89   H     H_    0.175251 0.973447 0.973171 0.141410
H90   H     H_    0.214562 0.943501 0.026799 0.135643
H91   H     H_    0.785472 0.943512 0.973202 0.135529
H92   H     H_    0.824774 0.973487 0.026828 0.141428
H93   H     H_    0.714627 0.443476 0.973184 0.135656
H94   H     H_    0.675309 0.473368 0.026807 0.141156
H95   H     H_    0.285427 0.443498 0.973201 0.135657
H96   H     H_    0.324744 0.473441 0.026829 0.141378
C193  C     C_R   0.729326 0.968617 0.417889 -0.168582
C194  C     C_R   0.708518 0.984441 0.582108 -0.175315
C195  C     C_R   0.270686 0.968618 0.417898 -0.171377
C196  C     C_R   0.291516 0.984488 0.582121 -0.170266
C197  C     C_R   0.229347 0.468609 0.417888 -0.169848
C198  C     C_R   0.208519 0.484438 0.582106 -0.173659
C199  C     C_R   0.791482 0.484440 0.417893 -0.175088
C200  C     C_R   0.770665 0.468614 0.582111 -0.168761
C201  C     C_R   0.208483 0.984489 0.917879 -0.170094
C202  C     C_R   0.229308 0.968620 0.082102 -0.171570
C203  C     C_R   0.770710 0.968625 0.917898 -0.172638
C204  C     C_R   0.791532 0.984512 0.082120 -0.168639
C205  C     C_R   0.729340 0.468612 0.917889 -0.168591
C206  C     C_R   0.708524 0.484432 0.082107 -0.175279
C207  C     C_R   0.270686 0.468618 0.917898 -0.171356
C208  C     C_R   0.291514 0.484486 0.082121 -0.170286
H97   H     H_    0.713559 0.943933 0.402720 0.163254
H98   H     H_    0.675900 0.972578 0.597273 0.169676
H99   H     H_    0.286454 0.943933 0.402735 0.163105
H100  H     H_    0.324147 0.972647 0.597296 0.173924
H101  H     H_    0.213599 0.443918 0.402719 0.161559
H102  H     H_    0.175902 0.472572 0.597271 0.169978
H103  H     H_    0.824100 0.472577 0.402727 0.169858
H104  H     H_    0.786424 0.443927 0.597280 0.163214
H105  H     H_    0.175851 0.972650 0.902703 0.174065
H106  H     H_    0.213536 0.943937 0.097265 0.163075
H107  H     H_    0.786496 0.943946 0.902735 0.161448
H108  H     H_    0.824176 0.972690 0.097296 0.174205
H109  H     H_    0.713585 0.443924 0.902720 0.163239
H110  H     H_    0.675910 0.472562 0.097273 0.169689
H111  H     H_    0.286454 0.443934 0.902735 0.163118
H112  H     H_    0.324145 0.472643 0.097296 0.173923
C209  C     C_R   0.749992 0.999998 0.397509 -0.001205
C210  C     C_R   0.749996 0.999987 0.602493 -0.004110
C211  C     C_R   0.250013 0.999994 0.397510 -0.001259
C212  C     C_R   0.250017 0.000006 0.602494 -0.005531
C213  C     C_R   0.249992 0.499998 0.397508 0.000200
C214  C     C_R   0.249996 0.499987 0.602491 -0.004463
C215  C     C_R   0.750004 0.499987 0.397507 -0.004288
C216  C     C_R   0.750008 0.499998 0.602491 -0.001176
C217  C     C_R   0.249983 0.000006 0.897506 -0.005691
C218  C     C_R   0.249987 0.999994 0.102489 -0.001238
C219  C     C_R   0.750013 0.999994 0.897510 0.000112
C220  C     C_R   0.750017 0.000006 0.102494 -0.005863
C221  C     C_R   0.749992 0.499998 0.897509 -0.001197
C222  C     C_R   0.749996 0.499987 0.102492 -0.004131
C223  C     C_R   0.250013 0.499994 0.897510 -0.001265
C224  C     C_R   0.250017 0.500006 0.102494 -0.005530
C225  C     C_R   0.770648 0.031382 0.417894 -0.181486
C226  C     C_R   0.791469 0.015537 0.582114 -0.182422
C227  C     C_R   0.229353 0.031378 0.417889 -0.181617
C228  C     C_R   0.208531 0.015535 0.582104 -0.184478
C229  C     C_R   0.270627 0.531391 0.417892 -0.182692
C230  C     C_R   0.291468 0.515541 0.582113 -0.180815
C231  C     C_R   0.708531 0.515538 0.417886 -0.182241
C232  C     C_R   0.729361 0.531385 0.582106 -0.181673
C233  C     C_R   0.291471 0.015533 0.917895 -0.184315
C234  C     C_R   0.270653 0.031376 0.082111 -0.181770
C235  C     C_R   0.729329 0.031371 0.917888 -0.182784
C236  C     C_R   0.708514 0.015511 0.082104 -0.182900
C237  C     C_R   0.770634 0.531387 0.917893 -0.181497
C238  C     C_R   0.791463 0.515546 0.082114 -0.182381
C239  C     C_R   0.229352 0.531378 0.917889 -0.181595
C240  C     C_R   0.208532 0.515536 0.082104 -0.184509
H113  H     H_    0.786417 0.056065 0.402728 0.158751
H114  H     H_    0.824091 0.027397 0.597285 0.158801
H115  H     H_    0.213577 0.056057 0.402718 0.158699
H116  H     H_    0.175895 0.027375 0.597267 0.157717
H117  H     H_    0.286378 0.556080 0.402726 0.157020
H118  H     H_    0.324089 0.527403 0.597284 0.159141
H119  H     H_    0.675908 0.527398 0.402715 0.158952
H120  H     H_    0.713599 0.556071 0.597272 0.158708
H121  H     H_    0.324107 0.027371 0.902733 0.157874
H122  H     H_    0.286433 0.056054 0.097281 0.158682
H123  H     H_    0.713535 0.056045 0.902718 0.157009
H124  H     H_    0.675866 0.027331 0.097266 0.158039
H125  H     H_    0.786392 0.556074 0.902728 0.158731
H126  H     H_    0.824081 0.527413 0.097285 0.158820
H127  H     H_    0.213577 0.556057 0.902718 0.158711
H128  H     H_    0.175898 0.527378 0.097267 0.157711
C241  C     C_R   0.770301 0.031520 0.458155 -0.172731
C242  C     C_R   0.791643 0.015282 0.541853 -0.175527
C243  C     C_R   0.229704 0.031521 0.458150 -0.172780
C244  C     C_R   0.208360 0.015278 0.541843 -0.174677
C245  C     C_R   0.270280 0.531528 0.458154 -0.172767
C246  C     C_R   0.291641 0.515286 0.541851 -0.175264
C247  C     C_R   0.708357 0.515283 0.458147 -0.175475
C248  C     C_R   0.729708 0.531523 0.541844 -0.172804
C249  C     C_R   0.291641 0.015276 0.958157 -0.174611
C250  C     C_R   0.270302 0.031519 0.041850 -0.172845
C251  C     C_R   0.729679 0.031513 0.958150 -0.172811
C252  C     C_R   0.708344 0.015254 0.041842 -0.174392
C253  C     C_R   0.770286 0.531525 0.958155 -0.172728
C254  C     C_R   0.791637 0.515291 0.041853 -0.175512
C255  C     C_R   0.229704 0.531521 0.958150 -0.172775
C256  C     C_R   0.208362 0.515279 0.041843 -0.174687
H129  H     H_    0.785360 0.056518 0.473193 0.133283
H130  H     H_    0.824674 0.026608 0.526820 0.132881
H131  H     H_    0.214640 0.056518 0.473183 0.133328
H132  H     H_    0.175320 0.026585 0.526800 0.132892
H133  H     H_    0.285324 0.556530 0.473193 0.133149
H134  H     H_    0.324669 0.526617 0.526818 0.132932
H135  H     H_    0.675327 0.526610 0.473180 0.132913
H136  H     H_    0.714656 0.556523 0.526806 0.133277
H137  H     H_    0.324683 0.026581 0.973200 0.132950
H138  H     H_    0.285371 0.056514 0.026817 0.133322
H139  H     H_    0.714595 0.056504 0.973183 0.133198
H140  H     H_    0.675291 0.026542 0.026799 0.132969
H141  H     H_    0.785334 0.556526 0.973193 0.133283
H142  H     H_    0.824663 0.526625 0.026820 0.132884
H143  H     H_    0.214639 0.556518 0.973182 0.133323
H144  H     H_    0.175322 0.526588 0.026800 0.132891
C257  C     C_R   0.749981 0.000001 0.478669 0.110696
C258  C     C_R   0.749985 0.999998 0.521334 0.109312
C259  C     C_R   0.250034 0.000009 0.478671 0.111050
C260  C     C_R   0.250033 0.000013 0.521335 0.108938
C261  C     C_R   0.249981 0.500001 0.478667 0.111101
C262  C     C_R   0.249985 0.499998 0.521332 0.108827
C263  C     C_R   0.750015 0.499998 0.478666 0.109186
C264  C     C_R   0.750019 0.500001 0.521331 0.110763
C265  C     C_R   0.249967 0.000013 0.978664 0.108826
C266  C     C_R   0.249966 0.000009 0.021329 0.111117
C267  C     C_R   0.750034 0.000009 0.978670 0.111457
C268  C     C_R   0.750033 0.000013 0.021335 0.108457
C269  C     C_R   0.749981 0.500001 0.978668 0.110701
C270  C     C_R   0.749985 0.499998 0.021333 0.109303
C271  C     C_R   0.250034 0.500009 0.978671 0.111041
C272  C     C_R   0.250033 0.500013 0.021336 0.108946
Cl1   Cl    Cl    0.533852 0.445534 0.250721 -0.542347
Cl2   Cl    Cl    0.533860 0.500757 0.804428 -0.539183
Cl3   Cl    Cl    0.466125 0.500774 0.195557 -0.545782
Cl4   Cl    Cl    0.466134 0.445521 0.749253 -0.549202
Cl5   Cl    Cl    0.033856 0.945532 0.250741 -0.549075
Cl6   Cl    Cl    0.033870 0.000785 0.804436 -0.543116
Cl7   Cl    Cl    0.966126 0.000760 0.195557 -0.545016
Cl8   Cl    Cl    0.966146 0.945529 0.749274 -0.541977
Cl9   Cl    Cl    0.033861 0.445527 0.750742 -0.549507
Cl10  Cl    Cl    0.033860 0.500787 0.304428 -0.540066
Cl11  Cl    Cl    0.966135 0.500761 0.695565 -0.541978
Cl12  Cl    Cl    0.966141 0.445525 0.249273 -0.542407
Cl13  Cl    Cl    0.533852 0.945534 0.750714 -0.542256
Cl14  Cl    Cl    0.533861 0.000763 0.304427 -0.539315
Cl15  Cl    Cl    0.466124 0.000781 0.695557 -0.545911
Cl16  Cl    Cl    0.466135 0.945522 0.249259 -0.549118

loop_
_geom_bond_atom_site_label_1
_geom_bond_atom_site_label_2
_geom_bond_distance
_ccdc_geom_bond_type
C33   C135  1.464411 S    
Zn29  O101  1.936941 S    
Zn4   O4    1.946017 S    
C183  C263  1.404644 A    
Zn5   O5    1.946019 S    
C35   C133  1.464459 S    
C226  C242  1.391653 A    
C52   H4    1.082716 S    
C156  C172  1.341830 D    
C123  C130  1.402096 A    
C119  C135  1.402092 A    
O71   C46   1.280927 A    
C252  C268  1.404659 A    
C97   H33   1.082718 S    
C182  C198  1.391665 A    
C248  H136  1.082716 S    
C106  C122  1.391701 A    
C121  H57   1.083206 S    
C191  C271  1.404645 A    
C47   C87   1.464449 S    
Zn26  O98   1.936840 S    
C176  Cl16  1.773232 S    
C148  H68   1.086550 S    
C199  H103  1.083197 S    
C200  H104  1.083208 S    
O98   C10   1.277333 A    
C233  H121  1.083202 S    
Zn22  O6    1.946224 S    
C203  C219  1.402155 A    
C235  H123  1.083239 S    
C50   H2    1.082718 S    
C201  C217  1.402097 A    
C196  C212  1.402096 A    
C63   C79   1.391690 A    
C21   C224  1.464334 S    
O60   C44   1.281091 A    
O61   C45   1.281079 A    
C244  H132  1.082711 S    
C19   C218  1.464431 S    
Zn7   O70   1.934549 S    
C17   C220  1.464338 S    
C211  C227  1.402115 A    
C251  H139  1.082745 S    
C103  C119  1.391685 A    
C192  C208  1.391666 A    
C202  C218  1.402118 A    
Zn11  O83   1.934872 S    
C177  C193  1.391645 A    
C78   H30   1.083210 S    
Zn2   O2    1.945812 S    
C248  C264  1.404657 A    
O72   C45   1.281091 A    
C188  C204  1.391673 A    
C219  C235  1.402160 A    
C108  C137  1.404665 A    
Zn25  O49   1.934400 S    
C146  H66   1.086538 S    
C114  H50   1.083203 S    
C217  C233  1.402072 A    
C102  H38   1.082721 S    
C181  C261  1.404648 A    
O104  C16   1.277338 A    
C55   C71   1.391678 A    
Zn29  O37   1.934538 S    
O36   C28   1.281321 A    
C74   C83   1.402090 A    
C173  Cl13  1.773232 S    
C98   C114  1.391686 A    
C114  C130  1.402098 A    
Zn31  O55   1.934417 S    
C222  C238  1.402080 A    
Zn7   O79   1.934872 S    
C226  H114  1.083193 S    
O14   C6    1.275617 A    
C78   C87   1.402120 A    
C65   H17   1.083202 S    
C32   C213  1.464372 S    
C99   C139  1.404654 A    
C150  C166  1.341822 D    
C128  C133  1.402112 A    
C69   H21   1.083218 S    
O100  C12   1.277347 A    
C56   C96   1.404659 A    
C27   C210  1.464358 S    
C67   H19   1.083220 S    
C152  C168  1.341828 D    
C25   C212  1.464334 S    
C13   C162  1.450768 S    
C76   H28   1.083200 S    
C106  C139  1.404662 A    
C121  C132  1.402104 A    
Zn25  O33   1.934538 S    
O95   C7    1.277332 A    
C103  H39   1.082709 S    
C46   C86   1.464345 S    
C146  C162  1.341814 D    
O69   C48   1.281081 A    
C185  C265  1.404643 A    
Zn18  O90   1.936840 S    
C3    C176  1.450789 S    
C220  C236  1.402090 A    
C202  H106  1.083208 S    
Zn28  O1    1.946020 S    
C68   C84   1.402123 A    
C90   C138  1.474780 S    
C153  C169  1.341837 D    
C52   C92   1.404666 A    
C65   C81   1.402101 A    
C243  H131  1.082716 S    
Zn14  O63   1.934550 S    
C60   C76   1.391684 A    
C72   C88   1.402106 A    
C103  C143  1.404663 A    
C76   C81   1.402100 A    
O55   C38   1.281674 A    
O50   C35   1.281670 A    
O80   C24   1.281269 A    
C228  H116  1.083202 S    
C79   H31   1.083216 S    
C80   C85   1.402116 A    
Zn16  O13   1.936823 S    
O23   C15   1.275625 A    
C155  H75   1.086539 S    
O11   C3    1.275623 A    
C4    C175  1.450748 S    
C59   C75   1.391688 A    
Zn4   O17   1.936823 S    
C157  C173  1.341827 D    
C120  C136  1.402131 A    
C193  H97   1.083217 S    
C108  C124  1.391684 A    
C16   C163  1.450755 S    
C71   H23   1.083210 S    
C122  C131  1.402146 A    
C109  C125  1.391679 A    
Zn3   O66   1.934549 S    
O63   C47   1.280959 A    
C64   C93   1.404667 A    
C116  H52   1.083205 S    
C111  H47   1.082720 S    
C117  H53   1.083203 S    
Zn2   O74   1.934873 S    
Zn24  O32   1.934534 S    
C195  H99   1.083201 S    
O83   C27   1.281296 A    
C60   C89   1.404656 A    
C149  H69   1.086543 S    
O82   C26   1.281313 A    
Zn25  O4    1.946019 S    
O81   C25   1.281258 A    
C252  H140  1.082725 S    
C31   C214  1.464386 S    
C151  H71   1.086537 S    
Zn26  O3    1.946224 S    
O33   C25   1.281299 A    
C104  C144  1.404673 A    
C189  H93   1.082712 S    
Zn7   O7    1.945818 S    
C197  C213  1.402123 A    
O10   C2    1.275616 A    
Zn8   O8    1.946017 S    
C80   H32   1.083213 S    
C22   C223  1.464427 S    
C89   C137  1.474766 S    
O75   C19   1.281314 A    
Zn1   O73   1.934770 S    
C254  H142  1.082699 S    
O73   C17   1.281261 A    
C238  C254  1.391653 A    
C250  C266  1.404637 A    
C18   C219  1.464424 S    
O15   C7    1.275627 A    
C178  C194  1.391655 A    
C206  H110  1.083189 S    
O31   C23   1.281278 A    
O77   C21   1.281256 A    
C104  C120  1.391691 A    
Zn15  O62   1.934549 S    
C36   C134  1.464528 S    
C194  H98   1.083192 S    
O22   C14   1.275618 A    
C2    C173  1.450793 S    
C187  C267  1.404677 A    
Zn28  O52   1.934398 S    
C50   C66   1.391676 A    
Zn19  O91   1.936838 S    
C201  H105  1.083212 S    
C118  H54   1.083209 S    
C63   H15   1.082715 S    
Zn28  O36   1.934534 S    
C61   C96   1.404655 A    
C244  C260  1.404643 A    
C62   C95   1.404666 A    
C167  Cl7   1.773221 S    
C74   H26   1.083218 S    
C241  H129  1.082720 S    
C110  H46   1.082710 S    
O91   C3    1.277328 A    
C57   C92   1.404664 A    
C100  C140  1.404659 A    
C58   C91   1.404665 A    
O89   C1    1.277331 A    
O44   C36   1.281571 A    
C79   C86   1.402087 A    
C159  H79   1.086552 S    
C181  C197  1.391644 A    
C241  C257  1.404669 A    
C57   H9    1.082719 S    
C5    C170  1.450766 S    
O93   C5    1.277324 A    
C128  H64   1.083205 S    
C236  H124  1.083217 S    
Zn9   O4    1.946019 S    
Zn6   O6    1.945812 S    
C99   C115  1.391689 A    
Zn10  O3    1.945812 S    
C251  C267  1.404670 A    
C184  H88   1.082715 S    
O26   C18   1.281297 A    
Zn29  O53   1.934400 S    
C158  C174  1.341815 D    
C10   C165  1.450775 S    
C235  C251  1.391655 A    
C26   C211  1.464431 S    
C77   H29   1.083200 S    
C98   H34   1.082710 S    
Zn31  O39   1.934436 S    
Zn14  O7    1.945812 S    
O20   C12   1.275592 A    
O39   C31   1.281283 A    
Zn4   O65   1.934568 S    
Zn3   O75   1.934872 S    
O21   C13   1.275609 A    
O40   C32   1.281316 A    
C178  C258  1.404642 A    
C161  Cl1   1.773228 S    
C182  H86   1.082714 S    
Zn18  O2    1.946224 S    
Zn9   O60   1.934568 S    
Zn3   O18   1.936925 S    
C54   H6    1.082715 S    
C150  H70   1.086537 S    
C29   C216  1.464396 S    
C69   C85   1.402128 A    
Zn13  O64   1.934568 S    
Zn26  O34   1.934431 S    
C147  C163  1.341816 D    
C58   C74   1.391692 A    
C242  H130  1.082702 S    
O67   C42   1.280953 A    
C124  C129  1.402131 A    
C245  H133  1.082721 S    
Zn17  O41   1.934400 S    
O65   C44   1.281088 A    
C55   H7    1.082717 S    
Zn19  O27   1.934436 S    
C110  C143  1.404662 A    
C246  H134  1.082715 S    
C207  H111  1.083202 S    
O78   C22   1.281315 A    
C229  H117  1.083220 S    
Zn28  O100  1.936941 S    
C60   H12   1.082712 S    
C8    C171  1.450772 S    
C261  C262  1.474696 S    
C112  H48   1.082710 S    
C58   H10   1.082713 S    
C122  H58   1.083216 S    
C146  C148  1.461938 S    
C263  C264  1.474696 S    
C92   C140  1.474770 S    
Zn3   O3    1.945818 S    
O48   C40   1.281541 A    
C177  H81   1.082720 S    
C243  C259  1.404633 A    
Zn32  O5    1.946020 S    
O86   C30   1.281296 A    
C158  C160  1.461938 S    
C1    C174  1.450757 S    
C106  H42   1.082721 S    
O19   C11   1.275628 A    
C98   C138  1.404659 A    
Zn2   O67   1.934550 S    
C228  C244  1.391652 A    
Zn20  O28   1.934534 S    
C149  C151  1.461927 S    
C185  C201  1.391666 A    
C126  C135  1.402094 A    
C112  C141  1.404655 A    
O97   C9    1.277328 A    
C159  C175  1.341812 D    
C238  H126  1.083189 S    
Zn8   O21   1.936823 S    
C246  C262  1.404642 A    
C236  C252  1.391662 A    
C111  C127  1.391696 A    
C61   C77   1.391689 A    
C256  C272  1.404635 A    
C249  H137  1.082709 S    
Zn9   O81   1.934770 S    
C200  C216  1.402113 A    
Zn12  O1    1.946017 S    
C237  H125  1.083205 S    
C100  C116  1.391687 A    
C151  C167  1.341807 D    
C101  C117  1.391689 A    
C44   C84   1.464476 S    
C178  H82   1.082699 S    
C185  H89   1.082709 S    
C196  H100  1.083214 S    
C191  H95   1.082713 S    
Zn29  O8    1.946019 S    
C213  C229  1.402115 A    
C64   H16   1.082719 S    
Zn22  O94   1.936840 S    
Zn15  O87   1.934872 S    
Zn30  O7    1.946224 S    
C48   C88   1.464452 S    
O37   C29   1.281320 A    
Zn20  O92   1.936941 S    
Zn27  O35   1.934436 S    
O35   C27   1.281276 A    
C157  C159  1.461929 S    
C101  C141  1.404658 A    
C259  C260  1.474689 S    
C206  C222  1.402073 A    
C147  H67   1.086546 S    
Zn15  O14   1.936925 S    
C127  H63   1.083210 S    
C97   C137  1.404667 A    
Zn12  O84   1.934771 S    
C189  C205  1.391645 A    
O58   C42   1.280964 A    
C253  C269  1.404655 A    
C184  C264  1.404638 A    
C14   C161  1.450782 S    
C66   C82   1.402111 A    
Zn5   O24   1.936823 S    
C230  H118  1.083205 S    
C267  C268  1.474686 S    
Zn6   O23   1.936925 S    
C125  H61   1.083211 S    
C234  C250  1.391651 A    
C63   C94   1.404665 A    
Zn32  O40   1.934534 S    
C247  H135  1.082710 S    
Zn4   O76   1.934771 S    
C105  H41   1.082713 S    
O70   C47   1.280964 A    
C192  C272  1.404638 A    
Zn8   O80   1.934771 S    
C205  H109  1.083203 S    
Zn23  O31   1.934436 S    
C234  H122  1.083206 S    
C250  H138  1.082719 S    
C30   C215  1.464362 S    
C73   H25   1.083212 S    
C190  H94   1.082696 S    
C51   H3    1.082711 S    
O53   C40   1.281544 A    
C186  C202  1.391673 A    
C57   C73   1.391688 A    
O54   C39   1.281678 A    
C49   H1    1.082711 S    
O79   C23   1.281297 A    
Zn13  O8    1.946019 S    
C153  H73   1.086542 S    
C153  C155  1.461934 S    
C20   C217  1.464331 S    
C53   H5    1.082720 S    
C208  H112  1.083209 S    
O30   C22   1.281297 A    
C179  C195  1.391676 A    
C199  C215  1.402084 A    
C145  C147  1.461925 S    
C107  C138  1.404661 A    
Zn8   O69   1.934568 S    
Zn21  O29   1.934538 S    
C204  H108  1.083229 S    
C240  C256  1.391655 A    
Zn16  O5    1.946017 S    
C93   C141  1.474773 S    
O18   C10   1.275618 A    
C38   C132  1.464445 S    
C109  C144  1.404669 A    
C177  C257  1.404653 A    
Zn26  O50   1.934417 S    
C67   C83   1.402091 A    
C11   C168  1.450803 S    
O13   C5    1.275620 A    
C218  C234  1.402119 A    
Zn17  O1    1.946019 S    
C180  C260  1.404641 A    
C24   C221  1.464393 S    
Zn1   O68   1.934568 S    
O24   C16   1.275601 A    
Zn30  O38   1.934431 S    
C68   H20   1.083212 S    
C230  C246  1.391656 A    
C229  C245  1.391667 A    
C52   C68   1.391690 A    
C207  C223  1.402113 A    
C171  Cl11  1.773211 S    
C188  C268  1.404657 A    
Zn1   O1    1.946019 S    
C190  C270  1.404637 A    
C227  H115  1.083202 S    
C181  H85   1.082723 S    
O90   C2    1.277343 A    
Zn31  O103  1.936838 S    
C225  H113  1.083214 S    
Zn32  O104  1.936941 S    
C127  C134  1.402142 A    
C203  H107  1.083242 S    
O25   C17   1.281303 A    
O94   C6    1.277331 A    
C170  Cl10  1.773206 S    
O28   C20   1.281301 A    
Zn12  O9    1.936823 S    
O29   C21   1.281301 A    
C43   C83   1.464359 S    
O76   C20   1.281257 A    
C99   H35   1.082723 S    
C51   C91   1.404663 A    
Zn10  O82   1.934873 S    
O32   C24   1.281320 A    
C53   C93   1.404673 A    
Zn6   O71   1.934550 S    
C150  C152  1.461937 S    
Zn22  O46   1.934417 S    
C45   C85   1.464459 S    
C180  H84   1.082710 S    
O88   C32   1.281266 A    
C49   C89   1.404662 A    
C100  H36   1.082712 S    
C73   C84   1.402126 A    
C166  Cl6   1.773213 S    
C91   C139  1.474763 S    
C223  C239  1.402116 A    
O34   C26   1.281298 A    
C216  C232  1.402104 A    
Zn21  O93   1.936941 S    
C162  Cl2   1.773200 S    
C77   C88   1.402109 A    
C221  C237  1.402097 A    
C39   C129  1.464483 S    
C253  H141  1.082711 S    
Zn23  O95   1.936838 S    
C172  Cl12  1.773206 S    
C239  C255  1.391651 A    
O45   C37   1.281572 A    
C160  H80   1.086550 S    
C158  H78   1.086542 S    
O92   C4    1.277333 A    
C239  H127  1.083203 S    
Zn13  O85   1.934770 S    
C156  H76   1.086533 S    
C191  C207  1.391676 A    
C183  C199  1.391662 A    
C224  C240  1.402066 A    
C155  C171  1.341806 D    
C157  H77   1.086542 S    
C112  C128  1.391689 A    
C117  C133  1.402109 A    
C97   C113  1.391686 A    
C94   C142  1.474759 S    
Zn31  O6    1.946221 S    
C179  C259  1.404643 A    
C210  C226  1.402079 A    
C54   C70   1.391691 A    
C233  C249  1.391655 A    
C72   H24   1.083198 S    
C23   C222  1.464362 S    
C231  H119  1.083199 S    
C119  H55   1.083204 S    
C242  C258  1.404631 A    
Zn5   O77   1.934770 S    
O103  C15   1.277322 A    
C168  Cl8   1.773205 S    
Zn18  O26   1.934431 S    
C53   C69   1.391695 A    
Zn1   O20   1.936823 S    
C154  C170  1.341821 D    
Zn2   O19   1.936925 S    
C102  C142  1.404649 A    
C113  C129  1.402128 A    
Zn27  O51   1.934417 S    
Zn20  O4    1.946020 S    
C187  C203  1.391676 A    
Zn21  O5    1.946019 S    
C145  C161  1.341826 D    
C198  C214  1.402091 A    
C255  C271  1.404635 A    
C163  Cl3   1.773248 S    
O62   C46   1.280941 A    
Zn7   O22   1.936925 S    
O66   C43   1.280939 A    
Zn17  O25   1.934538 S    
C232  C248  1.391667 A    
C113  H49   1.083209 S    
Zn32  O56   1.934398 S    
C215  C231  1.402089 A    
C247  C263  1.404638 A    
C6    C169  1.450775 S    
Zn27  O99   1.936838 S    
C37   C131  1.464511 S    
Zn25  O97   1.936941 S    
C249  C265  1.404644 A    
C102  C118  1.391694 A    
C51   C67   1.391692 A    
C186  H90   1.082720 S    
C152  H72   1.086532 S    
Zn16  O61   1.934568 S    
C269  C270  1.474700 S    
C49   C65   1.391683 A    
C212  C228  1.402075 A    
C15   C164  1.450777 S    
C101  H37   1.082711 S    
C120  H56   1.083221 S    
C214  C230  1.402099 A    
O38   C30   1.281278 A    
C75   H27   1.083219 S    
C245  C261  1.404663 A    
C208  C224  1.402090 A    
O102  C14   1.277336 A    
O51   C34   1.281681 A    
C189  C269  1.404639 A    
Zn20  O44   1.934398 S    
C204  C220  1.402114 A    
O49   C36   1.281572 A    
C197  H101  1.083221 S    
C116  C132  1.402106 A    
C7    C172  1.450801 S    
Zn11  O10   1.936925 S    
C256  H144  1.082704 S    
Zn24  O48   1.934398 S    
C95   C143  1.474773 S    
Zn14  O86   1.934873 S    
C111  C142  1.404655 A    
C42   C82   1.464428 S    
C169  Cl9   1.773224 S    
C34   C136  1.464463 S    
O57   C41   1.281074 A    
Zn30  O54   1.934417 S    
O74   C18   1.281312 A    
C56   C72   1.391689 A    
C115  H51   1.083207 S    
C9    C166  1.450753 S    
Zn5   O72   1.934568 S    
C41   C81   1.464442 S    
Zn18  O42   1.934417 S    
C227  C243  1.391651 A    
Zn6   O78   1.934873 S    
C184  C200  1.391648 A    
C225  C241  1.391663 A    
O64   C48   1.281085 A    
O68   C41   1.281086 A    
C192  H96   1.082705 S    
C148  C164  1.341837 D    
C164  Cl4   1.773230 S    
Zn27  O2    1.946221 S    
C165  Cl5   1.773224 S    
C194  C210  1.402073 A    
C28   C209  1.464396 S    
O17   C9    1.275607 A    
C188  H92   1.082726 S    
O47   C39   1.281681 A    
Zn12  O57   1.934568 S    
C125  C136  1.402123 A    
O101  C13   1.277339 A    
C66   H18   1.083213 S    
O52   C33   1.281536 A    
C105  C121  1.391684 A    
C271  C272  1.474689 S    
C118  C134  1.402145 A    
O27   C19   1.281299 A    
O16   C8    1.275606 A    
Zn30  O102  1.936840 S    
C257  C258  1.474700 S    
C110  C126  1.391683 A    
C70   H22   1.083216 S    
O56   C37   1.281561 A    
O59   C43   1.280936 A    
C96   C144  1.474770 S    
C115  C131  1.402137 A    
C55   C95   1.404666 A    
C40   C130  1.464425 S    
Zn15  O6    1.945818 S    
C59   H11   1.082717 S    
C231  C247  1.391653 A    
Zn22  O30   1.934431 S    
O96   C8    1.277343 A    
O85   C29   1.281272 A    
C179  H83   1.082714 S    
C154  H74   1.086540 S    
C254  C270  1.404629 A    
C265  C266  1.474693 S    
C70   C86   1.402084 A    
C109  H45   1.082718 S    
C107  H43   1.082711 S    
C123  H59   1.083203 S    
O99   C11   1.277333 A    
C232  H120  1.083208 S    
C182  C262  1.404649 A    
C75   C82   1.402120 A    
C209  C225  1.402113 A    
C198  H102  1.083202 S    
C56   H8    1.082710 S    
C154  C156  1.461941 S    
C174  Cl14  1.773198 S    
O43   C35   1.281675 A    
C190  C206  1.391659 A    
C59   C90   1.404672 A    
C107  C123  1.391685 A    
Zn24  O96   1.936941 S    
Zn17  O89   1.936941 S    
O9    C1    1.275610 A    
Zn9   O12   1.936823 S    
Zn16  O88   1.934771 S    
Zn10  O11   1.936925 S    
O84   C28   1.281271 A    
Zn11  O2    1.945818 S    
C124  H60   1.083211 S    
Zn10  O59   1.934550 S    
Zn13  O16   1.936823 S    
C205  C221  1.402108 A    
C62   C78   1.391679 A    
C183  H87   1.082708 S    
Zn14  O15   1.936925 S    
C237  C253  1.391663 A    
C104  H40   1.082720 S    
C12   C167  1.450757 S    
C105  C140  1.404655 A    
C54   C94   1.404665 A    
Zn19  O43   1.934417 S    
C240  H128  1.083197 S    
C187  H91   1.082744 S    
C186  C266  1.404648 A    
Zn11  O58   1.934549 S    
C145  H65   1.086544 S    
C50   C90   1.404666 A    
C255  H143  1.082715 S    
Zn19  O3    1.946221 S    
Zn24  O8    1.946020 S    
O12   C4    1.275599 A    
O87   C31   1.281303 A    
C195  C211  1.402112 A    
O42   C34   1.281668 A    
C193  C209  1.402123 A    
C126  H62   1.083205 S    
C108  H44   1.082719 S    
C71   C87   1.402122 A    
C61   H13   1.082711 S    
C64   C80   1.391683 A    
C180  C196  1.391666 A    
Zn21  O45   1.934400 S    
O46   C38   1.281665 A    
C175  Cl15  1.773248 S    
Zn23  O47   1.934417 S    
O41   C33   1.281542 A    
Zn23  O7    1.946221 S    
C149  C165  1.341835 D    
C160  C176  1.341841 D    
C62   H14   1.082718 S    
