data_mof_unit_32885.cif
_audit_creation_date              2012-12-10T18:34:26-0500
_audit_creation_method            fapswitch 2.2
_symmetry_space_group_name_H-M    P1
_symmetry_Int_Tables_number       1
_space_group_crystal_system       triclinic
_cell_length_a                    15.030641
_cell_length_b                    15.35414
_cell_length_c                    15.690818
_cell_angle_alpha                 90.183451
_cell_angle_beta                  105.960776
_cell_angle_gamma                 81.119045
_cell_volume                      3436.89449937

loop_
_atom_site_label
_atom_site_type_symbol
_atom_type_description
_atom_site_fract_x
_atom_site_fract_y
_atom_site_fract_z
_atom_type_partial_charge
C1    C     C_R   0.440435 0.662247 0.483849 0.918578
C2    C     C_R   0.559323 0.337396 0.516219 0.901249
C3    C     C_R   0.296335 0.875578 0.369881 -0.011580
C4    C     C_R   0.678004 0.135383 0.665075 -0.007649
C5    C     C_R   0.322499 0.784233 0.392772 0.481573
C6    C     C_R   0.670159 0.218629 0.621236 0.511956
C7    C     C_R   0.447375 0.815335 0.518949 -0.363972
C8    C     C_R   0.537912 0.185252 0.504540 -0.338137
C9    C     C_R   0.423908 0.905875 0.498768 0.074082
C10   C     C_R   0.539079 0.105729 0.547277 0.078186
C11   C     C_R   0.347634 0.936522 0.423331 0.071552
C12   C     C_R   0.611467 0.078765 0.626485 0.052283
C13   C     C_R   0.481175 0.965427 0.546628 0.108316
C14   C     C_R   0.469457 0.052297 0.511806 0.099458
C15   C     C_R   0.387279 0.083674 0.443736 -0.236712
C16   C     C_R   0.551256 0.940530 0.626827 -0.235201
C17   C     C_R   0.327155 0.027257 0.401400 -0.227943
C18   C     C_R   0.614461 0.995760 0.665797 -0.225945
C19   C     C_R   0.856355 0.604362 0.655999 -0.411163
C20   C     C_R   0.146607 0.394782 0.341583 -0.428363
C21   C     C_R   0.762753 0.592500 0.627091 0.709129
C22   C     C_R   0.240616 0.405355 0.373699 0.703651
C23   C     C_R   0.502013 0.500556 0.662306 0.897889
C24   C     C_R   0.497517 0.500481 0.337626 0.908047
C25   C     C_R   0.788093 0.528110 0.496093 -0.202130
C26   C     C_R   0.208154 0.479248 0.497983 -0.211787
C27   C     C_R   0.885322 0.530032 0.526434 -0.004336
C28   C     C_R   0.111018 0.479241 0.463208 -0.004574
C29   C     C_R   0.916653 0.575698 0.604606 0.082088
C30   C     C_R   0.082258 0.431418 0.386279 0.087923
C31   C     C_R   0.951727 0.492215 0.481183 0.023314
C32   C     C_R   0.042646 0.519862 0.504592 0.025856
C33   C     C_R   0.061469 0.585192 0.569760 0.088058
C34   C     C_R   0.932748 0.428227 0.414087 0.092513
C35   C     C_R   0.005013 0.600006 0.626963 -0.210042
C36   C     C_R   0.991889 0.412228 0.359278 -0.215023
C37   C     C_3   0.427289 0.574234 0.005947 0.068381
C38   C     C_3   0.563878 0.442376 0.992384 0.073239
C39   C     C_3   0.515696 0.586903 0.977922 0.074648
C40   C     C_3   0.475369 0.429739 0.019962 0.078296
C41   C     C_1   0.505447 0.503488 0.752189 -0.162912
C42   C     C_1   0.491204 0.503681 0.247165 -0.184270
C43   C     C_3   0.412169 0.495188 0.945064 0.074582
C44   C     C_3   0.578946 0.521551 0.052960 0.079305
C45   C     C_3   0.500775 0.507661 0.917677 -0.001020
C46   C     C_3   0.490508 0.508726 0.080397 0.002333
C47   C     C_1   0.505093 0.505795 0.827501 -0.085674
C48   C     C_1   0.488510 0.506756 0.171161 -0.094222
C49   C     C_R   0.400267 0.755383 0.466026 -0.186428
C50   C     C_R   0.595357 0.244497 0.544253 -0.221089
H1    H     H_    0.237470 0.503905 0.562297 0.166524
H2    H     H_    0.755872 0.508105 0.430440 0.164905
H3    H     H_    0.881849 0.635945 0.717851 0.152918
H4    H     H_    0.124296 0.355787 0.284255 0.150974
H5    H     H_    0.266980 0.055971 0.348621 0.158067
H6    H     H_    0.666493 0.970763 0.726521 0.139652
H7    H     H_    0.488808 0.205536 0.440876 0.187891
H8    H     H_    0.507468 0.788362 0.572244 0.172816
H9    H     H_    0.366554 0.152371 0.422505 0.171455
H10   H     H_    0.557407 0.879326 0.662907 0.132086
H11   H     H_    0.025244 0.640233 0.683846 0.135567
H12   H     H_    0.972028 0.373714 0.300999 0.138997
N1    N     N_R   0.731710 0.552730 0.549140 -0.133836
N2    N     N_R   0.268290 0.447270 0.450860 -0.136108
O1    O     O_R   0.383110 0.605620 0.475230 -0.607345
O2    O     O_R   0.616890 0.394380 0.524770 -0.591430
O3    O     O_R   0.531900 0.639510 0.506760 -0.599549
O4    O     O_R   0.468100 0.360490 0.493240 -0.574798
O5    O     O_R   0.425620 0.483070 0.607460 -0.638549
O6    O     O_R   0.574380 0.516930 0.392540 -0.638265
O7    O     O_R   0.574400 0.516960 0.638990 -0.535354
O8    O     O_R   0.425600 0.483040 0.361010 -0.558026
Zn1   Zn    Zn3+2 0.400660 0.477370 0.478940 0.981862
Zn2   Zn    Zn3+2 0.599340 0.522630 0.521060 0.992873
C51   C     C_3   0.538923 0.670744 0.941514 -0.401184
C52   C     C_3   0.546791 0.745158 0.007194 -0.354441
C53   C     C_3   0.581220 0.822467 0.972210 -0.898477
H13   H     H_    0.652168 0.801207 0.963537 0.257940
H14   H     H_    0.532161 0.848765 0.907585 0.262551
H15   H     H_    0.585104 0.875966 0.020253 0.252481
H16   H     H_    0.477353 0.769460 0.017555 0.229536
H17   H     H_    0.596272 0.721244 0.072141 0.225002
H18   H     H_    0.605685 0.653228 0.923416 0.205754
H19   H     H_    0.483718 0.694183 0.879408 0.191589
C54   C     C_3   0.450654 0.345816 0.054660 -0.408297
C55   C     C_3   0.443670 0.272076 0.988197 -0.349554
C56   C     C_3   0.404705 0.195937 0.019681 -0.892203
H20   H     H_    0.450542 0.168457 0.085247 0.264010
H21   H     H_    0.332768 0.218853 0.025211 0.257194
H22   H     H_    0.401667 0.142856 0.971214 0.252245
H23   H     H_    0.397343 0.297270 0.922257 0.225230
H24   H     H_    0.514032 0.246144 0.980789 0.228360
H25   H     H_    0.504417 0.321633 0.117418 0.192389
H26   H     H_    0.383031 0.363652 0.071049 0.190874
O9    O     O_3   0.308579 0.366401 0.334725 -0.586687
C57   C     C_3   0.279613 0.381007 0.241614 -0.345804
H27   H     H_    0.342854 0.371228 0.217144 0.193732
H28   H     H_    0.242933 0.449623 0.221159 0.159433
H29   H     H_    0.235316 0.331949 0.209481 0.153135
O10   O     O_3   0.702444 0.615570 0.678891 -0.573573
C58   C     C_3   0.694013 0.706757 0.693818 -0.369385
H30   H     H_    0.631293 0.726200 0.717962 0.185672
H31   H     H_    0.684025 0.747113 0.631998 0.159182
H32   H     H_    0.755342 0.721846 0.746520 0.157983
C59   C     C_3   0.134139 0.646247 0.576795 -0.442758
C60   C     C_3   0.091827 0.744757 0.570579 -0.342195
C61   C     C_3   0.167866 0.802817 0.581592 -0.892549
H33   H     H_    0.218141 0.790949 0.648705 0.261471
H34   H     H_    0.206734 0.788678 0.531079 0.259530
H35   H     H_    0.135262 0.873375 0.573672 0.249761
H36   H     H_    0.039596 0.760773 0.504876 0.221999
H37   H     H_    0.055862 0.761252 0.622900 0.220061
H38   H     H_    0.189611 0.630857 0.640696 0.198972
H39   H     H_    0.166287 0.638127 0.521472 0.204508
C62   C     C_3   0.857287 0.369313 0.401389 -0.442967
C63   C     C_3   0.895647 0.269777 0.403084 -0.337376
C64   C     C_3   0.816359 0.216212 0.368436 -0.909653
H40   H     H_    0.763905 0.228067 0.406626 0.256899
H41   H     H_    0.780796 0.234347 0.297369 0.261625
H42   H     H_    0.845537 0.144799 0.374515 0.251582
H43   H     H_    0.944709 0.255012 0.361702 0.224041
H44   H     H_    0.934600 0.246725 0.472314 0.216904
H45   H     H_    0.823890 0.374961 0.455689 0.200766
H46   H     H_    0.803404 0.389466 0.337386 0.201615
C65   C     C_3   0.353982 0.645651 0.027264 -0.388142
C66   C     C_3   0.293204 0.701825 0.945300 -0.363128
C67   C     C_3   0.234118 0.781576 0.971871 -0.892070
H47   H     H_    0.188376 0.759950 0.009816 0.267496
H48   H     H_    0.280220 0.824810 0.013204 0.265229
H49   H     H_    0.189221 0.820135 0.911458 0.249095
H50   H     H_    0.337546 0.725553 0.907269 0.224645
H51   H     H_    0.245277 0.662006 0.901325 0.227830
H52   H     H_    0.308268 0.613790 0.058057 0.196221
H53   H     H_    0.391215 0.688169 0.077755 0.202392
C68   C     C_3   0.638244 0.370452 0.973579 -0.392739
C69   C     C_3   0.697030 0.315568 0.057206 -0.361044
C70   C     C_3   0.760633 0.237519 0.033924 -0.905603
H54   H     H_    0.718013 0.193478 0.989777 0.263301
H55   H     H_    0.808902 0.261284 0.000216 0.273041
H56   H     H_    0.802987 0.199241 0.095464 0.251761
H57   H     H_    0.741814 0.356608 0.102898 0.228380
H58   H     H_    0.651191 0.290209 0.092516 0.224881
H59   H     H_    0.602320 0.327119 0.923180 0.199648
H60   H     H_    0.685049 0.401746 0.943722 0.200100
C71   C     C_3   0.667931 0.536047 0.124415 -0.402581
C72   C     C_3   0.747804 0.551635 0.085998 -0.356795
C73   C     C_3   0.838564 0.551169 0.159620 -0.889177
H61   H     H_    0.828932 0.602879 0.207419 0.265685
H62   H     H_    0.860303 0.485725 0.195231 0.259568
H63   H     H_    0.894950 0.564321 0.130564 0.249620
H64   H     H_    0.759996 0.499693 0.039475 0.227864
H65   H     H_    0.729849 0.616419 0.049376 0.229294
H66   H     H_    0.650431 0.593563 0.163219 0.196189
H67   H     H_    0.690827 0.477707 0.171335 0.194982
C74   C     C_3   0.322505 0.482598 0.873537 -0.397502
C75   C     C_3   0.243100 0.465671 0.912050 -0.366653
C76   C     C_3   0.150602 0.472427 0.839394 -0.878390
H68   H     H_    0.129790 0.540330 0.809046 0.255250
H69   H     H_    0.157309 0.424810 0.787193 0.267831
H70   H     H_    0.094828 0.457311 0.868330 0.250807
H71   H     H_    0.259612 0.398577 0.943900 0.227793
H72   H     H_    0.234087 0.514076 0.962746 0.223436
H73   H     H_    0.299632 0.542470 0.828619 0.196109
H74   H     H_    0.338996 0.426445 0.832716 0.195195
O11   O     O_3   0.730336 0.277280 0.656336 -0.612947
C77   C     C_3   0.798094 0.272599 0.608774 -0.330067
H75   H     H_    0.848497 0.317546 0.638247 0.193326
H76   H     H_    0.765355 0.294119 0.538531 0.183072
H77   H     H_    0.838061 0.204738 0.611932 0.145720
O12   O     O_3   0.284418 0.723119 0.334212 -0.607733
C78   C     C_3   0.200705 0.705518 0.350236 -0.338969
H78   H     H_    0.160455 0.762835 0.374310 0.136807
H79   H     H_    0.215942 0.648459 0.397613 0.203308
H80   H     H_    0.154419 0.686731 0.287074 0.182039
C79   C     C_3   0.220752 0.905657 0.283738 -0.390999
C80   C     C_3   0.264192 0.925642 0.209522 -0.321125
C81   C     C_3   0.188586 0.960890 0.125002 -0.911870
H81   H     H_    0.141852 0.911326 0.100669 0.267366
H82   H     H_    0.146186 0.022903 0.137732 0.262251
H83   H     H_    0.221956 0.975090 0.072736 0.252606
H84   H     H_    0.311727 0.975157 0.230202 0.223007
H85   H     H_    0.306201 0.864168 0.194870 0.236006
H86   H     H_    0.175850 0.854834 0.260057 0.230765
H87   H     H_    0.171572 0.963475 0.294804 0.177958
C82   C     C_3   0.751847 0.104283 0.753261 -0.426750
C83   C     C_3   0.817589 0.166762 0.802509 -0.254322
C84   C     C_3   0.882330 0.122956 0.889514 -0.971319
H88   H     H_    0.841030 0.102312 0.932448 0.272200
H89   H     H_    0.928646 0.063995 0.876010 0.268021
H90   H     H_    0.926954 0.170157 0.925499 0.258505
H91   H     H_    0.863562 0.182689 0.762519 0.246456
H92   H     H_    0.775886 0.228109 0.817746 0.256102
H93   H     H_    0.713391 0.087149 0.800520 0.199154
H94   H     H_    0.796253 0.043237 0.741023 0.195055

loop_
_geom_bond_atom_site_label_1
_geom_bond_atom_site_label_2
_ccdc_geom_bond_type
C65   H53   S    
C40   C54   S    
C56   H20   S    
O11   C77   S    
C27   C29   A    
C24   C42   S    
C22   O9    S    
C23   O5    A    
O9    C57   S    
C82   H94   S    
C78   H78   S    
C71   C72   S    
C24   O6    A    
C68   C69   S    
C20   C30   A    
C53   H13   S    
C80   H85   S    
C78   H79   S    
C66   C67   S    
C63   H44   S    
C59   H38   S    
C75   C76   S    
C73   H62   S    
C2    O4    A    
C55   H23   S    
C64   H41   S    
C16   H10   S    
C43   C74   S    
C51   H19   S    
O12   C78   S    
C65   H52   S    
C62   C63   S    
O2    Zn2   S    
C57   H29   S    
O1    Zn1   S    
C63   C64   S    
C7    C9    A    
C25   N1    A    
C83   H91   S    
C9    C13   A    
C38   C45   S    
C26   N2    A    
C2    C50   S    
C1    O3    A    
C54   H25   S    
C76   H68   S    
C11   C17   A    
C73   H61   S    
C81   H82   S    
C57   H28   S    
O6    Zn2   S    
C1    O1    A    
N2    Zn1   S    
O5    Zn1   S    
C39   C51   S    
C4    C12   A    
C17   H5    S    
C7    H8    S    
C18   H6    S    
C39   C45   S    
C71   H66   S    
C19   H3    S    
C53   H14   S    
C6    O11   S    
C75   H72   S    
C76   H69   S    
C13   C14   A    
C77   H76   S    
C61   H34   S    
C5    C49   A    
C36   H12   S    
C70   H56   S    
C44   C46   S    
C37   C65   S    
C60   H36   S    
C45   C47   S    
C80   H84   S    
C78   H80   S    
C46   C48   S    
C21   N1    A    
C63   H43   S    
C27   C31   A    
C84   H90   S    
C58   H30   S    
C23   O7    A    
C59   H39   S    
C28   C32   A    
C73   H63   S    
C62   H45   S    
C52   C53   S    
C7    C49   A    
C20   H4    S    
C10   C14   A    
C64   H42   S    
C52   H17   S    
C21   O10   S    
C55   C56   S    
C69   C70   S    
C60   H37   S    
C74   H73   S    
C34   C62   S    
C54   C55   S    
C4    C82   S    
C37   C43   S    
C40   C46   S    
C51   C52   S    
C67   H48   S    
C38   C44   S    
C69   H57   S    
C8    H7    S    
C70   H55   S    
C54   H26   S    
C79   C80   S    
C66   H51   S    
C5    O12   S    
C81   H83   S    
C57   H27   S    
C40   C43   S    
C44   C71   S    
C41   C47   T    
C31   C34   A    
C33   C59   S    
C35   H11   S    
O3    Zn2   S    
C42   C48   T    
C38   C68   S    
C6    C50   A    
C43   C45   S    
C9    C11   A    
C10   C12   A    
C83   C84   S    
C72   H65   S    
C71   H67   S    
C4    C6    A    
C80   C81   S    
C20   C22   A    
C75   H71   S    
C76   H70   S    
C56   H21   S    
C77   H75   S    
C61   H35   S    
C13   C16   A    
C61   H33   S    
C67   H47   S    
C19   C29   A    
C8    C50   A    
C24   O8    A    
C79   H86   S    
C72   C73   S    
C70   H54   S    
C53   H15   S    
C3    C79   S    
C15   C17   A    
C68   H60   S    
C62   H46   S    
C19   C21   A    
C15   H9    S    
C31   C32   A    
C67   H49   S    
C82   H93   S    
O8    Zn1   S    
C3    C5    A    
C16   C18   A    
C52   H16   S    
O7    Zn2   S    
C2    O2    A    
C39   C44   S    
N1    Zn2   S    
C74   H74   S    
C25   C27   A    
C59   C60   S    
C29   C35   A    
C26   C28   A    
C23   C41   S    
C58   H31   S    
C30   C36   A    
C32   C33   A    
C28   C30   A    
O4    Zn1   S    
C25   H2    S    
C84   H88   S    
C37   C39   S    
C55   H24   S    
C26   H1    S    
C38   C40   S    
C51   H18   S    
C82   C83   S    
C65   C66   S    
C66   H50   S    
C68   H59   S    
O10   C58   S    
C33   C35   A    
C34   C36   A    
C69   H58   S    
C83   H92   S    
C84   H89   S    
C3    C11   A    
C22   N2    A    
C72   H64   S    
C77   H77   S    
C8    C10   A    
C81   H81   S    
C60   C61   S    
C56   H22   S    
C12   C18   A    
C74   C75   S    
C14   C15   A    
C58   H32   S    
C37   C46   S    
C64   H40   S    
C1    C49   S    
C79   H87   S    
