data_mof_unit_20592.cif
_audit_creation_date              2012-12-10T18:04:50-0500
_audit_creation_method            fapswitch 2.2
_symmetry_space_group_name_H-M    P1
_symmetry_Int_Tables_number       1
_space_group_crystal_system       triclinic
_cell_length_a                    10.771963
_cell_length_b                    9.521139
_cell_length_c                    17.756057
_cell_angle_alpha                 89.972197
_cell_angle_beta                  90.406894
_cell_angle_gamma                 89.962067
_cell_volume                      1821.0387622

loop_
_atom_site_label
_atom_site_type_symbol
_atom_type_description
_atom_site_fract_x
_atom_site_fract_y
_atom_site_fract_z
_atom_type_partial_charge
C1    C     C_R   0.262618 0.500069 0.499671 0.838634
C2    C     C_R   0.737382 0.499931 0.500326 0.838642
C3    C     C_1   0.499897 0.499988 0.966203 -0.020193
C4    C     C_1   0.500101 0.500011 0.033798 -0.020190
C5    C     C_R   0.063685 0.474221 0.431345 0.133864
C6    C     C_R   0.936316 0.525772 0.568653 0.133873
C7    C     C_R   0.933095 0.473743 0.432137 0.127575
C8    C     C_R   0.066906 0.526191 0.567867 0.127565
C9    C     C_R   0.500374 0.500033 0.355633 0.785584
C10   C     C_R   0.499629 0.499967 0.644367 0.785592
C11   C     C_R   0.871404 0.499726 0.500620 -0.109731
C12   C     C_R   0.128597 0.500272 0.499377 -0.109734
C13   C     C_R   0.471356 0.623969 0.845188 -0.006147
C14   C     C_R   0.528697 0.376045 0.154813 -0.006141
C15   C     C_R   0.472102 0.624101 0.154509 -0.005692
C16   C     C_R   0.527846 0.375883 0.845491 -0.005705
C17   C     C_R   0.472011 0.623329 0.766583 -0.230417
C18   C     C_R   0.528043 0.376686 0.233418 -0.230409
C19   C     C_R   0.472906 0.623490 0.233120 -0.227849
C20   C     C_R   0.527046 0.376495 0.766881 -0.227843
C21   C     C_R   0.499533 0.499918 0.727045 -0.059990
C22   C     C_R   0.500470 0.500082 0.272955 -0.059993
C23   C     C_R   0.424042 0.074517 0.452227 -0.015730
C24   C     C_R   0.575958 0.925483 0.547772 -0.015730
C25   C     C_R   0.575954 0.074306 0.547773 -0.016246
C26   C     C_R   0.424046 0.925693 0.452227 -0.016236
C27   C     C_R   0.499678 0.499944 0.885150 0.040997
C28   C     C_R   0.500322 0.500055 0.114851 0.040993
Cu1   Cu    Cu3+1 0.500000 0.640660 0.500000 0.941149
Cu2   Cu    Cu3+1 0.500000 0.359340 0.500000 0.941148
H1    H     H_    0.449857 0.719127 0.736255 0.158127
H2    H     H_    0.550239 0.280900 0.263746 0.158125
H3    H     H_    0.450762 0.719295 0.263206 0.153833
H4    H     H_    0.549150 0.280678 0.736795 0.153840
H5    H     H_    0.363167 0.130691 0.413967 0.126091
H6    H     H_    0.636834 0.869309 0.586033 0.126083
H7    H     H_    0.636807 0.130308 0.586046 0.122272
H8    H     H_    0.363194 0.869691 0.413954 0.122266
N1    N     N_R   0.500000 0.852070 0.500000 -0.159873
N2    N     N_R   0.500000 0.147930 0.500000 -0.159878
O1    O     O_R   0.319640 0.618740 0.499990 -0.580410
O2    O     O_R   0.680360 0.381260 0.500010 -0.580421
O3    O     O_R   0.680360 0.618740 0.500010 -0.575564
O4    O     O_R   0.319640 0.381260 0.499990 -0.575543
O5    O     O_R   0.500000 0.618830 0.391250 -0.582901
O6    O     O_R   0.500000 0.381170 0.608750 -0.582901
O7    O     O_R   0.500000 0.618830 0.608750 -0.587932
O8    O     O_R   0.500000 0.381170 0.391250 -0.587919
C29   C     C_1   0.440665 0.753202 0.883337 0.243976
N3    N     N_1   0.415802 0.857083 0.913461 -0.224397
C30   C     C_1   0.559439 0.246826 0.116665 0.243988
N4    N     N_1   0.584344 0.142956 0.086542 -0.224441
C31   C     C_1   0.441311 0.753315 0.116035 0.243091
N5    N     N_1   0.416373 0.857180 0.085647 -0.225559
C32   C     C_1   0.558581 0.246653 0.883967 0.243078
N6    N     N_1   0.583473 0.142777 0.914356 -0.225515
C33   C     C_3   0.132386 0.448828 0.358077 -0.841849
H9    H     H_    0.234643 0.453067 0.363353 0.214918
H10   H     H_    0.108881 0.343087 0.335846 0.236469
H11   H     H_    0.105992 0.530441 0.316234 0.234927
C34   C     C_3   0.867617 0.551191 0.641919 -0.841927
H12   H     H_    0.765352 0.547278 0.636611 0.214982
H13   H     H_    0.893814 0.469409 0.683714 0.234901
H14   H     H_    0.891333 0.656820 0.664224 0.236508
C35   C     C_3   0.856642 0.447657 0.360987 -0.827611
H15   H     H_    0.798291 0.352680 0.368493 0.235056
H16   H     H_    0.795278 0.539270 0.349941 0.221857
H17   H     H_    0.911721 0.430769 0.309502 0.239652
C36   C     C_3   0.143359 0.552162 0.639029 -0.827567
H18   H     H_    0.201605 0.647240 0.631591 0.235041
H19   H     H_    0.088284 0.568774 0.690542 0.239655
H20   H     H_    0.204826 0.460598 0.649987 0.221835

loop_
_geom_bond_atom_site_label_1
_geom_bond_atom_site_label_2
_ccdc_geom_bond_type
C10   O6    A    
C34   H14   S    
C15   C19   A    
C32   N6    T    
C9    O5    A    
Cu1   Cu2   S    
C13   C17   A    
C7    C35   S    
C14   C18   A    
C1    O4    A    
C14   C30   S    
C5    C33   S    
C2    O3    A    
C8    C12   A    
C35   H17   S    
C20   H4    S    
Cu1   N1    S    
C16   C27   A    
C3    C27   S    
C33   H9    S    
C16   C32   S    
Cu2   N2    S    
C30   N4    T    
C10   C21   S    
Cu1   O1    S    
C31   N5    T    
Cu1   O3    S    
C7    C11   A    
Cu2   O4    S    
C8    C36   S    
C24   H6    S    
C1    C12   S    
C2    O2    A    
C13   C29   S    
C2    C11   S    
C15   C31   S    
C6    C34   S    
C1    O1    A    
C16   C20   A    
C4    C28   S    
Cu1   O7    S    
C29   N3    T    
C23   H5    S    
C36   H18   S    
C25   N2    A    
C34   H12   S    
C17   H1    S    
C17   C21   A    
C26   N1    A    
C33   H10   S    
Cu1   O5    S    
C18   H2    S    
C5    C12   A    
C15   C28   A    
C23   N2    A    
C36   H19   S    
C6    C11   A    
C19   C22   A    
C24   C25   A    
C9    O8    A    
C34   H13   S    
C35   H15   S    
C19   H3    S    
C23   C26   A    
Cu2   O8    S    
C10   O7    A    
C5    C7    A    
C9    C22   S    
C13   C27   A    
C33   H11   S    
C6    C8    A    
C14   C28   A    
C20   C21   A    
C18   C22   A    
Cu2   O2    S    
C24   N1    A    
Cu2   O6    S    
C26   H8    S    
C3    C4    T    
C36   H20   S    
C35   H16   S    
C25   H7    S    
