data_mof_unit_14859.cif
_audit_creation_date              2012-12-10T17:03:38-0500
_audit_creation_method            fapswitch 2.2
_symmetry_space_group_name_H-M    P1
_symmetry_Int_Tables_number       1
_space_group_crystal_system       triclinic
_cell_length_a                    10.018809
_cell_length_b                    10.712695
_cell_length_c                    13.221763
_cell_angle_alpha                 91.32645
_cell_angle_beta                  70.191868
_cell_angle_gamma                 92.330296
_cell_volume                      1333.93826256

loop_
_atom_site_label
_atom_site_type_symbol
_atom_type_description
_atom_site_fract_x
_atom_site_fract_y
_atom_site_fract_z
_atom_type_partial_charge
C1    C     C_R   0.502875 0.737776 0.500653 0.934442
C2    C     C_R   0.373849 0.517522 0.821260 -0.120196
C3    C     C_2   0.581331 0.072064 0.546426 -0.177643
C4    C     C_R   0.422147 0.507244 0.703892 0.852943
C5    C     C_2   0.469659 0.134612 0.543127 -0.010410
C6    C     C_2   0.573483 0.938300 0.558603 0.223277
C7    C     C_2   0.514539 0.870599 0.496781 -0.343015
C8    C     C_2   0.103437 0.437811 0.430379 -0.125243
C9    C     C_2   0.951647 0.433033 0.433688 -0.134352
C10   C     C_R   0.493167 0.262680 0.508723 0.919900
C11   C     C_R   0.578558 0.499442 0.296254 0.871487
C12   C     C_R   0.436726 0.523512 0.983719 0.087756
C13   C     C_R   0.784619 0.609690 0.019259 -0.206177
C14   C     C_R   0.626622 0.513387 0.180639 -0.058043
C15   C     C_R   0.235631 0.475643 0.880790 -0.196342
C16   C     C_R   0.195771 0.462457 0.991351 -0.151224
C17   C     C_R   0.295563 0.482933 0.042441 -0.191318
C18   C     C_3   0.317397 0.082558 0.584380 -0.868124
C19   C     C_3   0.626082 0.884874 0.641887 -0.872019
C20   C     C_R   0.470349 0.554549 0.874721 0.096392
C21   C     C_R   0.545624 0.535225 0.029621 0.079974
C22   C     C_R   0.678356 0.594628 0.972447 0.182694
C23   C     C_R   0.702224 0.640071 0.870213 -0.260841
C24   C     C_R   0.599982 0.620497 0.822126 -0.212020
C25   C     C_R   0.526899 0.487609 0.130511 -0.254052
C26   C     C_R   0.757775 0.571136 0.124309 -0.210620
H1    H     H_    0.836158 0.591346 0.162739 0.159108
H2    H     H_    0.159438 0.449783 0.841536 0.158971
H3    H     H_    0.258167 0.469600 0.128261 0.128350
H4    H     H_    0.088417 0.431497 0.037197 0.144935
H5    H     H_    0.624596 0.659301 0.743467 0.175609
H6    H     H_    0.685498 0.117255 0.530183 0.155138
H7    H     H_    0.248587 0.150878 0.640755 0.244505
H8    H     H_    0.278030 0.066140 0.516001 0.236590
H9    H     H_    0.305057 0.994962 0.630276 0.250759
H10   H     H_    0.662150 0.960408 0.686648 0.234757
H11   H     H_    0.537199 0.831883 0.700653 0.222559
H12   H     H_    0.473689 0.914969 0.440658 0.137642
H13   H     H_    0.717416 0.824469 0.603821 0.245208
H14   H     H_    0.179097 0.385222 0.366997 0.152418
H15   H     H_    0.076340 0.543697 0.562069 0.158479
H16   H     H_    0.924819 0.371686 0.376480 0.154411
H17   H     H_    0.878142 0.561322 0.549784 0.158680
H18   H     H_    0.801050 0.689219 0.826475 0.144338
H19   H     H_    0.885893 0.655470 0.976227 0.141040
H20   H     H_    0.432604 0.433228 0.173775 0.144189
N1    N     N_2   0.148270 0.498670 0.498870 -0.187223
N2    N     N_2   0.852610 0.498640 0.498840 -0.187881
O1    O     O_R   0.386950 0.680940 0.500020 -0.610052
O2    O     O_R   0.613110 0.680900 0.499980 -0.608098
O3    O     O_R   0.330780 0.500000 0.653640 -0.616400
O4    O     O_R   0.556930 0.499960 0.653610 -0.612094
O5    O     O_R   0.386890 0.319100 0.500020 -0.601364
O6    O     O_R   0.613050 0.319060 0.499980 -0.624445
O7    O     O_R   0.443070 0.500040 0.346390 -0.611045
O8    O     O_R   0.669220 0.500000 0.346360 -0.614066
Zn1   Zn    Zn3+2 0.349000 0.500030 0.500020 0.937151
Zn2   Zn    Zn3+2 0.651000 0.499970 0.499980 0.930604

loop_
_geom_bond_atom_site_label_1
_geom_bond_atom_site_label_2
_ccdc_geom_bond_type
C12   C17   A    
C2    C4    S    
C23   C24   A    
N2    Zn2   S    
C6    C7    D    
O3    Zn1   S    
N1    Zn1   S    
C17   H3    S    
C1    O2    A    
C9    H16   S    
C3    C6    S    
C12   C20   A    
O6    Zn2   S    
C15   H2    S    
C8    N1    D    
O1    Zn1   S    
C5    C10   S    
C21   C22   A    
C14   C26   A    
C13   H19   S    
C2    C15   A    
C18   H8    S    
C26   H1    S    
O4    Zn2   S    
C4    O4    A    
C19   H13   S    
C18   H9    S    
C11   C14   S    
C7    H12   S    
O8    Zn2   S    
C13   C22   A    
C19   H10   S    
O7    Zn1   S    
C14   C25   A    
H15   N1    S    
C3    H6    S    
C10   O6    A    
C18   H7    S    
C13   C26   A    
C24   H5    S    
C19   H11   S    
C23   H18   S    
C4    O3    A    
C16   H4    S    
C15   C16   A    
O2    Zn2   S    
C6    C19   S    
C11   O7    A    
C25   H20   S    
C9    N2    D    
H17   N2    S    
C10   O5    A    
C21   C25   A    
C22   C23   A    
C16   C17   A    
O5    Zn1   S    
C5    C18   S    
C8    H14   S    
C1    C7    S    
C2    C20   A    
C12   C21   A    
C11   O8    A    
C20   C24   A    
C8    C9    S    
C3    C5    D    
C1    O1    A    
