data_mof_unit_40339.cif
_audit_creation_date              2013-03-05T15:44:41-0500
_audit_creation_method            fapswitch 2.2
_symmetry_space_group_name_H-M    P1
_symmetry_Int_Tables_number       1
_space_group_crystal_system       triclinic
_cell_length_a                    10.55892
_cell_length_b                    10.728385
_cell_length_c                    10.063995
_cell_angle_alpha                 89.384467
_cell_angle_beta                  89.254059
_cell_angle_gamma                 90.515749
_cell_volume                      1139.84091348

loop_
_atom_site_label
_atom_site_type_symbol
_atom_site_description
_atom_site_fract_x
_atom_site_fract_y
_atom_site_fract_z
_atom_type_partial_charge
O1    O     O_R   0.499980 0.319060 0.613040 -0.594743
O2    O     O_R   0.500020 0.319100 0.386900 -0.628955
C1    C     C_R   0.495503 0.262744 0.500525 0.957187
O3    O     O_R   0.313930 0.499950 0.613050 -0.623210
O4    O     O_R   0.313970 0.499990 0.386910 -0.600590
C2    C     C_R   0.258050 0.501513 0.500787 0.972949
Zn1   Zn    Zn3+2 0.499970 0.499970 0.650990 1.038629
Zn2   Zn    Zn3+2 0.500030 0.500030 0.349010 1.031864
O5    O     O_R   0.499980 0.680900 0.613100 -0.599118
O6    O     O_R   0.500020 0.680940 0.386960 -0.608067
O7    O     O_R   0.686030 0.500010 0.613090 -0.579795
O8    O     O_R   0.686070 0.500050 0.386950 -0.571933
C3    C     C_R   0.501701 0.737208 0.499331 0.996489
C4    C     C_R   0.742144 0.499339 0.499007 1.029929
C5    C     C_3   0.039626 0.503352 0.628385 -0.274627
C6    C     C_3   0.959113 0.401199 0.562741 0.324401
H1    H     H_    0.071944 0.504518 0.732911 0.211323
C7    C     C_3   0.876579 0.499941 0.496630 -0.284258
C8    C     C_3   0.957925 0.602323 0.558734 0.202451
C9    C     C_3   0.043594 0.602812 0.435588 0.242374
C10   C     C_3   0.963426 0.499864 0.372277 -0.160250
C11   C     C_3   0.045714 0.398315 0.438725 -0.289631
C12   C     C_3   0.124145 0.503341 0.502139 -0.187294
H2    H     H_    0.084696 0.313631 0.391317 0.201336
C13   C     C_2   0.474699 0.933404 0.390658 -0.090982
C14   C     C_2   0.510199 0.869068 0.497757 -0.262008
H3    H     H_    0.442165 0.887420 0.301564 0.224746
H4    H     H_    0.548481 0.912019 0.585776 0.183637
C15   C     C_2   0.482052 0.067568 0.388814 -0.121298
C16   C     C_2   0.479340 0.131120 0.502157 -0.264535
H5    H     H_    0.490182 0.113802 0.292446 0.195977
H6    H     H_    0.461642 0.087470 0.598378 0.169372
C17   C     C_2   0.563407 0.579683 0.922420 -0.117123
N1    N     N_2   0.501360 0.501330 0.852150 -0.194099
H7    H     H_    0.624014 0.646884 0.870290 0.207178
H8    H     H_    0.437063 0.443456 0.899863 0.176266
C18   C     C_2   0.553343 0.587511 0.071622 -0.026260
N2    N     N_2   0.501400 0.501360 0.147810 -0.219883
H9    H     H_    0.471028 0.420754 0.103738 0.168759
N3    N     N_R   0.915590 0.288224 0.631735 0.235734
O9    O     O_R   0.997727 0.214898 0.686535 -0.321585
O10   O     O_R   0.796507 0.256339 0.633026 -0.366462
C19   C     C_2   0.609583 0.701065 0.128636 0.998696
O11   O     O_2   0.577534 0.803231 0.086625 -0.621564
O12   O     O_R   0.704851 0.692502 0.222892 -0.745070
H10   H     H_    0.736575 0.777136 0.252429 0.370169
N4    N     N_R   0.914286 0.715925 0.622403 0.246951
O13   O     O_R   0.996230 0.791473 0.674669 -0.290275
O14   O     O_R   0.795265 0.745775 0.621820 -0.389752
N5    N     N_R   0.087698 0.716870 0.368824 0.255112
O15   O     O_R   0.005771 0.795291 0.322284 -0.298389
O16   O     O_R   0.207701 0.744566 0.361986 -0.385909
C20   C     C_2   0.924499 0.492710 0.229683 1.048513
O17   O     O_2   0.956929 0.574575 0.150708 -0.556483
O18   O     O_R   0.852483 0.390984 0.187643 -0.764593
H11   H     H_    0.831172 0.396661 0.089833 0.348698

loop_
_geom_bond_atom_site_label_1
_geom_bond_atom_site_label_2
_geom_bond_distance
_ccdc_geom_bond_type
C18   C19   1.475425 S    
O4    Zn2   1.996392 S    
N5    O16   1.299650 A    
O18   H11   1.013924 S    
C18   N2    1.306787 D    
O2    C1    1.287896 A    
C13   H3    1.086197 S    
C7    C10   1.541841 S    
C4    C7    1.419332 S    
C14   H4    1.084045 S    
C8    C9    1.524739 S    
C9    C12   1.525344 S    
Zn2   O8    2.006018 S    
Zn1   O5    1.974162 S    
C5    C12   1.543102 S    
N5    O15   1.300292 A    
N4    O14   1.299756 A    
C15   H5    1.086613 S    
O1    Zn1   1.982116 S    
C20   O17   1.221829 D    
Zn1   O7    1.996392 S    
C19   O12   1.394555 S    
C15   C16   1.335311 D    
Zn2   N2    2.024636 S    
C6    N3    1.458062 S    
O3    Zn1   2.006020 S    
C2    C12   1.414099 S    
C10   C20   1.500471 S    
C1    C16   1.420755 S    
C10   C11   1.550993 S    
N3    O9    1.300219 A    
C17   H7    1.085988 S    
O8    C4    1.280508 A    
C17   N1    1.284869 D    
N1    H8    1.026897 S    
C20   O18   1.397004 S    
C19   O11   1.222743 D    
C13   C15   1.440663 S    
O4    C2    1.282698 A    
Zn1   N1    2.024926 S    
C11   H2    1.110585 S    
C3    C14   1.416591 S    
O3    C2    1.281411 A    
C5    C6    1.540665 S    
C16   H6    1.084402 S    
O12   H10   1.013871 S    
N2    H9    1.026820 S    
C9    C10   1.534505 S    
C6    C7    1.530005 S    
C7    C8    1.531861 S    
C8    N4    1.458597 S    
O2    Zn2   1.974164 S    
O7    C4    1.285250 A    
C5    H1    1.110290 S    
O5    C3    1.288644 A    
C11   C12   1.541143 S    
C9    N5    1.459308 S    
C13   C14   1.333358 D    
C5    C8    1.542474 S    
Zn2   O6    1.982115 S    
C17   C18   1.507232 S    
N4    O13   1.300238 A    
C6    C11   1.538335 S    
N3    O10   1.299982 A    
O1    C1    1.290375 A    
O6    C3    1.287894 A    
