data_mof_unit_26749.cif
_audit_creation_date              2012-12-10T17:53:24-0500
_audit_creation_method            fapswitch 2.2
_symmetry_space_group_name_H-M    P1
_symmetry_Int_Tables_number       1
_space_group_crystal_system       triclinic
_cell_length_a                    23.420017
_cell_length_b                    10.666294
_cell_length_c                    9.882197
_cell_angle_alpha                 91.293788
_cell_angle_beta                  90.133853
_cell_angle_gamma                 92.025344
_cell_volume                      2466.43686374

loop_
_atom_site_label
_atom_site_type_symbol
_atom_type_description
_atom_site_fract_x
_atom_site_fract_y
_atom_site_fract_z
_atom_type_partial_charge
Br1   Br    Br    0.930535 0.086233 0.461395 -0.396610
Br2   Br    Br    0.509861 0.122249 0.191396 -0.538095
Br3   Br    Br    0.198132 0.484651 0.204894 -0.460851
C1    C     C_R   0.507469 0.261570 0.498153 0.897037
C2    C     C_R   0.121034 0.593128 0.511726 0.555535
C3    C     C_R   0.237740 0.485731 0.374851 0.331015
C4    C     C_R   0.389325 0.498737 0.499834 0.898862
C5    C     C_R   0.297097 0.491209 0.375819 -0.247605
C6    C     C_R   0.327015 0.493600 0.499200 -0.095104
C7    C     C_R   0.296962 0.489313 0.621777 -0.201521
C8    C     C_R   0.237705 0.483806 0.620866 -0.135670
C9    C     C_R   0.208171 0.482372 0.497900 0.246588
C10   C     C_R   0.761735 0.477031 0.379599 -0.093686
C11   C     C_R   0.702595 0.482172 0.378515 -0.198685
C12   C     C_R   0.966646 0.250946 0.478243 0.314382
C13   C     C_R   0.672839 0.496513 0.500756 -0.035506
C14   C     C_R   0.702932 0.505850 0.623861 -0.219251
C15   C     C_R   0.762074 0.501055 0.624483 -0.090322
C16   C     C_R   0.505394 0.740204 0.501401 0.908922
C17   C     C_R   0.791305 0.486549 0.502468 0.311196
C18   C     C_R   0.574915 0.142640 0.712926 -0.138474
C19   C     C_R   0.598791 0.082185 0.821784 -0.081779
C20   C     C_R   0.597498 0.952051 0.824377 -0.114745
C21   C     C_R   0.571998 0.881930 0.718552 -0.158718
C22   C     C_R   0.544574 0.941110 0.610707 0.110375
C23   C     C_R   0.026198 0.253330 0.477986 -0.177961
C24   C     C_R   0.546436 0.073370 0.607113 0.065530
C25   C     C_R   0.522995 0.131384 0.492607 -0.197464
C26   C     C_R   0.512889 0.060087 0.372662 0.271242
C27   C     C_R   0.506936 0.933078 0.380643 -0.230521
C28   C     C_R   0.610661 0.499857 0.500159 0.847890
C29   C     C_R   0.517858 0.873485 0.501412 -0.185011
C30   C     C_R   0.420834 0.344670 0.136422 -0.112393
C31   C     C_R   0.381309 0.269065 0.064290 -0.132785
C32   C     C_R   0.381775 0.267545 0.924257 -0.169694
C33   C     C_R   0.421563 0.342076 0.855716 -0.155594
C34   C     C_R   0.057892 0.366734 0.489385 -0.073649
C35   C     C_R   0.460941 0.423222 0.925606 0.173335
C36   C     C_R   0.460751 0.423903 0.070376 0.186810
C37   C     C_R   0.537863 0.572069 0.073696 -0.096909
C38   C     C_R   0.537958 0.571688 0.930479 -0.112407
C39   C     C_R   0.882488 0.594532 0.515196 0.514160
C40   C     C_R   0.877329 0.370648 0.491017 0.544259
C41   C     C_R   0.937351 0.365156 0.490372 -0.098766
C42   C     C_R   0.969543 0.480080 0.502436 -0.056665
C43   C     C_R   0.941910 0.595264 0.515111 -0.008932
C44   C     C_R   0.029635 0.480535 0.501732 -0.014687
C45   C     C_R   0.061487 0.595110 0.513313 -0.014493
C46   C     C_R   0.033327 0.708497 0.525975 -0.133460
C47   C     C_R   0.974056 0.708545 0.526987 -0.120100
C48   C     C_R   0.117617 0.369423 0.488632 0.580458
H1    H     H_    0.680296 0.474403 0.282390 0.166064
H2    H     H_    0.047700 0.165275 0.468558 0.216296
H3    H     H_    0.420652 0.333816 0.243212 0.209443
H4    H     H_    0.351194 0.208780 0.117498 0.173315
H5    H     H_    0.351795 0.206569 0.868210 0.168651
H6    H     H_    0.420606 0.331710 0.748461 0.207035
H7    H     H_    0.569352 0.629189 0.878574 0.128848
H8    H     H_    0.056937 0.797484 0.535072 0.205061
H9    H     H_    0.953530 0.797666 0.536965 0.224284
H10   H     H_    0.319597 0.493928 0.280241 0.187412
H11   H     H_    0.319101 0.490455 0.718169 0.179990
H12   H     H_    0.680917 0.517047 0.719408 0.158699
H13   H     H_    0.214571 0.481491 0.715590 0.170178
H14   H     H_    0.784686 0.466192 0.285289 0.143403
H15   H     H_    0.785276 0.508700 0.719398 0.141871
H16   H     H_    0.582153 0.243042 0.709968 0.168268
H17   H     H_    0.620342 0.136479 0.901793 0.157844
H18   H     H_    0.618107 0.905146 0.906302 0.143892
H19   H     H_    0.577220 0.782195 0.719347 0.150766
H20   H     H_    0.493304 0.881021 0.290082 0.207606
H21   H     H_    0.568776 0.630901 0.129303 0.146147
N1    N     N_R   0.851943 0.483729 0.503109 -0.369856
N2    N     N_R   0.147489 0.481484 0.499164 -0.350395
N3    N     N_R   0.499460 0.498800 0.142780 -0.117846
N4    N     N_R   0.499440 0.498720 0.857170 -0.123199
O1    O     O_R   0.500000 0.316780 0.614690 -0.652764
O2    O     O_R   0.583850 0.500050 0.614640 -0.645357
O3    O     O_R   0.583840 0.500030 0.385310 -0.616315
O4    O     O_2   0.855124 0.703603 0.526538 -0.517281
O5    O     O_2   0.844049 0.265284 0.480153 -0.479036
O6    O     O_2   0.145776 0.261442 0.477326 -0.525126
O7    O     O_2   0.152437 0.701529 0.522266 -0.523819
O8    O     O_R   0.500000 0.316750 0.385360 -0.587858
O9    O     O_R   0.416160 0.499970 0.614690 -0.633479
O10   O     O_R   0.416150 0.499950 0.385360 -0.641668
O11   O     O_R   0.500000 0.683250 0.614640 -0.615241
O12   O     O_R   0.500000 0.683220 0.385310 -0.617253
Zn1   Zn    Zn3+2 0.500000 0.500020 0.653130 0.934592
Zn2   Zn    Zn3+2 0.500000 0.499980 0.346870 0.967345

loop_
_geom_bond_atom_site_label_1
_geom_bond_atom_site_label_2
_ccdc_geom_bond_type
C40   N1    A    
C39   O4    S    
C9    N2    S    
C20   H18   S    
C32   C33   A    
C48   N2    A    
Br3   C3    S    
C27   H20   S    
C21   H19   S    
C10   H14   S    
C42   C43   A    
C13   C28   S    
O1    Zn1   S    
C30   C36   A    
Br2   C26   S    
C25   C26   A    
C12   C41   A    
C16   O11   A    
C3    C9    A    
C35   C36   A    
C34   C48   A    
C4    O10   A    
C31   C32   A    
C39   C43   A    
C2    N2    A    
O3    Zn2   S    
N3    Zn2   S    
C11   H1    S    
C13   C14   A    
C20   C21   A    
Br1   C12   S    
C36   N3    A    
C34   C44   A    
C6    C7    A    
N4    Zn1   S    
C22   C29   A    
C18   C24   A    
C31   H4    S    
C10   C11   A    
C18   H16   S    
C7    H11   S    
O8    Zn2   S    
C16   C29   S    
C1    C25   S    
C14   C15   A    
C42   C44   A    
O2    Zn1   S    
C2    C45   A    
C21   C22   A    
C16   O12   A    
O10   Zn2   S    
O9    Zn1   S    
C5    C6    A    
C12   C23   A    
C3    C5    A    
C40   C41   A    
C26   C27   A    
C44   C45   A    
C1    O8    A    
C30   C31   A    
C48   O6    S    
C19   H17   S    
C45   C46   A    
C35   N4    A    
O12   Zn2   S    
C8    H13   S    
O11   Zn1   S    
C40   O5    S    
C11   C13   A    
C15   H15   S    
C23   H2    S    
C41   C42   A    
C33   H6    S    
C28   O2    A    
C30   H3    S    
C4    C6    S    
C37   C38   A    
C39   N1    A    
C37   H21   S    
C10   C17   A    
C32   H5    S    
C38   H7    S    
C8    C9    A    
C23   C34   A    
C28   O3    A    
C22   C24   A    
C43   C47   A    
C46   H8    S    
C37   N3    A    
C47   H9    S    
C33   C35   A    
C1    O1    A    
C14   H12   S    
C38   N4    A    
C27   C29   A    
C4    O9    A    
C2    O7    S    
C17   N1    S    
C15   C17   A    
C5    H10   S    
C7    C8    A    
C46   C47   A    
C24   C25   A    
C19   C20   A    
C18   C19   A    
