data_mof_unit_36289.cif
_audit_creation_date              2013-03-05T16:06:11-0500
_audit_creation_method            fapswitch 2.2
_symmetry_space_group_name_H-M    P1
_symmetry_Int_Tables_number       1
_space_group_crystal_system       triclinic
_cell_length_a                    15.073219
_cell_length_b                    15.145768
_cell_length_c                    15.755567
_cell_angle_alpha                 90.831991
_cell_angle_beta                  105.345206
_cell_angle_gamma                 82.747773
_cell_volume                      3440.2704509

loop_
_atom_site_label
_atom_site_type_symbol
_atom_site_description
_atom_site_fract_x
_atom_site_fract_y
_atom_site_fract_z
_atom_type_partial_charge
O1    O     O_R   0.383110 0.605620 0.475230 -0.628492
O2    O     O_R   0.616890 0.394380 0.524770 -0.623427
O3    O     O_R   0.531900 0.639510 0.506760 -0.579615
O4    O     O_R   0.468100 0.360490 0.493240 -0.568640
C1    C     C_R   0.442412 0.663412 0.490834 0.904084
C2    C     C_R   0.557569 0.336681 0.514458 0.906738
O5    O     O_R   0.425620 0.483070 0.607460 -0.630067
O6    O     O_R   0.574380 0.516930 0.392540 -0.641542
O7    O     O_R   0.574400 0.516960 0.638990 -0.557172
O8    O     O_R   0.425600 0.483040 0.361010 -0.564697
C3    C     C_R   0.501824 0.500254 0.662149 0.918119
C4    C     C_R   0.498157 0.499760 0.337806 0.904804
Zn1   Zn    Zn3+2 0.400660 0.477370 0.478940 1.034911
Zn2   Zn    Zn3+2 0.599340 0.522630 0.521060 1.015316
C5    C     C_3   0.438901 0.567708 0.010840 0.320750
C6    C     C_3   0.559321 0.433384 0.988443 0.322090
C7    C     C_3   0.524278 0.577819 0.976890 -0.263323
C8    C     C_3   0.473907 0.423289 0.022368 -0.265748
H1    H     H_    0.543486 0.641538 0.957605 0.216752
H2    H     H_    0.454674 0.359565 0.041602 0.207563
C9    C     C_1   0.505542 0.500354 0.751696 -0.079693
C10   C     C_1   0.494138 0.500122 0.248107 -0.102744
C11   C     C_3   0.413997 0.489854 0.949159 -0.089713
C12   C     C_3   0.584217 0.511262 0.050046 -0.095736
C13   C     C_3   0.500214 0.498389 0.916049 -0.016014
C14   C     C_3   0.498056 0.502720 0.083255 -0.013670
C15   C     C_1   0.504907 0.499542 0.826649 0.062341
C16   C     C_1   0.494140 0.501303 0.172953 0.053161
C17   C     C_R   0.407685 0.757110 0.502029 -0.131789
C18   C     C_R   0.590575 0.243328 0.541636 -0.138445
C19   C     C_R   0.278589 0.871988 0.500720 0.349156
C20   C     C_R   0.711231 0.126978 0.615491 0.349916
C21   C     C_R   0.312392 0.785211 0.483180 -0.236179
C22   C     C_R   0.683987 0.213433 0.579555 -0.224902
C23   C     C_R   0.469687 0.815945 0.541806 -0.104118
C24   C     C_R   0.524765 0.186223 0.539070 -0.102271
C25   C     C_R   0.438304 0.902532 0.562720 0.074705
C26   C     C_R   0.547392 0.104714 0.584526 0.058696
C27   C     C_R   0.341883 0.934112 0.535682 -0.123589
C28   C     C_R   0.642489 0.071950 0.621168 -0.115865
C29   C     C_R   0.503204 0.960697 0.602018 -0.083285
C30   C     C_R   0.476883 0.051836 0.586294 -0.082191
C31   C     C_R   0.381117 0.085213 0.569319 0.221087
C32   C     C_R   0.593362 0.931440 0.656328 0.176629
C33   C     C_R   0.313689 0.026226 0.544079 0.213783
C34   C     C_R   0.664225 0.987055 0.664036 0.208348
H3    H     H_    0.454634 0.206310 0.501038 0.222091
H4    H     H_    0.543327 0.795042 0.554671 0.194940
H5    H     H_    0.736236 0.256431 0.579527 0.195728
H6    H     H_    0.263309 0.738850 0.456594 0.192722
N1    N     N_R   0.731710 0.552730 0.549140 -0.153407
N2    N     N_R   0.268290 0.447270 0.450860 -0.151418
C35   C     C_R   0.854647 0.616788 0.649305 -0.294968
C36   C     C_R   0.148732 0.376605 0.354012 -0.278696
C37   C     C_R   0.764083 0.597171 0.625304 0.437617
C38   C     C_R   0.240405 0.393166 0.381334 0.494153
C39   C     C_R   0.789480 0.520954 0.499280 -0.128487
C40   C     C_R   0.207837 0.487051 0.494209 -0.104709
C41   C     C_R   0.884714 0.534076 0.524474 0.008719
C42   C     C_R   0.113016 0.473272 0.468500 0.009393
C43   C     C_R   0.914913 0.586088 0.599406 0.088016
C44   C     C_R   0.084817 0.416355 0.397010 0.098366
C45   C     C_R   0.951288 0.495852 0.480362 0.092559
C46   C     C_R   0.045723 0.513708 0.510549 0.093098
C47   C     C_R   0.070042 0.570450 0.582442 -0.223907
C48   C     C_R   0.927360 0.438354 0.409033 -0.224527
C49   C     C_R   0.005928 0.605019 0.626395 -0.132554
C50   C     C_R   0.992975 0.399746 0.368154 -0.131666
H7    H     H_    0.028374 0.645917 0.683238 0.183111
H8    H     H_    0.971509 0.356173 0.313317 0.176208
H9    H     H_    0.235530 0.530205 0.546657 0.145600
H10   H     H_    0.760028 0.484066 0.442139 0.151359
H11   H     H_    0.878475 0.653821 0.708720 0.208968
H12   H     H_    0.127557 0.333647 0.298569 0.188977
H13   H     H_    0.138880 0.588105 0.608276 0.153817
H14   H     H_    0.858314 0.421040 0.383311 0.153629
N3    N     N_R   0.303322 0.355904 0.332939 0.221796
O9    O     O_R   0.291474 0.384123 0.252628 -0.389320
O10   O     O_R   0.350863 0.278538 0.357106 -0.369565
N4    N     N_R   0.708472 0.619598 0.684939 0.237153
O11   O     O_R   0.633295 0.675158 0.660498 -0.344288
O12   O     O_R   0.741983 0.599021 0.768179 -0.364269
N5    N     N_R   0.372985 0.643217 0.021957 0.213637
O13   O     O_R   0.328003 0.693985 0.954522 -0.326375
O14   O     O_R   0.359037 0.660649 0.098787 -0.365085
N6    N     N_R   0.625142 0.357766 0.977342 0.214703
O15   O     O_R   0.670213 0.307121 0.044840 -0.335826
O16   O     O_R   0.638674 0.339918 0.900426 -0.348849
C51   C     C_R   0.681796 0.524984 0.099682 0.142287
C52   C     C_R   0.752733 0.512520 0.056365 -0.062942
C53   C     C_R   0.843534 0.525293 0.100710 -0.097003
C54   C     C_R   0.864088 0.552134 0.188192 -0.094102
C55   C     C_R   0.793691 0.566941 0.231148 -0.131606
C56   C     C_R   0.702950 0.553630 0.187235 -0.123803
H15   H     H_    0.737827 0.492802 0.988218 0.175268
H16   H     H_    0.897884 0.514753 0.067086 0.158402
H17   H     H_    0.934350 0.562164 0.222467 0.154812
H18   H     H_    0.809305 0.589223 0.298465 0.152972
H19   H     H_    0.649920 0.567596 0.221657 0.144891
C57   C     C_R   0.316206 0.476929 0.899285 0.137109
C58   C     C_R   0.245756 0.487562 0.943235 -0.074284
C59   C     C_R   0.154571 0.476425 0.898568 -0.097697
C60   C     C_R   0.133084 0.453211 0.810006 -0.093980
C61   C     C_R   0.202935 0.440337 0.766268 -0.108007
C62   C     C_R   0.294084 0.451906 0.810562 -0.103858
H20   H     H_    0.261333 0.504815 0.012088 0.170955
H21   H     H_    0.100608 0.485562 0.932727 0.158957
H22   H     H_    0.062507 0.444544 0.775460 0.160790
H23   H     H_    0.186577 0.420945 0.698024 0.169018
H24   H     H_    0.346540 0.439622 0.775326 0.155541
N7    N     N_R   0.217692 0.062066 0.521941 0.263846
O17   O     O_R   0.180347 0.093923 0.583382 -0.247611
O18   O     O_R   0.172835 0.077416 0.439775 -0.289709
N8    N     N_R   0.755599 0.959663 0.718923 0.263849
O19   O     O_R   0.786092 0.000248 0.792232 -0.267475
O20   O     O_R   0.808498 0.894276 0.695722 -0.277805
N9    N     N_R   0.180381 0.893019 0.486631 0.231837
O21   O     O_R   0.125122 0.876262 0.411145 -0.316448
O22   O     O_R   0.146503 0.907211 0.554175 -0.279623
N10   N     N_R   0.808397 0.095592 0.640613 0.239853
O23   O     O_R   0.840955 0.032665 0.595831 -0.280796
O24   O     O_R   0.865709 0.143151 0.692170 -0.295374
N11   N     N_R   0.352638 0.176502 0.587101 0.217270
O25   O     O_R   0.396959 0.213422 0.658206 -0.351991
O26   O     O_R   0.284600 0.223911 0.531385 -0.338704
N12   N     N_R   0.606080 0.855519 0.715240 0.244746
O27   O     O_R   0.534775 0.830449 0.735834 -0.321299
O28   O     O_R   0.688113 0.819843 0.759297 -0.252751

loop_
_geom_bond_atom_site_label_1
_geom_bond_atom_site_label_2
_geom_bond_distance
_ccdc_geom_bond_type
C48   C50   1.383873 A    
C62   H24   1.077126 S    
C55   C56   1.398150 A    
C17   C21   1.398601 A    
C29   C30   1.394217 A    
N7    O17   1.301168 A    
C8    C14   1.546705 S    
C12   C51   1.510564 S    
N8    O19   1.301129 A    
N11   O25   1.301573 A    
N3    O9    1.300961 A    
O5    C3    1.294093 A    
C32   N12   1.449725 S    
C57   C62   1.406661 A    
C58   C59   1.398564 A    
O1    C1    1.304072 A    
C23   C25   1.401969 A    
C12   C14   1.543127 S    
C26   C30   1.415270 A    
N9    O22   1.301057 A    
C61   H23   1.082566 S    
N6    O16   1.300269 A    
C40   H9    1.074683 S    
C39   C41   1.423315 A    
C40   C42   1.420154 A    
C4    C10   1.398518 S    
C58   H20   1.082911 S    
C24   H3    1.076071 S    
C42   C44   1.415424 A    
C51   C56   1.406244 A    
C19   N9    1.432181 S    
C53   H16   1.082372 S    
C36   H12   1.084712 S    
C35   C43   1.385717 A    
Zn2   N1    2.034982 S    
C32   C34   1.421517 A    
C47   C49   1.379694 A    
O6    Zn2   1.961928 S    
C19   C21   1.399395 A    
C60   H22   1.082553 S    
N1    C39   1.360981 A    
N1    C37   1.371404 A    
C27   C33   1.420988 A    
C5    C11   1.536598 S    
C11   C57   1.511258 S    
C9    C15   1.183749 T    
C45   C48   1.409900 A    
C6    C12   1.536193 S    
C10   C16   1.184495 T    
C6    N6    1.457997 S    
O2    C2    1.306090 A    
C20   N10   1.431977 S    
C23   H4    1.080495 S    
C61   C62   1.398264 A    
N10   O24   1.301428 A    
C54   H17   1.082526 S    
C1    C17   1.474128 S    
C35   C37   1.385875 A    
N2    C40   1.355968 A    
C36   C38   1.388231 A    
C41   C43   1.414462 A    
C7    C12   1.553566 S    
C34   N8    1.432722 S    
C8    C11   1.554025 S    
C52   H15   1.082809 S    
N4    O12   1.301458 A    
C53   C54   1.396619 A    
C18   C22   1.395039 A    
N6    O15   1.300231 A    
C5    C14   1.529124 S    
C5    N5    1.457797 S    
C36   C44   1.391645 A    
C21   H6    1.083718 S    
C3    C9    1.397067 S    
C38   N3    1.426313 S    
C49   H7    1.084754 S    
C20   C22   1.402315 A    
C28   C34   1.420752 A    
O7    Zn2   1.995878 S    
Zn1   N2    2.034983 S    
O7    C3    1.295275 A    
C43   C49   1.390014 A    
N5    O13   1.300245 A    
O6    C4    1.294552 A    
C48   H14   1.076452 S    
N3    O10   1.299267 A    
C59   H21   1.082369 S    
N7    O18   1.301116 A    
C6    C8    1.543664 S    
C31   C33   1.412205 A    
O3    Zn2   1.911515 S    
O8    C4    1.295418 A    
O4    C2    1.304839 A    
N5    O14   1.300222 A    
C29   C32   1.420871 A    
O1    Zn1   1.926621 S    
C30   C31   1.423415 A    
C31   N11   1.441180 S    
N10   O23   1.301021 A    
C6    C13   1.528857 S    
C5    C7    1.543426 S    
C22   H5    1.083536 S    
N12   O28   1.300255 A    
C2    C18   1.468749 S    
C14   C16   1.430579 S    
C35   H11   1.085156 S    
N4    O11   1.295449 A    
O3    C1    1.309078 A    
O8    Zn1   1.995879 S    
N8    O20   1.301754 A    
C33   N7    1.431836 S    
C18   C24   1.388548 A    
C13   C15   1.429363 S    
C17   C23   1.394369 A    
C41   C45   1.426867 A    
C47   H13   1.075719 S    
C44   C50   1.392087 A    
C42   C46   1.424734 A    
C7    C13   1.546082 S    
C46   C47   1.409780 A    
C24   C26   1.394035 A    
C25   C27   1.423124 A    
N9    O21   1.301134 A    
C26   C28   1.423010 A    
C37   N4    1.427062 S    
C52   C53   1.398430 A    
C56   H19   1.077605 S    
N12   O27   1.302239 A    
C54   C55   1.396386 A    
C7    H1    1.110470 S    
C19   C27   1.425615 A    
C8    H2    1.110405 S    
C20   C28   1.430218 A    
C39   H10   1.075276 S    
C25   C29   1.413354 A    
C59   C60   1.396717 A    
O2    Zn2   1.926621 S    
N11   O26   1.301479 A    
C45   C46   1.435503 A    
O5    Zn1   1.961925 S    
C11   C13   1.543020 S    
C50   H8    1.084481 S    
C60   C61   1.396325 A    
C57   C58   1.405661 A    
C51   C52   1.405773 A    
C55   H18   1.082477 S    
N2    C38   1.365763 A    
O4    Zn1   1.911512 S    
