data_mof_unit_50439.cif
_audit_creation_date              2012-12-10T16:50:16-0500
_audit_creation_method            fapswitch 2.2
_symmetry_space_group_name_H-M    P1
_symmetry_Int_Tables_number       1
_space_group_crystal_system       triclinic
_cell_length_a                    23.510535
_cell_length_b                    8.714753
_cell_length_c                    7.429889
_cell_angle_alpha                 102.608091
_cell_angle_beta                  94.500259
_cell_angle_gamma                 92.455326
_cell_volume                      1478.19379311

loop_
_atom_site_label
_atom_site_type_symbol
_atom_type_description
_atom_site_fract_x
_atom_site_fract_y
_atom_site_fract_z
_atom_type_partial_charge
C1    C     C_R   0.496629 0.200264 0.454592 0.866842
C2    C     C_R   0.503363 0.799736 0.545410 0.866892
C3    C     C_R   0.244826 0.533275 0.677975 -0.085572
C4    C     C_R   0.755083 0.466948 0.321591 -0.085820
C5    C     C_R   0.303982 0.533007 0.675235 -0.200533
C6    C     C_R   0.695946 0.467533 0.324556 -0.200681
C7    C     C_R   0.328554 0.500132 0.505754 -0.030426
C8    C     C_R   0.671438 0.499614 0.494085 -0.030219
C9    C     C_R   0.293003 0.467710 0.339031 -0.237498
C10   C     C_R   0.707044 0.530928 0.660661 -0.237214
C11   C     C_R   0.233685 0.466909 0.341400 0.015233
C12   C     C_R   0.766355 0.531542 0.658065 0.015370
C13   C     C_R   0.209408 0.499283 0.511928 0.312628
C14   C     C_R   0.790554 0.499954 0.487469 0.312806
C15   C     C_2   0.486277 0.034573 0.437206 -0.261922
C16   C     C_2   0.513698 0.965427 0.562806 -0.261920
C17   C     C_R   0.390986 0.499923 0.501974 0.831888
C18   C     C_R   0.609013 0.500035 0.498010 0.831836
C19   C     C_R   0.883316 0.639285 0.533615 0.578066
C20   C     C_R   0.116632 0.359940 0.465569 0.577933
C21   C     C_R   0.876083 0.359077 0.431640 0.541077
C22   C     C_R   0.123858 0.640169 0.567324 0.540704
C23   C     C_R   0.936247 0.354377 0.434339 -0.051593
C24   C     C_R   0.063694 0.644865 0.564621 -0.051584
C25   C     C_R   0.969776 0.498662 0.494207 -0.019856
C26   C     C_R   0.030167 0.500578 0.504775 -0.019899
C27   C     C_R   0.943012 0.641484 0.543593 -0.010443
C28   C     C_R   0.056932 0.357753 0.455453 -0.010498
C29   C     C_R   0.964284 0.212214 0.382124 -0.055155
C30   C     C_R   0.035658 0.787028 0.616846 -0.055176
C31   C     C_R   0.023836 0.215658 0.394284 -0.200936
C32   C     C_R   0.976108 0.783579 0.604743 -0.200956
Cu1   Cu    Cu3+1 0.506340 0.517380 0.684380 1.016202
Cu2   Cu    Cu3+1 0.493660 0.482620 0.315620 1.016267
H1    H     H_    0.044402 0.105822 0.353768 0.186836
H2    H     H_    0.955542 0.893411 0.645298 0.186847
H3    H     H_    0.226404 0.560263 0.809352 0.161869
H4    H     H_    0.773444 0.440529 0.190158 0.162066
H5    H     H_    0.330410 0.559398 0.805652 0.163870
H6    H     H_    0.669482 0.442051 0.194242 0.163781
H7    H     H_    0.311294 0.442450 0.206942 0.161626
H8    H     H_    0.688807 0.555465 0.792791 0.161380
H9    H     H_    0.455140 0.378952 0.948482 0.234507
H10   H     H_    0.544860 0.621047 0.051518 0.234467
N1    N     N_R   0.851429 0.499608 0.481921 -0.471513
N2    N     N_R   0.148519 0.499625 0.517204 -0.471531
N3    N     N_2   0.484110 0.456420 0.038520 -0.205392
N4    N     N_2   0.515890 0.543580 0.961480 -0.205444
O1    O     O_R   0.504120 0.286130 0.619770 -0.583302
O2    O     O_R   0.495880 0.713870 0.380230 -0.583216
O3    O     O_R   0.493410 0.256770 0.308360 -0.537409
O4    O     O_R   0.506590 0.743230 0.691640 -0.537539
O5    O     O_R   0.423230 0.514630 0.655730 -0.596793
O6    O     O_R   0.576770 0.485370 0.344270 -0.596817
O7    O     O_R   0.412530 0.485280 0.344320 -0.580320
O8    O     O_R   0.587470 0.514720 0.655680 -0.580355
O9    O     O_2   0.857094 0.775679 0.576708 -0.504003
O10   O     O_2   0.142855 0.223522 0.422705 -0.503985
O11   O     O_2   0.842201 0.225160 0.382614 -0.503078
O12   O     O_2   0.157731 0.774110 0.616209 -0.503156
C33   C     C_1   0.934170 0.060053 0.311791 0.344815
N5    N     N_1   0.910315 0.938001 0.254936 -0.195839
C34   C     C_1   0.065770 0.939188 0.687209 0.344793
N6    N     N_1   0.089624 0.061238 0.744091 -0.195656
C35   C     C_1   0.198114 0.433478 0.168402 0.273707
N7    N     N_1   0.169343 0.406199 0.030234 -0.257635
C36   C     C_1   0.802026 0.564020 0.830866 0.273413
N8    N     N_1   0.830908 0.590509 0.968830 -0.258431
C37   C     C_2   0.437045 0.956899 0.303913 0.870933
O13   O     O_2   0.432370 0.978803 0.146497 -0.552721
O14   O     O_R   0.395329 0.862880 0.360712 -0.752860
H11   H     H_    0.364259 0.817032 0.258217 0.335392
C38   C     C_2   0.562913 0.043127 0.696145 0.870937
O15   O     O_2   0.567509 0.021482 0.853698 -0.552564
O16   O     O_R   0.604684 0.136938 0.639273 -0.752885
H12   H     H_    0.635729 0.182860 0.741825 0.335364

loop_
_geom_bond_atom_site_label_1
_geom_bond_atom_site_label_2
_ccdc_geom_bond_type
C17   O5    A    
C10   H8    S    
C38   O15   D    
C19   O9    S    
Cu1   O4    S    
Cu2   O3    S    
C32   H2    S    
C24   C26   A    
C21   O11   S    
C22   O12   S    
C13   N2    S    
Cu1   O1    S    
C15   C16   D    
C37   O14   S    
C2    O2    A    
C7    C17   S    
C1    C15   S    
C2    C16   S    
C17   O7    A    
C3    C13   A    
C18   O8    A    
Cu1   O8    S    
Cu2   O7    S    
C30   C34   S    
C38   O16   S    
C37   O13   D    
C10   C12   A    
C14   N1    S    
C21   N1    A    
Cu1   O5    S    
C15   C37   S    
C12   C36   S    
C29   C33   S    
Cu2   O2    S    
C16   C38   S    
C6    H6    S    
C4    C6    A    
C5    C7    A    
C6    C8    A    
C20   C28   A    
C25   C26   A    
C8    C18   S    
C36   N8    T    
O16   H12   S    
C1    O3    A    
N3    N4    D    
Cu1   Cu2   S    
C9    C11   A    
C2    O4    A    
C22   N2    A    
C12   C14   A    
Cu2   O6    S    
C21   C23   A    
C31   H1    S    
C20   O10   S    
C23   C29   A    
C19   C27   A    
C7    C9    A    
C27   C32   A    
C26   C28   A    
C28   C31   A    
C4    H4    S    
C3    C5    A    
C19   N1    A    
C25   C27   A    
C9    H7    S    
C5    H5    S    
O14   H11   S    
C29   C31   A    
C30   C32   A    
C11   C13   A    
C1    O1    A    
C22   C24   A    
C23   C25   A    
C4    C14   A    
C33   N5    T    
C24   C30   A    
C18   O6    A    
C34   N6    T    
C11   C35   S    
C3    H3    S    
C8    C10   A    
C35   N7    T    
Cu1   N4    S    
Cu2   N3    S    
H9    N3    S    
C20   N2    A    
H10   N4    S    
