data_mof_unit_66294.cif
_audit_creation_date              2013-03-05T16:40:50-0500
_audit_creation_method            fapswitch 2.2
_symmetry_space_group_name_H-M    P1
_symmetry_Int_Tables_number       1
_space_group_crystal_system       triclinic
_cell_length_a                    10.850531
_cell_length_b                    18.838446
_cell_length_c                    18.486008
_cell_angle_alpha                 91.557572
_cell_angle_beta                  93.18664
_cell_angle_gamma                 88.93367
_cell_volume                      3770.88182187

loop_
_atom_site_label
_atom_site_type_symbol
_atom_site_description
_atom_site_fract_x
_atom_site_fract_y
_atom_site_fract_z
_atom_type_partial_charge
O1    O     O_R   0.500010 0.398180 0.560840 -0.610572
O2    O     O_R   0.499990 0.601820 0.439160 -0.612471
O3    O     O_R   0.499950 0.398180 0.439210 -0.560399
O4    O     O_R   0.500050 0.601820 0.560790 -0.557396
C1    C     C_R   0.493082 0.364838 0.499243 1.019816
C2    C     C_R   0.496778 0.635106 0.501092 1.035879
O5    O     O_R   0.316790 0.500010 0.560810 -0.562859
O6    O     O_R   0.683210 0.499990 0.439190 -0.566750
O7    O     O_R   0.316730 0.500000 0.439190 -0.630640
O8    O     O_R   0.683270 0.500000 0.560810 -0.614197
C3    C     C_R   0.259641 0.497804 0.497837 1.012882
C4    C     C_R   0.740443 0.504044 0.501928 0.987157
Zn1   Zn    Zn3+2 0.500040 0.500000 0.581210 1.084600
Zn2   Zn    Zn3+2 0.499960 0.500000 0.418790 1.076613
H1    H     H_    0.195885 0.540156 0.162522 0.250837
H2    H     H_    0.829557 0.388772 0.819971 0.275464
C5    C     C_R   0.200683 0.588258 0.268507 -0.195061
C6    C     C_R   0.843388 0.362458 0.707793 -0.115557
H3    H     H_    0.253776 0.632852 0.252843 0.249137
H4    H     H_    0.825099 0.306943 0.715282 0.257630
C7    C     C_R   0.164832 0.584152 0.339440 0.445126
C8    C     C_R   0.869465 0.386234 0.639630 0.446479
C9    C     C_R   0.097792 0.525530 0.360557 -0.071158
C10   C     C_R   0.897316 0.457929 0.630925 -0.103627
C11   C     C_R   0.056245 0.474437 0.306793 0.239537
C12   C     C_R   0.909032 0.504647 0.692292 0.235877
C13   C     C_R   0.093245 0.479419 0.234838 0.268410
C14   C     C_R   0.879954 0.480289 0.760990 0.194132
C15   C     C_R   0.166293 0.536143 0.216997 -0.257306
C16   C     C_R   0.847335 0.409105 0.767616 -0.244652
C17   C     C_R   0.929631 0.535830 0.444395 0.400806
C18   C     C_R   0.071936 0.468138 0.554855 0.409772
C19   C     C_R   0.873773 0.509144 0.504832 -0.174755
C20   C     C_R   0.126906 0.494197 0.494259 -0.159086
C21   C     C_R   0.946671 0.478747 0.561891 -0.017726
C22   C     C_R   0.054073 0.522274 0.435553 -0.005511
C23   C     C_R   0.542661 0.760114 0.474152 0.286491
C24   C     C_R   0.523654 0.238715 0.536968 0.310184
C25   C     C_R   0.506972 0.831967 0.473636 0.424357
C26   C     C_R   0.491372 0.167290 0.530044 0.426684
C27   C     C_R   0.390175 0.852905 0.497787 -0.037022
C28   C     C_R   0.379448 0.148668 0.492739 -0.046707
C29   C     C_R   0.315288 0.803333 0.527759 -0.085675
C30   C     C_R   0.304033 0.200938 0.460638 -0.081885
H5    H     H_    0.226629 0.819607 0.547502 0.236509
H6    H     H_    0.214987 0.187156 0.435154 0.238492
C31   C     C_R   0.354751 0.733238 0.533988 0.401837
C32   C     C_R   0.341617 0.271131 0.462426 0.389242
C33   C     C_R   0.465814 0.710589 0.503680 -0.287658
C34   C     C_R   0.455398 0.290222 0.497421 -0.292878
C35   C     C_R   0.332623 0.967354 0.559118 0.333083
C36   C     C_R   0.337812 0.034859 0.425218 0.338475
C37   C     C_R   0.321875 0.041239 0.556345 0.366117
C38   C     C_R   0.337208 0.960721 0.427176 0.366069
C39   C     C_R   0.338940 0.074777 0.490651 -0.190448
C40   C     C_R   0.348148 0.927380 0.494584 -0.186341
C41   C     C_R   0.543396 0.555826 0.731881 0.308747
C42   C     C_R   0.450411 0.447166 0.266271 0.316606
C43   C     C_R   0.540167 0.554502 0.808078 0.239687
C44   C     C_R   0.447493 0.452372 0.190141 0.221470
C45   C     C_R   0.489790 0.496146 0.841483 -0.133533
C46   C     C_R   0.500427 0.510733 0.158328 -0.136422
C47   C     C_R   0.437655 0.441058 0.796294 0.245565
C48   C     C_R   0.557285 0.563210 0.204881 0.238006
C49   C     C_R   0.447841 0.443886 0.720480 -0.072290
C50   C     C_R   0.551996 0.556951 0.280781 -0.084491
H7    H     H_    0.410262 0.401702 0.685699 0.238252
H8    H     H_    0.592620 0.597421 0.316540 0.247326
N1    N     N_R   0.500020 0.499980 0.689440 -0.191572
N2    N     N_R   0.499980 0.500020 0.310560 -0.193617
C51   C     C_R   0.408427 0.542265 0.957922 -0.124931
C52   C     C_R   0.582673 0.466023 0.042027 -0.126700
H9    H     H_    0.342536 0.573216 0.925112 0.227269
H10   H     H_    0.648276 0.434927 0.074881 0.226206
C53   C     C_R   0.412628 0.551493 0.034027 0.334975
C54   C     C_R   0.578343 0.456652 0.965976 0.353357
C55   C     C_R   0.500867 0.512384 0.077050 0.038601
C56   C     C_R   0.490136 0.495761 0.922889 0.034724
Cl1   Cl    Cl    0.259130 0.675176 0.578010 -0.413165
Cl2   Cl    Cl    0.233553 0.334734 0.431212 -0.448759
Cl3   Cl    Cl    0.340985 0.926823 0.644534 -0.331757
Cl4   Cl    Cl    0.350141 0.076729 0.341531 -0.324209
Cl5   Cl    Cl    0.299683 0.092423 0.636470 -0.316985
Cl6   Cl    Cl    0.332528 0.909541 0.345388 -0.318388
N3    N     N_R   0.590446 0.616764 0.699150 0.260021
O9    O     O_R   0.690028 0.611348 0.663484 -0.316239
O10   O     O_R   0.538638 0.678872 0.708908 -0.236627
N4    N     N_R   0.405164 0.384551 0.296364 0.256597
O11   O     O_R   0.288901 0.370261 0.285138 -0.286336
O12   O     O_R   0.482635 0.332398 0.309679 -0.262796
Cl7   Cl    Cl    0.600724 0.626410 0.861516 -0.332527
Cl8   Cl    Cl    0.379375 0.383980 0.134698 -0.357495
N5    N     N_R   0.373824 0.382702 0.825485 0.272267
O13   O     O_R   0.358058 0.324066 0.787488 -0.245633
O14   O     O_R   0.322483 0.389358 0.887314 -0.274877
N6    N     N_R   0.620482 0.622532 0.177083 0.272898
O15   O     O_R   0.666467 0.618802 0.113551 -0.269935
O16   O     O_R   0.640554 0.679157 0.217635 -0.235670
N7    N     N_R   0.326547 0.600482 0.065809 0.209371
O17   O     O_R   0.359587 0.639377 0.122493 -0.342052
O18   O     O_R   0.219396 0.612853 0.032947 -0.264529
N8    N     N_R   0.663817 0.407147 0.934380 0.218680
O19   O     O_R   0.628619 0.366528 0.879421 -0.347251
O20   O     O_R   0.769825 0.393568 0.968053 -0.258061
Cl9   Cl    Cl    0.196169 0.656578 0.398595 -0.507735
Cl10  Cl    Cl    0.890579 0.323543 0.568304 -0.389063
N9    N     N_R   0.965839 0.422959 0.322813 0.253731
O21   O     O_R   0.979301 0.385085 0.380560 -0.271048
O22   O     O_R   0.863832 0.418315 0.282599 -0.291928
N10   N     N_R   0.967952 0.572053 0.686739 0.269675
O23   O     O_R   0.937341 0.613953 0.633640 -0.260057
O24   O     O_R   0.064097 0.587181 0.729211 -0.249571
N11   N     N_R   0.059053 0.426783 0.179749 0.266904
O25   O     O_R   0.053393 0.443107 0.111661 -0.249957
O26   O     O_R   0.046744 0.360701 0.196369 -0.183683
N12   N     N_R   0.886566 0.526509 0.824408 0.246348
O27   O     O_R   0.869518 0.594731 0.818883 -0.210179
O28   O     O_R   0.902460 0.500236 0.888702 -0.254512
Cl11  Cl    Cl    0.847053 0.588027 0.378624 -0.453826
Cl12  Cl    Cl    0.156140 0.414415 0.619671 -0.510111
Cl13  Cl    Cl    0.685960 0.732904 0.441023 -0.347345
Cl14  Cl    Cl    0.637209 0.263272 0.603463 -0.445053
Cl15  Cl    Cl    0.610968 0.895648 0.445514 -0.330627
Cl16  Cl    Cl    0.592336 0.101554 0.568060 -0.335098

loop_
_geom_bond_atom_site_label_1
_geom_bond_atom_site_label_2
_geom_bond_distance
_ccdc_geom_bond_type
C50   H8    1.079463 S    
C47   C49   1.414477 A    
N5    O13   1.301667 A    
C13   C15   1.399505 A    
C5    C15   1.390367 A    
C46   C55   1.503956 S    
C3    C20   1.440875 S    
C31   Cl1   1.766253 S    
C52   C54   1.410445 A    
C38   Cl6   1.769786 S    
C25   C27   1.412696 A    
N3    O9    1.297719 A    
O5    C3    1.288210 A    
O1    C1    1.284571 A    
C24   C26   1.397407 A    
C10   C12   1.418280 A    
C41   C43   1.411856 A    
C42   C44   1.411969 A    
C25   Cl15  1.769827 S    
N12   O27   1.301004 A    
C44   C46   1.407381 A    
C35   C40   1.409760 A    
O4    Zn1   1.964965 S    
C53   C55   1.418782 A    
N10   O23   1.301159 A    
C46   C48   1.419837 A    
C14   N12   1.440538 S    
C5    H3    1.082247 S    
C30   H6    1.083958 S    
C49   H7    1.079966 S    
N6    O16   1.301659 A    
N9    O21   1.300070 A    
C17   C19   1.409069 A    
C6    C16   1.392964 A    
C29   C31   1.386356 A    
C35   Cl3   1.769608 S    
C20   C22   1.415041 A    
C36   C39   1.406432 A    
C37   C39   1.406878 A    
N5    O14   1.301088 A    
Zn2   N2    2.000765 S    
O2    C2    1.292192 A    
C28   C30   1.392534 A    
C18   Cl12  1.790100 S    
C36   C38   1.398242 A    
H1    C15   1.078845 S    
N9    O22   1.301517 A    
C44   Cl8   1.770920 S    
C54   N8    1.438556 S    
C26   Cl16  1.771673 S    
C38   C40   1.408793 A    
C43   C45   1.409061 A    
C10   C21   1.476548 S    
N3    O10   1.301086 A    
C18   C21   1.382886 A    
C48   N6    1.442956 S    
C52   H10   1.083741 S    
C51   H9    1.083755 S    
C42   N2    1.370273 A    
C8    Cl10  1.767656 S    
C5    C7    1.392875 A    
C35   C37   1.396700 A    
C48   C50   1.415628 A    
N8    O20   1.301577 A    
O7    Zn2   2.044085 S    
C27   C40   1.468846 S    
C52   C55   1.405035 A    
C28   C39   1.466376 S    
O7    C3    1.280179 A    
N7    O17   1.299885 A    
C45   C56   1.504882 S    
O6    C4    1.285871 A    
N6    O15   1.300994 A    
C53   N7    1.438309 S    
C43   Cl7   1.769441 S    
C36   Cl4   1.768234 S    
C32   C34   1.409651 A    
C29   H5    1.083798 S    
C17   Cl11  1.777392 S    
C23   C33   1.403892 A    
C24   Cl14  1.750740 S    
O3    Zn2   1.964966 S    
O8    C4    1.287164 A    
C23   Cl13  1.764815 S    
C13   N11   1.440409 S    
O4    C2    1.282482 A    
N7    O18   1.301612 A    
N4    O12   1.300714 A    
C7    C9    1.409267 A    
C11   C13   1.416635 A    
C8    C10   1.404925 A    
C1    C34   1.470190 S    
O1    Zn1   1.944677 S    
C11   N9    1.440054 S    
N11   O25   1.301675 A    
C12   N10   1.440938 S    
O6    Zn2   2.003101 S    
C6    C8    1.394094 A    
C45   C47   1.420212 A    
C27   C29   1.394915 A    
C54   C56   1.419214 A    
O3    C1    1.296346 A    
O8    Zn1   2.044086 S    
C42   N4    1.424589 S    
C24   C34   1.405731 A    
C31   C33   1.411078 A    
C47   N5    1.442756 S    
C12   C14   1.415801 A    
C37   Cl5   1.770590 S    
C32   Cl2   1.747446 S    
C14   C16   1.403548 A    
C23   C25   1.401088 A    
C51   C53   1.411192 A    
C50   N2    1.364184 A    
Zn1   N1    2.000763 S    
C49   N1    1.363027 A    
C26   C28   1.408220 A    
C19   C21   1.410441 A    
N12   O28   1.301276 A    
C6    H4    1.082095 S    
C9    C11   1.425410 A    
C2    C33   1.455174 S    
N8    O19   1.299644 A    
O2    Zn2   1.944675 S    
N10   O24   1.301475 A    
O5    Zn1   2.003100 S    
N4    O11   1.299019 A    
C9    C22   1.493198 S    
C17   C22   1.387292 A    
C41   N1    1.369819 A    
C4    C19   1.449583 S    
H2    C16   1.079023 S    
C41   N3    1.427749 S    
C51   C56   1.406065 A    
C7    Cl9   1.751507 S    
C30   C32   1.390019 A    
C18   C20   1.402372 A    
N11   O26   1.301349 A    
