data_mof_unit_12897.cif
_audit_creation_date              2012-12-10T18:35:17-0500
_audit_creation_method            fapswitch 2.2
_symmetry_space_group_name_H-M    P1
_symmetry_Int_Tables_number       1
_space_group_crystal_system       triclinic
_cell_length_a                    15.012159
_cell_length_b                    15.497232
_cell_length_c                    16.966489
_cell_angle_alpha                 90.074185
_cell_angle_beta                  101.148169
_cell_angle_gamma                 97.702947
_cell_volume                      3836.26993054

loop_
_atom_site_label
_atom_site_type_symbol
_atom_type_description
_atom_site_fract_x
_atom_site_fract_y
_atom_site_fract_z
_atom_type_partial_charge
C1    C     C_R   0.557226 0.663206 0.510351 0.901693
C2    C     C_R   0.442126 0.337611 0.489075 0.935337
C3    C     C_R   0.591986 0.757643 0.509034 -0.352271
C4    C     C_R   0.404934 0.245572 0.472248 -0.358025
C5    C     C_R   0.717979 0.877772 0.519486 -0.092904
C6    C     C_R   0.295725 0.133348 0.391946 -0.092080
C7    C     C_R   0.687088 0.788421 0.525584 0.418411
C8    C     C_R   0.317785 0.219274 0.423472 0.410741
C9    C     C_R   0.528869 0.817764 0.487656 0.457051
C10   C     C_R   0.461904 0.183378 0.497843 0.527241
C11   C     C_R   0.559771 0.904601 0.471903 -0.027445
C12   C     C_R   0.449955 0.104597 0.454485 -0.060459
C13   C     C_R   0.653869 0.936669 0.496290 -0.110825
C14   C     C_R   0.362845 0.076083 0.406028 -0.126936
C15   C     C_R   0.496913 0.962766 0.441425 -0.091957
C16   C     C_R   0.520961 0.051631 0.462344 -0.103553
C17   C     C_R   0.615762 0.084727 0.484422 0.592542
C18   C     C_R   0.412785 0.936222 0.387631 0.643133
C19   C     C_R   0.680929 0.027161 0.498297 -0.297408
C20   C     C_R   0.346213 0.992053 0.371703 -0.295986
C21   C     C_R   0.158471 0.624431 0.371195 -0.341292
C22   C     C_R   0.835558 0.361345 0.617347 -0.323518
C23   C     C_R   0.509229 0.494981 0.350217 0.851315
C24   C     C_R   0.490530 0.504061 0.649759 0.846659
C25   C     C_R   0.243351 0.595133 0.385340 0.172521
C26   C     C_R   0.751709 0.392456 0.606403 0.179177
C27   C     C_R   0.211830 0.525161 0.502781 -0.083822
C28   C     C_R   0.792021 0.485121 0.504588 -0.074208
C29   C     C_R   0.119205 0.541296 0.482665 -0.008142
C30   C     C_R   0.884903 0.469918 0.526579 -0.014927
C31   C     C_R   0.096343 0.600732 0.421140 0.095250
C32   C     C_R   0.905145 0.403046 0.581653 0.092873
C33   C     C_R   0.048123 0.496690 0.517562 0.069643
C34   C     C_R   0.957402 0.518517 0.495983 0.070155
C35   C     C_R   0.942154 0.589439 0.445727 -0.272138
C36   C     C_R   0.064258 0.427435 0.569452 -0.297119
C37   C     C_R   0.009252 0.629160 0.406251 0.005636
C38   C     C_R   0.995091 0.381873 0.602689 0.012554
C39   C     C_R   0.508910 0.479535 0.266932 0.000374
C40   C     C_R   0.490066 0.514369 0.733445 0.011610
C41   C     C_R   0.438783 0.420855 0.221669 -0.239653
C42   C     C_R   0.554732 0.576895 0.779750 -0.264105
C43   C     C_R   0.437531 0.405785 0.140459 0.022233
C44   C     C_R   0.558665 0.584241 0.862245 0.029281
C45   C     C_R   0.508326 0.450476 0.106270 0.148651
C46   C     C_R   0.495580 0.527948 0.896606 0.150675
C47   C     C_R   0.581794 0.504018 0.153872 -0.183205
C48   C     C_R   0.426679 0.470043 0.848208 -0.174411
C49   C     C_R   0.582157 0.518378 0.234206 -0.234076
C50   C     C_R   0.423968 0.463297 0.766615 -0.216463
C51   C     C_2   0.501822 0.450127 0.020025 -0.263356
C52   C     C_2   0.503038 0.526046 0.983001 -0.266364
H1    H     H_    0.384073 0.388840 0.249139 0.163557
H2    H     H_    0.604205 0.617356 0.752028 0.124135
H3    H     H_    0.769058 0.528047 0.457416 0.147495
H4    H     H_    0.237355 0.489498 0.554752 0.134445
H5    H     H_    0.138439 0.658494 0.316262 0.168409
H6    H     H_    0.848959 0.312523 0.661961 0.159126
H7    H     H_    0.877925 0.615360 0.435664 0.159004
H8    H     H_    0.130863 0.406561 0.585498 0.133098
H9    H     H_    0.372309 0.416643 0.729829 0.132917
H10   H     H_    0.637959 0.561621 0.270246 0.138672
H11   H     H_    0.515081 0.587402 0.017095 0.168706
H12   H     H_    0.489449 0.388355 0.986652 0.167720
H13   H     H_    0.637067 0.537210 0.127920 0.144568
H14   H     H_    0.376344 0.428578 0.873999 0.147549
H15   H     H_    0.752410 0.054659 0.514053 0.179156
H16   H     H_    0.282697 0.969409 0.330486 0.169692
N1    N     N_R   0.271750 0.551950 0.454510 -0.106403
N2    N     N_R   0.728250 0.448050 0.545490 -0.121918
O1    O     O_R   0.615140 0.606020 0.522930 -0.575425
O2    O     O_R   0.384860 0.393980 0.477070 -0.584521
O3    O     O_R   0.468580 0.639400 0.493740 -0.579337
O4    O     O_R   0.531420 0.360600 0.506260 -0.564556
O5    O     O_R   0.581950 0.481350 0.400520 -0.633734
O6    O     O_R   0.418050 0.518650 0.599480 -0.636122
O7    O     O_R   0.435380 0.514730 0.371330 -0.613567
O8    O     O_R   0.564620 0.485270 0.628670 -0.612992
Zn1   Zn    Zn3+2 0.597860 0.477710 0.519490 0.971121
Zn2   Zn    Zn3+2 0.402140 0.522290 0.480510 0.965773
O9    O     O_3   0.646866 0.173095 0.489628 -0.571452
C53   C     C_3   0.654251 0.202327 0.412222 -0.303829
H17   H     H_    0.586458 0.193378 0.370534 0.144719
H18   H     H_    0.704360 0.169019 0.387209 0.145499
H19   H     H_    0.679731 0.273109 0.416796 0.208228
O10   O     O_3   0.400398 0.861679 0.340206 -0.596979
C54   C     C_3   0.437026 0.882587 0.270681 -0.406658
H20   H     H_    0.511149 0.875787 0.282493 0.174205
H21   H     H_    0.427241 0.948995 0.248163 0.154042
H22   H     H_    0.400934 0.836763 0.221073 0.201319
C55   C     C_R   0.985596 0.699549 0.349145 0.134398
C56   C     C_R   0.902798 0.688594 0.292272 -0.159383
C57   C     C_R   0.881760 0.753744 0.237569 -0.157645
C58   C     C_R   0.943775 0.829505 0.237879 -0.113228
C59   C     C_R   0.026035 0.840960 0.294022 -0.150503
C60   C     C_R   0.045736 0.777698 0.350834 -0.183058
H23   H     H_    0.854994 0.629243 0.289503 0.120035
H24   H     H_    0.817840 0.744988 0.194296 0.128150
H25   H     H_    0.928253 0.879138 0.194475 0.117476
H26   H     H_    0.075135 0.898507 0.293392 0.156204
H27   H     H_    0.109001 0.788840 0.394969 0.145059
C61   C     C_R   0.021302 0.313660 0.660765 0.128522
C62   C     C_R   0.058735 0.242207 0.636058 -0.152621
C63   C     C_R   0.088896 0.180700 0.691525 -0.146579
C64   C     C_R   0.080543 0.189159 0.771680 -0.118696
C65   C     C_R   0.043504 0.260074 0.796791 -0.146864
C66   C     C_R   0.015545 0.323028 0.741985 -0.172846
H28   H     H_    0.065129 0.234603 0.574037 0.115941
H29   H     H_    0.118716 0.126433 0.672332 0.115282
H30   H     H_    0.103108 0.140960 0.814349 0.113062
H31   H     H_    0.037043 0.266641 0.858856 0.121213
H32   H     H_    0.989052 0.378812 0.762633 0.129014
C67   C     C_R   0.708339 0.386295 0.677174 0.162172
C68   C     C_R   0.672504 0.305086 0.702448 -0.123159
C69   C     C_R   0.648445 0.297375 0.778118 -0.173595
C70   C     C_R   0.664138 0.369786 0.830471 -0.099656
C71   C     C_R   0.705327 0.449505 0.807744 -0.141900
C72   C     C_R   0.726935 0.458032 0.731462 -0.128234
H33   H     H_    0.668046 0.247389 0.665329 0.200062
H34   H     H_    0.620999 0.234698 0.797650 0.120861
H35   H     H_    0.646951 0.363550 0.889484 0.125818
H36   H     H_    0.721627 0.504600 0.849487 0.139293
H37   H     H_    0.760803 0.519895 0.715502 0.109952
C73   C     C_R   0.289657 0.598148 0.316018 0.124367
C74   C     C_R   0.366031 0.659644 0.312176 -0.025753
C75   C     C_R   0.405059 0.663404 0.243475 -0.179891
C76   C     C_R   0.363735 0.610867 0.175883 -0.106462
C77   C     C_R   0.285317 0.551978 0.177987 -0.131959
C78   C     C_R   0.249220 0.544629 0.247999 -0.163805
H38   H     H_    0.397169 0.701904 0.363003 0.224625
H39   H     H_    0.467456 0.706951 0.242557 0.129541
H40   H     H_    0.393204 0.614843 0.122379 0.130523
H41   H     H_    0.252983 0.511301 0.125754 0.136312
H42   H     H_    0.188587 0.498303 0.248812 0.139168
C79   C     C_R   0.632591 0.646535 0.910998 0.107026
C80   C     C_R   0.696230 0.617324 0.973874 -0.181445
C81   C     C_R   0.766531 0.676215 0.018608 -0.151560
C82   C     C_R   0.774245 0.764582 0.000814 -0.111926
C83   C     C_R   0.711960 0.794079 0.937863 -0.141734
C84   C     C_R   0.641595 0.735335 0.892844 -0.169685
H43   H     H_    0.692073 0.548872 0.987690 0.131912
H44   H     H_    0.815296 0.653201 0.066816 0.130966
H45   H     H_    0.828713 0.810106 0.035561 0.116427
H46   H     H_    0.718264 0.862481 0.923870 0.120078
H47   H     H_    0.593837 0.759077 0.844194 0.118570
C85   C     C_R   0.359557 0.347603 0.092345 0.118313
C86   C     C_R   0.342161 0.259926 0.112553 -0.162546
C87   C     C_R   0.268822 0.204707 0.067114 -0.146737
C88   C     C_R   0.211830 0.236814 0.001927 -0.106966
C89   C     C_R   0.228145 0.324199 0.981980 -0.145195
C90   C     C_R   0.301481 0.379506 0.027050 -0.176016
H48   H     H_    0.385856 0.234239 0.162938 0.117973
H49   H     H_    0.256153 0.136980 0.082403 0.117598
H50   H     H_    0.154986 0.193996 0.967049 0.109694
H51   H     H_    0.184018 0.349318 0.931696 0.131621
H52   H     H_    0.312628 0.447252 0.011297 0.132682
O11   O     O_3   0.522621 0.196135 0.570501 -0.558342
C91   C     C_3   0.479587 0.153767 0.629757 -0.372896
H53   H     H_    0.453473 0.084020 0.613529 0.155729
H54   H     H_    0.423057 0.188595 0.641420 0.158328
H55   H     H_    0.530355 0.154065 0.686432 0.180748
O12   O     O_3   0.436584 0.793465 0.487474 -0.571102
C92   C     C_3   0.420187 0.810637 0.564714 -0.291012
H56   H     H_    0.434870 0.881546 0.580437 0.139875
H57   H     H_    0.460778 0.773281 0.611267 0.146851
H58   H     H_    0.346620 0.789520 0.564795 0.190439
O13   O     O_3   0.256607 0.278407 0.401018 -0.571448
C93   C     C_3   0.204419 0.283445 0.461388 -0.249919
H59   H     H_    0.158309 0.333540 0.444833 0.187360
H60   H     H_    0.160701 0.220850 0.466355 0.140511
H61   H     H_    0.248241 0.303114 0.521056 0.142806
O14   O     O_3   0.750829 0.731272 0.545940 -0.583357
C94   C     C_3   0.767795 0.722141 0.630124 -0.255782
H62   H     H_    0.814607 0.672417 0.645551 0.180300
H63   H     H_    0.703925 0.699330 0.652524 0.136056
H64   H     H_    0.802056 0.784010 0.661865 0.150943
C95   C     C_R   0.817839 0.907848 0.537533 0.182061
C96   C     C_R   0.859011 0.950394 0.611236 -0.193780
C97   C     C_R   0.953573 0.976801 0.628985 -0.126876
C98   C     C_R   0.007381 0.961737 0.573032 -0.126340
C99   C     C_R   0.966720 0.919557 0.499495 -0.159141
C100  C     C_R   0.872227 0.892224 0.481770 -0.093434
H65   H     H_    0.817922 0.962287 0.655011 0.126122
H66   H     H_    0.985048 0.008544 0.686298 0.133375
H67   H     H_    0.080593 0.982415 0.586717 0.112141
H68   H     H_    0.008547 0.907945 0.456410 0.140985
H69   H     H_    0.841486 0.859097 0.424792 0.135121
C101  C     C_R   0.204743 0.108031 0.339922 0.197445
C102  C     C_R   0.129477 0.074069 0.373548 -0.188763
C103  C     C_R   0.041674 0.059593 0.325559 -0.157214
C104  C     C_R   0.029162 0.076161 0.243435 -0.124817
C105  C     C_R   0.104277 0.108238 0.209377 -0.146973
C106  C     C_R   0.191803 0.124760 0.257592 -0.115386
H70   H     H_    0.138488 0.060979 0.437097 0.116030
H71   H     H_    0.983461 0.034696 0.351799 0.140565
H72   H     H_    0.961304 0.064074 0.206223 0.119245
H73   H     H_    0.094505 0.121337 0.145857 0.127949
H74   H     H_    0.249310 0.151703 0.231345 0.121569

loop_
_geom_bond_atom_site_label_1
_geom_bond_atom_site_label_2
_ccdc_geom_bond_type
C15   C18   A    
C64   H30   S    
C103  C104  A    
C6    C101  S    
C27   C29   A    
C59   C60   A    
C66   H32   S    
O2    Zn2   S    
C86   C87   A    
C71   H36   S    
C4    C8    A    
C77   C78   A    
O1    Zn1   S    
C96   C97   A    
C88   C89   A    
C79   C80   A    
C39   C41   A    
C94   H62   S    
O14   C94   S    
C21   C31   A    
C77   H41   S    
C18   O10   S    
C22   C32   A    
C58   H25   S    
C92   H57   S    
C85   C86   A    
C3    C7    A    
C82   H45   S    
C63   H29   S    
C23   C39   S    
O7    Zn2   S    
C65   C66   A    
C45   C51   S    
C15   C16   A    
C46   C52   S    
C33   C36   A    
C70   C71   A    
C18   C20   A    
C35   H7    S    
C34   C35   A    
C104  H72   S    
C91   H55   S    
C17   C19   A    
C55   C60   A    
C76   H40   S    
C11   C15   A    
C102  H70   S    
C93   H61   S    
C12   C16   A    
C29   C33   A    
C16   C17   A    
O6    Zn2   S    
C19   H15   S    
C62   H28   S    
C32   C38   A    
C5    C13   A    
C68   H33   S    
C27   N1    A    
C72   H37   S    
C44   C79   S    
C93   H60   S    
C60   H27   S    
C91   H54   S    
C41   C43   A    
C58   C59   A    
C42   C44   A    
C2    O2    A    
C74   H38   S    
C63   C64   A    
C28   H3    S    
C44   C46   A    
C56   H23   S    
O9    C53   S    
C65   H31   S    
C45   C47   A    
C79   C84   A    
C46   C48   A    
C81   H44   S    
C70   H35   S    
C37   C55   S    
C104  C105  A    
C14   C20   A    
C92   H58   S    
C87   C88   A    
C59   H26   S    
C47   C49   A    
C98   H67   S    
C55   C56   A    
C5    C7    A    
C30   C34   A    
O8    Zn1   S    
C24   O6    A    
C13   C19   A    
C6    C8    A    
C99   C100  A    
C85   C90   A    
O11   C91   S    
C31   C37   A    
C101  C102  A    
C1    C3    S    
C2    C4    S    
C88   H50   S    
C21   H5    S    
C80   H43   S    
C3    C9    A    
C8    O13   S    
C6    C14   A    
C9    C11   A    
C83   H46   S    
C83   C84   A    
C5    C95   S    
C33   C34   A    
C61   C66   A    
C57   C58   A    
C1    O1    A    
C105  H73   S    
C23   O7    A    
C43   C45   A    
C10   O11   S    
C41   H1    S    
C67   C68   A    
C94   H63   S    
C10   C12   A    
C103  H71   S    
C95   C96   A    
C24   O8    A    
C93   H59   S    
C39   C49   A    
C12   C14   A    
C101  C106  A    
C69   H34   S    
C53   H18   S    
C89   H51   S    
C54   H21   S    
C74   C75   A    
C26   N2    A    
C25   N1    A    
C87   H49   S    
C4    C10   A    
C76   C77   A    
O13   C93   S    
C98   C99   A    
O10   C54   S    
C97   H66   S    
C64   C65   A    
C94   H64   S    
C102  C103  A    
C21   C25   A    
C49   H10   S    
C35   C37   A    
N2    Zn1   S    
C27   H4    S    
C20   H16   S    
C28   N2    A    
C51   H12   S    
C96   H65   S    
C23   O5    A    
C40   C42   A    
C36   H8    S    
C52   H11   S    
C2    O4    A    
C84   H47   S    
C22   H6    S    
C99   H68   S    
C68   C69   A    
C106  H74   S    
C97   C98   A    
O12   C92   S    
C53   H19   S    
C81   C82   A    
O4    Zn1   S    
C1    O3    A    
C105  C106  A    
C28   C30   A    
C86   H48   S    
C26   C67   S    
C51   C52   D    
C29   C31   A    
C43   C85   S    
C71   C72   A    
C42   H2    S    
C36   C38   A    
C30   C32   A    
C11   C13   A    
C69   C70   A    
C91   H53   S    
C75   H39   S    
C75   C76   A    
C40   C50   A    
C48   C50   A    
C56   C57   A    
C24   C40   S    
O3    Zn2   S    
C73   C78   A    
C17   O9    S    
C100  H69   S    
C61   C62   A    
C25   C73   S    
C78   H42   S    
C92   H56   S    
C82   C83   A    
C9    O12   S    
C67   C72   A    
C90   H52   S    
C54   H20   S    
C38   C61   S    
C53   H17   S    
C22   C26   A    
C54   H22   S    
C62   C63   A    
C50   H9    S    
C89   C90   A    
C80   C81   A    
N1    Zn2   S    
C48   H14   S    
C7    O14   S    
O5    Zn1   S    
C57   H24   S    
C47   H13   S    
C95   C100  A    
C73   C74   A    
