data_mof_unit_64044.cif
_audit_creation_date              2012-10-26T18:46:14-0400
_audit_creation_method            fapswitch 2.2
_symmetry_space_group_name_H-M    P1
_symmetry_Int_Tables_number       1
_space_group_crystal_system       triclinic
_cell_length_a                    13.899415
_cell_length_b                    16.440222
_cell_length_c                    17.743654
_cell_angle_alpha                 90.507873
_cell_angle_beta                  90.228647
_cell_angle_gamma                 84.879159
_cell_volume                      4038.23021343

loop_
_atom_site_label
_atom_site_type_symbol
_atom_type_description
_atom_site_fract_x
_atom_site_fract_y
_atom_site_fract_z
_atom_type_partial_charge
C1    C     C_R   0.498078 0.500633 0.644807 0.549209
C2    C     C_R   0.556579 0.825102 0.551575 -0.143427
C3    C     C_R   0.444430 0.260674 0.449370 0.053644
C4    C     C_R   0.555690 0.739320 0.550546 0.053871
C5    C     C_R   0.556045 0.253152 0.550360 0.045544
C6    C     C_R   0.443841 0.746853 0.449715 0.045452
C7    C     C_R   0.557052 0.167248 0.551217 -0.140707
C8    C     C_R   0.442832 0.832757 0.448852 -0.140780
C9    C     C_R   0.500234 0.126909 0.499802 0.022683
C10   C     C_R   0.499771 0.873090 0.500183 0.022622
C11   C     C_1   0.500072 0.037292 0.499918 -0.027694
C12   C     C_R   0.501885 0.499367 0.355184 0.549521
C13   C     C_1   0.499932 0.962707 0.500062 -0.027706
C14   C     C_R   0.683375 0.486932 0.500007 0.548390
C15   C     C_R   0.316625 0.513068 0.499995 0.548279
C16   C     C_1   0.213594 0.521029 0.500060 -0.022825
C17   C     C_1   0.786406 0.478971 0.499945 -0.022780
C18   C     C_2   0.023328 0.533714 0.500198 -0.121564
C19   C     C_2   0.976672 0.466287 0.499812 -0.121556
C20   C     C_1   0.873154 0.472626 0.499884 -0.053853
C21   C     C_1   0.126846 0.527375 0.500123 -0.053861
C22   C     C_R   0.531557 0.427243 0.151811 -0.085997
C23   C     C_R   0.473441 0.570551 0.154601 -0.127520
C24   C     C_R   0.467564 0.572654 0.848125 -0.085802
C25   C     C_R   0.533616 0.425265 0.231043 0.135931
C26   C     C_R   0.465385 0.574562 0.768885 0.136087
C27   C     C_R   0.504283 0.497843 0.272040 0.020778
C28   C     C_R   0.495626 0.502162 0.727935 0.020708
C29   C     C_R   0.474973 0.569921 0.232989 -0.161282
C30   C     C_R   0.525826 0.430305 0.767007 -0.161171
C31   C     C_3   0.564761 0.273871 0.234261 -0.315746
C32   C     C_3   0.431111 0.725757 0.765821 -0.315613
C33   C     C_R   0.527419 0.429734 0.845393 -0.127488
C34   C     C_R   0.501456 0.499300 0.114242 0.007816
C35   C     C_R   0.498580 0.500824 0.885723 0.007778
C36   C     C_1   0.500398 0.499986 0.033761 -0.032018
C37   C     C_1   0.499678 0.500179 0.966205 -0.032038
C38   C     C_R   0.443548 0.174891 0.448330 -0.143681
Cu1   Cu    Cu3+1 0.500000 0.419580 0.500020 0.940685
Cu2   Cu    Cu3+1 0.500000 0.580420 0.499980 0.940590
H1    H     H_    0.015912 0.406073 0.499436 0.133978
H2    H     H_    0.601459 0.853657 0.592246 0.094795
H3    H     H_    0.400317 0.296758 0.409396 0.132089
H4    H     H_    0.599897 0.703230 0.590458 0.131837
H5    H     H_    0.600400 0.283261 0.590214 0.117155
H6    H     H_    0.399398 0.716747 0.409923 0.117205
H7    H     H_    0.601988 0.132642 0.591817 0.094758
H8    H     H_    0.397801 0.867366 0.408313 0.094759
H9    H     H_    0.629807 0.358755 0.302564 0.260399
H10   H     H_    0.576634 0.225413 0.277353 0.147989
H11   H     H_    0.622158 0.263783 0.190960 0.129719
H12   H     H_    0.984088 0.593928 0.500573 0.133963
H13   H     H_    0.492522 0.269148 0.208382 0.150548
H14   H     H_    0.368934 0.639933 0.696734 0.260469
H15   H     H_    0.418397 0.774208 0.722806 0.148122
H16   H     H_    0.502908 0.731669 0.792045 0.150521
H17   H     H_    0.373274 0.734741 0.808874 0.129819
H18   H     H_    0.554804 0.373411 0.118815 0.109324
H19   H     H_    0.443699 0.626330 0.881121 0.109202
H20   H     H_    0.452029 0.625837 0.263156 0.123483
H21   H     H_    0.549449 0.374540 0.736851 0.123239
H22   H     H_    0.450261 0.626599 0.125456 0.115342
H23   H     H_    0.551300 0.373862 0.874561 0.115350
H24   H     H_    0.398769 0.146332 0.407590 0.094673
N1    N     N_R   0.500030 0.298780 0.500030 -0.215699
N2    N     N_R   0.499970 0.701220 0.499970 -0.215707
N3    N     N_2   0.569068 0.352890 0.270081 -0.498613
N4    N     N_2   0.428987 0.646631 0.729774 -0.498580
O1    O     O_R   0.500010 0.432070 0.608760 -0.512463
O2    O     O_R   0.499990 0.567930 0.391240 -0.512537
O3    O     O_R   0.500000 0.567880 0.608730 -0.479084
O4    O     O_R   0.500000 0.432120 0.391270 -0.478842
O5    O     O_R   0.637850 0.422490 0.500000 -0.500425
O6    O     O_R   0.362150 0.577510 0.500000 -0.500522
O7    O     O_R   0.637840 0.558310 0.499970 -0.495407
O8    O     O_R   0.362160 0.441690 0.500030 -0.495341

loop_
_geom_bond_atom_site_label_1
_geom_bond_atom_site_label_2
_ccdc_geom_bond_type
C16   C21   T    
Cu2   O3    S    
C27   C29   A    
C18   C21   S    
C19   C20   S    
C25   N3    S    
C18   H12   S    
C31   N3    S    
C3    H3    S    
C1    O3    A    
Cu2   O2    S    
C23   C29   A    
C36   C37   T    
C35   C37   S    
C24   C26   A    
H14   N4    S    
C15   C16   S    
C17   C20   T    
C18   C19   D    
C23   H22   S    
C3    C38   A    
C22   C25   A    
C1    C28   S    
Cu1   O4    S    
C6    H6    S    
C32   H15   S    
C32   N4    S    
C15   O8    A    
C12   O4    A    
Cu2   N2    S    
Cu1   N1    S    
C14   C17   S    
C3    N1    A    
C32   H17   S    
C38   H24   S    
C22   C34   A    
C24   C35   A    
C12   C27   S    
C14   O5    A    
C5    N1    A    
Cu1   Cu2   S    
C5    C7    A    
C6    C8    A    
C4    H4    S    
C5    H5    S    
C1    O1    A    
C7    H7    S    
C2    C4    A    
C8    H8    S    
C29   H20   S    
C33   H23   S    
C23   C34   A    
Cu1   O1    S    
Cu1   O8    S    
C31   H13   S    
C9    C11   S    
C31   H10   S    
C2    C10   A    
C7    C9    A    
C12   O2    A    
H9    N3    S    
C30   C33   A    
C31   H11   S    
C10   C13   S    
C22   H18   S    
C25   C27   A    
C26   C28   A    
Cu2   O7    S    
C26   N4    S    
C14   O7    A    
C28   C30   A    
C4    N2    A    
C11   C13   T    
C2    H2    S    
C24   H19   S    
C9    C38   A    
C33   C35   A    
Cu2   O6    S    
C34   C36   S    
Cu1   O5    S    
C6    N2    A    
C15   O6    A    
C8    C10   A    
C30   H21   S    
C32   H16   S    
C19   H1    S    
