data_mof_unit_22619.cif
_audit_creation_date              2013-03-05T16:12:14-0500
_audit_creation_method            fapswitch 2.2
_symmetry_space_group_name_H-M    P1
_symmetry_Int_Tables_number       1
_space_group_crystal_system       triclinic
_cell_length_a                    10.734487
_cell_length_b                    9.403546
_cell_length_c                    27.790619
_cell_angle_alpha                 90.159766
_cell_angle_beta                  90.045648
_cell_angle_gamma                 89.993975
_cell_volume                      2805.23558538

loop_
_atom_site_label
_atom_site_type_symbol
_atom_site_description
_atom_site_fract_x
_atom_site_fract_y
_atom_site_fract_z
_atom_type_partial_charge
O1    O     O_R   0.317570 0.620260 0.500030 -0.606172
O2    O     O_R   0.317570 0.379740 0.500030 -0.590501
C1    C     C_R   0.259880 0.499996 0.501627 0.842610
O3    O     O_R   0.499900 0.620250 0.430280 -0.601865
O4    O     O_R   0.499900 0.379750 0.430280 -0.543206
C2    C     C_R   0.496240 0.499788 0.407662 0.905070
Cu1   Cu    Cu3+1 0.499860 0.642410 0.500020 0.975241
Cu2   Cu    Cu3+1 0.499860 0.357590 0.500020 0.982693
O5    O     O_R   0.682190 0.620260 0.500010 -0.574425
O6    O     O_R   0.682190 0.379740 0.500010 -0.572329
O7    O     O_R   0.499860 0.620280 0.569750 -0.542537
O8    O     O_R   0.499860 0.379720 0.569750 -0.601681
C3    C     C_R   0.739716 0.499928 0.502425 0.950698
C4    C     C_R   0.498520 0.500193 0.592747 0.921659
C5    C     C_R   0.425465 0.577357 0.176994 0.575106
O9    O     O_2   0.331253 0.642978 0.200328 -0.490641
N1    N     N_R   0.520494 0.516824 0.202539 -0.465674
C6    C     C_R   0.620396 0.455741 0.179797 0.597705
C7    C     C_R   0.605270 0.576300 0.282481 -0.051534
C8    C     C_R   0.598221 0.570127 0.332445 -0.191693
C9    C     C_R   0.403025 0.438111 0.326783 0.281298
C10   C     C_R   0.412123 0.444503 0.276514 -0.117340
C11   C     C_R   0.512799 0.512586 0.254219 0.241599
C12   C     C_R   0.526016 0.507608 0.102389 -0.086458
C13   C     C_R   0.424627 0.570351 0.126682 -0.013406
C14   C     C_R   0.324992 0.625955 0.100270 -0.096940
C15   C     C_R   0.629007 0.456647 0.128978 -0.144538
C16   C     C_R   0.498876 0.500069 0.355012 -0.165803
H1    H     H_    0.340563 0.395878 0.254430 0.200651
H2    H     H_    0.248832 0.680831 0.117893 0.210438
C17   C     C_R   0.499755 0.498086 0.646072 -0.178725
C18   C     C_R   0.406401 0.505192 0.975819 -0.057430
C19   C     C_R   0.630621 0.450408 0.975309 0.015382
C20   C     C_R   0.517995 0.476218 0.950149 0.050147
C21   C     C_R   0.291322 0.503908 0.950269 0.297188
C22   C     C_R   0.291806 0.501495 0.900077 -0.135820
C23   C     C_R   0.403133 0.489895 0.874298 -0.081939
C24   C     C_R   0.516796 0.473549 0.899065 -0.094737
C25   C     C_R   0.628789 0.455538 0.872757 -0.129453
C26   C     C_R   0.622996 0.460505 0.821875 0.670364
N2    N     N_R   0.511023 0.475893 0.798913 -0.458135
C27   C     C_R   0.402270 0.489257 0.823917 0.620263
C28   C     C_R   0.529915 0.359937 0.719393 0.457000
C29   C     C_R   0.526792 0.368752 0.669339 -0.227659
C30   C     C_R   0.474207 0.619861 0.674566 0.387664
C31   C     C_R   0.479735 0.610660 0.724655 -0.137024
C32   C     C_R   0.507657 0.481853 0.747274 0.161551
O10   O     O_2   0.293422 0.502017 0.799931 -0.464756
C33   C     C_R   0.414791 0.534939 0.025832 0.067110
C34   C     C_R   0.523629 0.495911 0.051463 0.085055
C35   C     C_R   0.629769 0.446342 0.026483 0.011753
C36   C     C_R   0.320716 0.609692 0.050636 -0.109192
H3    H     H_    0.545583 0.273334 0.648677 0.213117
H4    H     H_    0.203427 0.503174 0.881215 0.248297
H5    H     H_    0.244212 0.659738 0.031943 0.188552
O11   O     O_2   0.708088 0.389772 0.206375 -0.437597
C37   C     C_R   0.733842 0.403297 0.103816 0.352401
H6    H     H_    0.670887 0.619893 0.353672 0.225880
H7    H     H_    0.682664 0.630781 0.265685 0.189839
C38   C     C_R   0.740880 0.431914 0.948486 -0.202365
C39   C     C_R   0.741366 0.434902 0.898380 0.434670
O12   O     O_2   0.727476 0.451721 0.795194 -0.393223
C40   C     C_R   0.732421 0.397565 0.053553 -0.227694
H8    H     H_    0.830285 0.420151 0.965681 0.211974
H9    H     H_    0.460834 0.704030 0.746387 0.211293
H10   H     H_    0.813647 0.352599 0.036545 0.196504
C41   C     C_3   0.073455 0.635300 0.528871 -0.420801
C42   C     C_3   0.073455 0.367030 0.530121 -0.399594
H11   H     H_    0.098943 0.731115 0.507557 0.180203
H12   H     H_    0.115137 0.267709 0.515392 0.173125
H13   H     H_    0.120350 0.648160 0.564300 0.224586
H14   H     H_    0.102117 0.374430 0.568557 0.234864
C43   C     C_3   0.929898 0.629334 0.533706 0.146137
C44   C     C_3   0.930568 0.355348 0.525570 0.143234
H15   H     H_    0.893677 0.729672 0.517849 0.155230
H16   H     H_    0.911126 0.268774 0.499269 0.145764
H17   H     H_    0.115447 0.584834 0.429513 0.214511
H18   H     H_    0.101178 0.396584 0.433289 0.242766
C45   C     C_3   0.071905 0.497790 0.450732 -0.355294
C46   C     C_3   0.122200 0.499968 0.502875 -0.096387
C47   C     C_3   0.877758 0.498961 0.504011 -0.214269
C48   C     C_3   0.927856 0.511417 0.450581 0.543711
C49   C     C_3   0.594257 0.084203 0.534959 -0.157603
C50   C     C_3   0.595319 0.916491 0.534491 -0.145229
H19   H     H_    0.575321 0.122192 0.572135 0.185731
H20   H     H_    0.579316 0.876970 0.571522 0.228880
H21   H     H_    0.688706 0.123319 0.525454 0.181868
H22   H     H_    0.689732 0.879348 0.523961 0.173966
H23   H     H_    0.351467 0.124721 0.551822 0.167771
H24   H     H_    0.352556 0.877207 0.552250 0.200864
C51   C     C_3   0.377587 0.083902 0.515591 -0.191676
C52   C     C_3   0.377800 0.916496 0.515862 -0.188497
C53   C     C_3   0.529624 0.083138 0.452833 -0.181043
C54   C     C_3   0.528448 0.915839 0.452719 -0.197450
N3    N     N_3   0.500250 0.143650 0.501060 -0.157759
N4    N     N_3   0.500250 0.856350 0.501060 -0.155653
H25   H     H_    0.460391 0.120713 0.426044 0.206814
H26   H     H_    0.457532 0.878906 0.426291 0.172187
H27   H     H_    0.622201 0.122152 0.440627 0.185467
H28   H     H_    0.620023 0.875192 0.439931 0.191764
H29   H     H_    0.304116 0.120237 0.490232 0.173325
H30   H     H_    0.303674 0.878907 0.490940 0.157471
N5    N     N_R   0.292884 0.376964 0.347790 0.107624
O13   O     O_R   0.185837 0.391361 0.326326 -0.274554
O14   O     O_R   0.300367 0.292122 0.384502 -0.389377
N6    N     N_R   0.846150 0.362074 0.128084 0.175474
O15   O     O_R   0.899795 0.242220 0.117112 -0.288061
O16   O     O_R   0.908166 0.456236 0.152765 -0.262285
Cl1   Cl    Cl    0.428988 0.785002 0.650467 -0.574664
Cl2   Cl    Cl    0.888144 0.409867 0.870860 -0.407572
N7    N     N_R   0.890170 0.628511 0.584347 0.174727
O17   O     O_R   0.790776 0.698405 0.596974 -0.328735
O18   O     O_R   0.958269 0.570310 0.617737 -0.259124
N8    N     N_R   0.876467 0.307381 0.571556 0.158802
O19   O     O_R   0.779988 0.368327 0.590981 -0.319014
O20   O     O_R   0.916097 0.188840 0.590168 -0.317825
Cl3   Cl    Cl    0.885063 0.677807 0.423189 -0.615828
Cl4   Cl    Cl    0.863702 0.376497 0.411627 -0.557525
Cl5   Cl    Cl    0.558893 0.194038 0.746333 -0.459852
N9    N     N_R   0.173644 0.486303 0.974181 0.114496
O21   O     O_R   0.074673 0.550183 0.957955 -0.325348
O22   O     O_R   0.161604 0.391363 0.007853 -0.308627

loop_
_geom_bond_atom_site_label_1
_geom_bond_atom_site_label_2
_geom_bond_distance
_ccdc_geom_bond_type
C42   C46   1.554306 S    
C49   H21   1.110871 S    
C53   C54   1.573248 S    
C10   H1    1.083301 S    
N2    C27   1.364650 A    
C21   C22   1.394982 A    
C12   C15   1.413666 A    
C4    C17   1.482171 S    
C47   C48   1.584281 S    
Cu1   Cu2   2.678317 S    
C30   C31   1.396129 A    
Cu1   O7    1.949558 S    
Cu1   N4    2.011926 S    
N1    C11   1.439321 S    
C44   H16   1.112221 S    
C22   C23   1.397922 A    
C50   H20   1.108662 S    
O4    C2    1.294100 A    
O7    C4    1.299195 A    
C30   Cl1   1.760910 S    
C5    C13   1.399591 A    
N6    O15   1.301180 A    
C54   H26   1.112317 S    
C42   C44   1.542823 S    
C5    O9    1.350073 S    
C44   N8    1.475953 S    
C3    C47   1.482456 S    
C52   N4    1.488707 S    
C26   O12   1.347388 S    
C5    N1    1.367304 A    
C50   N4    1.490019 S    
C23   C27   1.400139 A    
O5    C3    1.290903 A    
C34   C35   1.413045 A    
C29   H3    1.082942 S    
C2    C16   1.463465 S    
N7    O17   1.301023 A    
C43   N7    1.470895 S    
C41   C43   1.548002 S    
Cu2   O8    1.948404 S    
H23   C51   1.112660 S    
C53   H27   1.112888 S    
C36   H5    1.079988 S    
C6    O11   1.348265 S    
C37   N6    1.434777 S    
C40   H10   1.077922 S    
C53   N3    1.488597 S    
O1    Cu1   1.967867 S    
C9    C10   1.401961 A    
C43   H15   1.112480 S    
C21   N9    1.437602 S    
Cu2   N3    2.012087 S    
C51   H29   1.111672 S    
O3    Cu1   1.948710 S    
C39   Cl2   1.767383 S    
C43   C47   1.578318 S    
N9    O22   1.301651 A    
C37   C40   1.397792 A    
H17   C45   1.113287 S    
C12   C34   1.419438 A    
C25   C39   1.415780 A    
C17   C29   1.409069 A    
C41   C46   1.552610 S    
C18   C21   1.424393 A    
C35   C40   1.411048 A    
C12   C13   1.409690 A    
C31   H9    1.083527 S    
N7    O18   1.302557 A    
C15   C37   1.416416 A    
C51   C52   1.574252 S    
H18   C45   1.112242 S    
C8    C16   1.402898 A    
C7    H7    1.082864 S    
C13   C14   1.398880 A    
C38   C39   1.392858 A    
O1    C1    1.290309 A    
C18   C20   1.420671 A    
C7    C11   1.399089 A    
C28   C29   1.394106 A    
C23   C24   1.408992 A    
C14   C36   1.388102 A    
C45   C48   1.551581 S    
H24   C52   1.111350 S    
C49   C50   1.577139 S    
C54   H28   1.112856 S    
C42   H14   1.113360 S    
C33   C36   1.409739 A    
C49   N3    1.489847 S    
N1    C6    1.370514 A    
N2    C32   1.436747 S    
N5    O14   1.299327 A    
C27   O10   1.350233 S    
C54   N4    1.488031 S    
O3    C2    1.294535 A    
C26   N2    1.368268 A    
C49   H19   1.111101 S    
C9    C16   1.417696 A    
O8    C4    1.299242 A    
C14   H2    1.083354 S    
C19   C38   1.409751 A    
C48   Cl4   1.801991 S    
C44   C47   1.583641 S    
C8    H6    1.083175 S    
C53   H25   1.109912 S    
C25   C26   1.416246 A    
N9    O21   1.301341 A    
Cu1   O5    1.968249 S    
C31   C32   1.398559 A    
C20   C24   1.419856 A    
O2    Cu2   1.967823 S    
C6    C15   1.415447 A    
C50   H22   1.111126 S    
O6    C3    1.289505 A    
O4    Cu2   1.949866 S    
N8    O20   1.301477 A    
N8    O19   1.300570 A    
C52   H30   1.111582 S    
C19   C35   1.422803 A    
C38   H8    1.077579 S    
C7    C8    1.392001 A    
O2    C1    1.289907 A    
C24   C25   1.417448 A    
N6    O16   1.301409 A    
C1    C46   1.478357 S    
C19   C20   1.417380 A    
C41   H13   1.111753 S    
C18   C33   1.419781 A    
C22   H4    1.083655 S    
C51   N3    1.488217 S    
C45   C46   1.546063 S    
C9    N5    1.439587 S    
Cu2   O6    1.968293 S    
C33   C34   1.416719 A    
C17   C30   1.417312 A    
N5    O13   1.301504 A    
C42   H12   1.112713 S    
C10   C11   1.401837 A    
C48   Cl3   1.801263 S    
C41   H11   1.113916 S    
C28   C32   1.402530 A    
C28   Cl5   1.759839 S    
