data_mof_unit_11318.cif
_audit_creation_date              2013-03-05T16:43:03-0500
_audit_creation_method            fapswitch 2.2
_symmetry_space_group_name_H-M    P1
_symmetry_Int_Tables_number       1
_space_group_crystal_system       triclinic
_cell_length_a                    10.661892
_cell_length_b                    10.695765
_cell_length_c                    9.944115
_cell_angle_alpha                 90.128717
_cell_angle_beta                  90.436825
_cell_angle_gamma                 91.482806
_cell_volume                      1133.58188069

loop_
_atom_site_label
_atom_site_type_symbol
_atom_site_description
_atom_site_fract_x
_atom_site_fract_y
_atom_site_fract_z
_atom_type_partial_charge
O1    O     O_R   0.500020 0.316790 0.614690 -0.566709
O2    O     O_R   0.500000 0.316760 0.385350 -0.583791
C1    C     C_R   0.497972 0.260014 0.500180 0.880850
O3    O     O_R   0.314800 0.500000 0.614670 -0.627133
O4    O     O_R   0.314790 0.499960 0.385330 -0.630561
C2    C     C_R   0.257727 0.498330 0.499621 0.846114
Zn1   Zn    Zn3+2 0.500010 0.500020 0.653130 0.994692
Zn2   Zn    Zn3+2 0.499990 0.499980 0.346870 1.007265
O5    O     O_R   0.500000 0.683240 0.614650 -0.624257
O6    O     O_R   0.499980 0.683210 0.385310 -0.614900
O7    O     O_R   0.685210 0.500040 0.614670 -0.645725
O8    O     O_R   0.685200 0.500000 0.385330 -0.625455
C3    C     C_R   0.496354 0.739487 0.500472 0.928674
C4    C     C_R   0.741996 0.499822 0.499980 0.864222
C5    C     C_3   0.068410 0.389867 0.586655 -0.346358
H1    H     H_    0.105736 0.397860 0.690191 0.213294
H2    H     H_    0.097145 0.298371 0.544895 0.206928
C6    C     C_3   0.924830 0.394662 0.592387 -0.467355
H3    H     H_    0.883010 0.302517 0.561143 0.194152
H4    H     H_    0.895731 0.411915 0.698002 0.189939
H5    H     H_    0.108276 0.634417 0.664188 0.154969
H6    H     H_    0.897665 0.644075 0.654475 0.097590
C7    C     C_3   0.077057 0.624648 0.557457 -0.445510
C8    C     C_3   0.069040 0.482152 0.354592 -0.376501
C9    C     C_3   0.120952 0.498700 0.499469 0.078344
H7    H     H_    0.099020 0.563618 0.292131 0.205796
H8    H     H_    0.105096 0.395244 0.310046 0.220099
C10   C     C_3   0.878394 0.500067 0.498922 0.037839
C11   C     C_3   0.932448 0.628846 0.550368 0.182375
C12   C     C_3   0.926790 0.472079 0.355156 -0.354822
H9    H     H_    0.895792 0.375982 0.323850 0.185572
H10   H     H_    0.888806 0.536793 0.278646 0.218281
H11   H     H_    0.121584 0.704160 0.501870 0.203171
C13   C     C_R   0.497024 0.063507 0.622949 0.225077
C14   C     C_R   0.482758 0.127519 0.502242 -0.140828
C15   C     C_R   0.444199 0.062146 0.386309 -0.150504
H12   H     H_    0.422029 0.109549 0.294489 0.248597
C16   C     C_R   0.442532 0.932941 0.386318 -0.194244
H13   H     H_    0.420759 0.883196 0.293662 0.185508
C17   C     C_R   0.478231 0.870324 0.503312 -0.097307
C18   C     C_R   0.492501 0.935841 0.624074 0.122151
C19   C     C_3   0.592185 0.928851 0.730152 -0.459261
C20   C     C_3   0.600694 0.070356 0.725327 -0.426048
H14   H     H_    0.554252 0.892284 0.826638 0.215603
H15   H     H_    0.678490 0.883457 0.696039 0.255368
H16   H     H_    0.573110 0.113998 0.821553 0.264284
H17   H     H_    0.690487 0.107264 0.682884 0.198932
C21   C     C_R   0.391084 0.510344 0.069888 0.042251
N1    N     N_R   0.499150 0.499140 0.142800 -0.078073
C22   C     C_R   0.609239 0.498819 0.072446 -0.041261
H18   H     H_    0.697616 0.495932 0.126022 0.132245
C23   C     C_R   0.609244 0.498862 0.929165 -0.074324
H19   H     H_    0.697603 0.496107 0.876797 0.131060
N2    N     N_R   0.499150 0.499180 0.857150 -0.075514
C24   C     C_R   0.391075 0.510367 0.928266 0.065735
C25   C     C_3   0.273570 0.430026 0.920565 0.053593
C26   C     C_3   0.276673 0.426146 0.073921 0.067014
H20   H     H_    0.193240 0.482564 0.879864 0.048542
H21   H     H_    0.194483 0.471034 0.117938 0.056421
N3    N     N_R   0.891766 0.733335 0.465968 0.214881
O9    O     O_R   0.814588 0.813823 0.513994 -0.434064
O10   O     O_R   0.938998 0.752864 0.347301 -0.396705
N4    N     N_R   0.285723 0.306611 0.858065 0.261591
O11   O     O_R   0.394933 0.257810 0.843061 -0.347708
O12   O     O_R   0.186310 0.234283 0.845919 -0.379107
N5    N     N_R   0.301726 0.302117 0.129315 0.262987
O13   O     O_R   0.410447 0.251938 0.112534 -0.364189
O14   O     O_R   0.208957 0.232631 0.173135 -0.393795

loop_
_geom_bond_atom_site_label_1
_geom_bond_atom_site_label_2
_geom_bond_distance
_ccdc_geom_bond_type
C5    C6    1.534500 S    
N5    O14   1.300196 A    
C24   C25   1.502121 S    
N4    O12   1.300656 A    
C5    H2    1.113389 S    
H6    C11   1.115362 S    
O2    C1    1.294429 A    
C21   C24   1.408308 A    
C18   C19   1.495077 S    
C22   C23   1.424799 A    
C14   C15   1.400447 A    
C8    H8    1.107839 S    
C1    C14   1.422426 S    
C26   N5    1.467642 S    
Zn2   O8    2.008513 S    
C10   C12   1.554670 S    
C22   H18   1.080086 S    
C25   N4    1.466933 S    
C21   C26   1.498226 S    
N5    O13   1.301660 A    
C23   H19   1.080928 S    
Zn1   O7    2.014133 S    
C20   H16   1.108780 S    
O4    C2    1.293149 A    
C13   C18   1.365165 A    
C19   H14   1.111995 S    
C15   H12   1.073127 S    
O3    Zn1   2.008515 S    
C21   N1    1.364692 A    
C5    H1    1.103315 S    
C7    C11   1.544698 S    
C15   C16   1.381605 A    
C17   C18   1.394349 A    
C16   C17   1.398885 A    
O8    C4    1.286876 A    
C7    H11   1.113286 S    
C13   C14   1.392468 A    
C6    H4    1.113729 S    
C7    C9    1.549022 S    
H5    C7    1.113764 S    
C12   H9    1.114446 S    
O7    C4    1.295332 A    
C8    C12   1.517746 S    
C5    C9    1.548781 S    
C2    C9    1.458381 S    
C26   H21   1.103034 S    
C19   C20   1.514770 S    
O3    C2    1.291584 A    
N4    O11   1.297782 A    
C12   H10   1.110913 S    
Zn1   O5    1.997532 S    
C6    C10   1.551304 S    
C8    C9    1.547519 S    
C25   H20   1.110752 S    
N3    O10   1.301708 A    
N1    C22   1.371087 A    
C25   C26   1.525782 S    
C6    H3    1.113753 S    
O4    Zn2   2.014136 S    
N2    C24   1.364321 A    
C10   C11   1.562794 S    
C3    C17   1.417866 S    
O5    C3    1.286925 A    
Zn1   N2    2.028928 S    
C4    C10   1.454316 S    
O1    Zn1   1.995875 S    
C11   N3    1.471493 S    
C20   H17   1.112594 S    
Zn2   N1    2.029246 S    
O6    C3    1.293850 A    
Zn2   O6    1.995876 S    
O2    Zn2   1.997532 S    
C13   C20   1.497285 S    
C8    H7    1.112763 S    
C23   N2    1.370429 A    
N3    O9    1.298891 A    
O1    C1    1.289076 A    
C19   H15   1.106651 S    
C16   H13   1.083539 S    
