data_mof_unit_29297.cif
_audit_creation_date              2012-12-10T17:05:20-0500
_audit_creation_method            fapswitch 2.2
_symmetry_space_group_name_H-M    P1
_symmetry_Int_Tables_number       1
_space_group_crystal_system       triclinic
_cell_length_a                    10.107645
_cell_length_b                    10.773949
_cell_length_c                    14.952334
_cell_angle_alpha                 89.651432
_cell_angle_beta                  72.218344
_cell_angle_gamma                 90.703532
_cell_volume                      1550.31008849

loop_
_atom_site_label
_atom_site_type_symbol
_atom_type_description
_atom_site_fract_x
_atom_site_fract_y
_atom_site_fract_z
_atom_type_partial_charge
C1    C     C_R   0.503440 0.737506 0.496304 0.894576
C2    C     C_R   0.403206 0.352688 0.912027 0.155511
C3    C     C_R   0.260148 0.367978 0.960814 0.145178
C4    C     C_R   0.491443 0.311356 0.963471 -0.106643
C5    C     C_R   0.447690 0.336415 0.059774 0.024085
C6    C     C_R   0.304588 0.331377 0.107550 -0.053137
C7    C     C_R   0.210390 0.340214 0.056887 -0.079284
C8    C     C_R   0.616980 0.245593 0.927322 0.270943
C9    C     C_R   0.714412 0.248479 0.979927 0.228114
C10   C     C_R   0.686767 0.328335 0.059102 -0.089038
C11   C     C_R   0.549301 0.368461 0.102199 -0.009975
C12   C     C_R   0.415397 0.492361 0.676009 0.873391
C13   C     C_R   0.792973 0.375568 0.092550 -0.197527
C14   C     C_R   0.764939 0.453135 0.170441 0.397692
C15   C     C_R   0.521827 0.450514 0.179089 0.235062
C16   C     C_2   0.615008 0.071222 0.483009 -0.114178
C17   C     C_2   0.495746 0.131785 0.511932 -0.247799
C18   C     C_2   0.614023 0.939522 0.497126 0.256532
C19   C     C_2   0.520867 0.867079 0.471124 0.096304
C20   C     C_2   0.067698 0.404315 0.497117 0.411509
C21   C     C_2   0.913787 0.413344 0.530664 0.266222
C22   C     C_R   0.498399 0.263103 0.502571 0.946090
C23   C     C_R   0.584325 0.501112 0.323102 0.961099
C24   C     C_R   0.366706 0.455843 0.775567 -0.076275
C25   C     C_R   0.626051 0.476365 0.221201 -0.220345
C26   C     C_R   0.172302 0.420082 0.915094 -0.083975
C27   C     C_R   0.224818 0.463728 0.823830 -0.150888
C28   C     C_R   0.456061 0.399806 0.819643 -0.109385
H1    H     H_    0.100816 0.339562 0.094298 0.204049
H2    H     H_    0.898856 0.356759 0.056499 0.179771
H3    H     H_    0.714748 0.118889 0.454914 0.238504
H4    H     H_    0.396899 0.084305 0.543519 0.205873
H5    H     H_    0.916327 0.555242 0.447332 0.210703
H6    H     H_    0.064473 0.435230 0.950495 0.152737
H7    H     H_    0.153600 0.505261 0.791294 0.185396
H8    H     H_    0.566305 0.395278 0.783121 0.196623
H9    H     H_    0.266049 0.325440 0.183403 0.226412
N1    N     N_2   0.148330 0.498670 0.499030 -0.068531
N2    N     N_2   0.852680 0.498640 0.499000 -0.178024
O1    O     O_R   0.386950 0.680940 0.500010 -0.529894
O2    O     O_R   0.613110 0.680900 0.499990 -0.558466
O3    O     O_R   0.322330 0.500030 0.632270 -0.611038
O4    O     O_R   0.548480 0.499990 0.632240 -0.579586
O5    O     O_R   0.386890 0.319100 0.500010 -0.550642
O6    O     O_R   0.613050 0.319060 0.499990 -0.601823
O7    O     O_R   0.451520 0.500010 0.367760 -0.552343
O8    O     O_R   0.677670 0.499970 0.367730 -0.563670
Zn1   Zn    Zn3+2 0.349000 0.500030 0.500020 1.142530
Zn2   Zn    Zn3+2 0.651000 0.499970 0.499980 1.114160
S1    S     S_3+6 0.730805 0.888712 0.557842 0.076232
O9    O     O_2   0.653646 0.814889 0.644070 -0.260449
O10   O     O_2   0.840700 0.809970 0.493451 -0.259855
O11   O     O_3   0.809281 0.011069 0.590179 -0.460364
H10   H     H_    0.885973 0.975562 0.610003 0.434161
S2    S     S_3+6 0.433778 0.916183 0.389428 0.074824
O12   O     O_2   0.286115 0.947177 0.442102 -0.223047
O13   O     O_2   0.504647 0.026616 0.331738 -0.265593
O14   O     O_3   0.432540 0.798838 0.316269 -0.495120
H11   H     H_    0.382000 0.831197 0.273987 0.415004
S3    S     S_3+6 0.133706 0.263645 0.443139 0.109017
O15   O     O_2   0.267571 0.285526 0.365781 -0.273192
O16   O     O_2   0.156050 0.177130 0.516204 -0.238853
O17   O     O_3   0.016657 0.198744 0.397589 -0.524311
H12   H     H_    0.052008 0.114580 0.378324 0.410750
Br1   Br    Br    0.067081 0.641245 0.566719 -0.305365
Br2   Br    Br    0.806809 0.296264 0.619212 -0.316905
Br3   Br    Br    0.363604 0.560531 0.207692 -0.353229
S4    S     S_3+6 0.904694 0.532628 0.195046 0.049120
O18   O     O_2   0.964278 0.450384 0.254246 -0.302263
O19   O     O_2   0.015710 0.565141 0.105051 -0.292797
O20   O     O_3   0.849385 0.665269 0.252508 -0.494086
H13   H     H_    0.925859 0.692617 0.276686 0.402271
S5    S     S_3+6 0.864476 0.151011 0.951119 0.123982
O21   O     O_2   0.929062 0.144643 0.029170 -0.271776
O22   O     O_2   0.825094 0.020551 0.933810 -0.119519
O23   O     O_3   0.983807 0.205467 0.853327 -0.469789
H14   H     H_    0.956574 0.291940 0.845539 0.325810
S6    S     S_3+6 0.623838 0.127781 0.842271 0.123292
O24   O     O_2   0.769920 0.113376 0.779101 -0.172526
O25   O     O_2   0.576479 0.007671 0.894562 -0.193863
O26   O     O_3   0.519753 0.154245 0.775610 -0.550219
H15   H     H_    0.536548 0.084708 0.730639 0.412057

loop_
_geom_bond_atom_site_label_1
_geom_bond_atom_site_label_2
_ccdc_geom_bond_type
C8    C9    A    
S2    O12   D    
C7    H1    S    
C21   Br2   S    
S5    O21   D    
C24   C27   A    
C4    C8    A    
O26   H15   S    
O8    Zn2   S    
O11   H10   S    
C16   H3    S    
C26   C27   A    
H5    N2    S    
S3    O17   S    
C5    C11   A    
C12   O4    A    
C3    C7    A    
C5    C6    A    
S6    O25   D    
C15   C25   A    
S3    O16   D    
C18   C19   D    
C12   O3    A    
C1    O1    A    
S4    O18   D    
C11   C15   A    
C26   H6    S    
C22   O5    A    
C16   C17   D    
S1    O10   D    
C20   S3    S    
C9    C10   A    
N1    Zn1   S    
C23   O7    A    
C13   C14   A    
C8    S6    S    
S5    O22   D    
C9    S5    S    
O2    Zn2   S    
O7    Zn1   S    
C1    C19   S    
S1    O11   S    
C23   O8    A    
C13   H2    S    
O23   H14   S    
S6    O24   D    
O4    Zn2   S    
C27   H7    S    
O14   H11   S    
S3    O15   D    
C2    C4    A    
C20   N1    D    
C21   N2    D    
N1    Br1   S    
O6    Zn2   S    
C15   Br3   S    
S1    O9    D    
C6    H9    S    
C16   C18   S    
O3    Zn1   S    
C1    O2    A    
N2    Zn2   S    
S2    O13   D    
S5    O23   S    
C18   S1    S    
C19   S2    S    
O1    Zn1   S    
C3    C26   A    
C24   C28   A    
C4    C5    A    
C10   C13   A    
C6    C7    A    
C12   C24   S    
C17   C22   S    
C2    C3    A    
O20   H13   S    
S6    O26   S    
S4    O20   S    
C23   C25   S    
C14   C25   A    
C10   C11   A    
O17   H12   S    
C22   O6    A    
C20   C21   S    
C28   H8    S    
S4    O19   D    
S2    O14   S    
C17   H4    S    
C14   S4    S    
C2    C28   A    
O5    Zn1   S    
