data_mof_unit_56803.cif
_audit_creation_date              2012-12-10T17:43:36-0500
_audit_creation_method            fapswitch 2.2
_symmetry_space_group_name_H-M    P1
_symmetry_Int_Tables_number       1
_space_group_crystal_system       triclinic
_cell_length_a                    15.005977
_cell_length_b                    10.734382
_cell_length_c                    9.875848
_cell_angle_alpha                 90.522958
_cell_angle_beta                  89.99904
_cell_angle_gamma                 91.639576
_cell_volume                      1590.08293091

loop_
_atom_site_label
_atom_site_type_symbol
_atom_type_description
_atom_site_fract_x
_atom_site_fract_y
_atom_site_fract_z
_atom_type_partial_charge
C1    C     C_R   0.510672 0.261226 0.499911 0.886321
C2    C     C_R   0.907202 0.491815 0.375634 0.118489
C3    C     C_R   0.953584 0.490894 0.747217 -0.219808
C4    C     C_R   0.046163 0.490221 0.747229 -0.219114
C5    C     C_R   0.092593 0.490651 0.624256 0.119954
C6    C     C_R   0.046236 0.490306 0.499938 0.060860
C7    C     C_R   0.092597 0.490467 0.375634 0.119088
C8    C     C_R   0.046180 0.489909 0.252639 -0.218631
C9    C     C_R   0.953605 0.490634 0.252641 -0.219676
C10   C     C_R   0.184797 0.492616 0.623353 -0.268265
C11   C     C_R   0.230633 0.494644 0.499987 -0.072309
C12   C     C_R   0.326609 0.498622 0.500010 0.880307
C13   C     C_R   0.184797 0.492392 0.376585 -0.265365
C14   C     C_R   0.555817 0.121691 0.749633 -0.131819
C15   C     C_R   0.536662 0.066129 0.873376 -0.140959
C16   C     C_R   0.488382 0.953855 0.876651 -0.164948
C17   C     C_R   0.467076 0.891702 0.755765 -0.149092
C18   C     C_R   0.494403 0.941790 0.629251 0.094599
C19   C     C_R   0.526185 0.065336 0.626714 0.057071
C20   C     C_R   0.525200 0.128555 0.501374 -0.140386
C21   C     C_R   0.521976 0.061206 0.378720 0.096138
C22   C     C_R   0.507634 0.934445 0.382070 -0.272145
C23   C     C_R   0.494416 0.740111 0.501370 0.900524
C24   C     C_R   0.493025 0.874115 0.505093 -0.153658
C25   C     C_R   0.383765 0.335801 0.139028 -0.163290
C26   C     C_R   0.326695 0.254529 0.067943 -0.223642
C27   C     C_R   0.326562 0.254512 0.927839 -0.188352
C28   C     C_R   0.383451 0.335822 0.858094 -0.154052
C29   C     C_R   0.442666 0.418918 0.926836 0.156257
C30   C     C_R   0.442745 0.418929 0.071657 0.172443
C31   C     C_R   0.554626 0.577785 0.072387 -0.129882
C32   C     C_R   0.554595 0.577765 0.929015 -0.136119
C33   C     C_R   0.673397 0.499651 0.499982 0.893443
C34   C     C_R   0.815094 0.494599 0.376586 -0.258369
C35   C     C_R   0.769304 0.496607 0.499964 -0.075380
C36   C     C_R   0.815079 0.494693 0.623316 -0.262965
C37   C     C_R   0.907190 0.491934 0.624237 0.119994
C38   C     C_R   0.953527 0.490980 0.499933 0.060396
H1    H     H_    0.779285 0.495594 0.281210 0.162329
H2    H     H_    0.594675 0.208141 0.751287 0.159439
H3    H     H_    0.557253 0.112299 0.966321 0.135449
H4    H     H_    0.469162 0.913497 0.972775 0.132057
H5    H     H_    0.427321 0.806619 0.763502 0.164907
H6    H     H_    0.508360 0.883620 0.286697 0.169897
H7    H     H_    0.599177 0.641267 0.127079 0.144757
H8    H     H_    0.379749 0.330412 0.246313 0.210338
H9    H     H_    0.282239 0.191305 0.122090 0.154300
H10   H     H_    0.281959 0.191327 0.872652 0.153718
H11   H     H_    0.378772 0.330711 0.750775 0.209535
H12   H     H_    0.779257 0.495760 0.718704 0.161151
H13   H     H_    0.599065 0.641290 0.875482 0.153722
H14   H     H_    0.918350 0.491303 0.843032 0.140794
H15   H     H_    0.081406 0.490162 0.843048 0.143618
H16   H     H_    0.220655 0.493416 0.718753 0.165218
H17   H     H_    0.220653 0.493000 0.281199 0.166424
H18   H     H_    0.081430 0.489732 0.156825 0.143735
H19   H     H_    0.918381 0.490969 0.156821 0.140860
N1    N     N_R   0.499150 0.498800 0.142780 -0.120494
N2    N     N_R   0.499120 0.498720 0.857170 -0.126838
O1    O     O_R   0.500000 0.316780 0.614690 -0.657509
O2    O     O_R   0.499990 0.316750 0.385360 -0.607892
O3    O     O_R   0.367850 0.499980 0.614680 -0.648212
O4    O     O_R   0.367840 0.499960 0.385350 -0.645548
O5    O     O_R   0.500010 0.683250 0.614640 -0.628503
O6    O     O_R   0.500000 0.683220 0.385310 -0.620424
O7    O     O_R   0.632160 0.500040 0.614650 -0.629982
O8    O     O_R   0.632150 0.500020 0.385320 -0.622821
Zn1   Zn    Zn3+2 0.500010 0.500020 0.653130 0.919835
Zn2   Zn    Zn3+2 0.499990 0.499980 0.346870 0.939308
N3    N     N_3   0.535432 0.120180 0.250394 -0.428138
H20   H     H_    0.479741 0.099466 0.189744 0.185373
H21   H     H_    0.591015 0.081248 0.204397 0.171940

loop_
_geom_bond_atom_site_label_1
_geom_bond_atom_site_label_2
_ccdc_geom_bond_type
C27   H10   S    
C7    C13   A    
O7    Zn1   S    
C11   C12   S    
C17   H5    S    
C32   H13   S    
C29   C30   A    
C16   H4    S    
N2    Zn1   S    
C12   O3    A    
C28   H11   S    
C2    C38   A    
C19   C20   A    
O3    Zn1   S    
C21   N3    S    
C23   C24   S    
O1    Zn1   S    
C13   H17   S    
C23   O6    A    
C6    C38   A    
C17   C18   A    
C2    C34   A    
C5    C10   A    
N1    Zn2   S    
C21   C22   A    
C11   C13   A    
C8    H18   S    
C26   C27   A    
C37   C38   A    
C26   H9    S    
C18   C24   A    
C15   C16   A    
C30   N1    A    
C31   N1    A    
C14   C19   A    
C23   O5    A    
C33   C35   S    
C33   O7    A    
C18   C19   A    
C6    C7    A    
C9    H19   S    
C5    C6    A    
C10   H16   S    
C3    H14   S    
C22   C24   A    
C4    H15   S    
C16   C17   A    
C10   C11   A    
C15   H3    S    
C14   H2    S    
C34   H1    S    
C28   C29   A    
O5    Zn1   S    
C7    C8    A    
N3    H20   S    
C36   H12   S    
C20   C21   A    
C33   O8    A    
C36   C37   A    
C34   C35   A    
C31   H7    S    
C1    O1    A    
O2    Zn2   S    
C25   C30   A    
O6    Zn2   S    
C12   O4    A    
C29   N2    A    
C14   C15   A    
C4    C5    A    
C1    C20   S    
N3    H21   S    
C32   N2    A    
O8    Zn2   S    
C25   C26   A    
C2    C9    A    
C25   H8    S    
C31   C32   A    
C22   H6    S    
C3    C4    A    
O4    Zn2   S    
C3    C37   A    
C8    C9    A    
C27   C28   A    
C35   C36   A    
C1    O2    A    
