data_mof_unit_67422.cif
_audit_creation_date              2012-12-10T16:42:30-0500
_audit_creation_method            fapswitch 2.2
_symmetry_space_group_name_H-M    P1
_symmetry_Int_Tables_number       1
_space_group_crystal_system       triclinic
_cell_length_a                    7.524481
_cell_length_b                    8.822863
_cell_length_c                    11.183427
_cell_angle_alpha                 89.188991
_cell_angle_beta                  75.177667
_cell_angle_gamma                 100.739244
_cell_volume                      703.667467216

loop_
_atom_site_label
_atom_site_type_symbol
_atom_type_description
_atom_site_fract_x
_atom_site_fract_y
_atom_site_fract_z
_atom_type_partial_charge
C1    C     C_R   0.455319 0.203040 0.514643 0.828129
C2    C     C_R   0.543467 0.798590 0.489026 0.859147
C3    C     C_R   0.431033 0.507584 0.739143 0.817512
C4    C     C_R   0.568754 0.484994 0.262448 0.817270
C5    C     C_2   0.402675 0.522418 0.871969 -0.391401
C6    C     C_2   0.599685 0.455989 0.131574 -0.408000
C7    C     C_2   0.534215 0.522410 0.935062 0.121315
C8    C     C_2   0.470579 0.454534 0.067033 0.117655
C9    C     C_2   0.445662 0.041076 0.544494 -0.026942
C10   C     C_2   0.549095 0.961822 0.459935 -0.043885
Cu1   Cu    Cu3+1 0.688910 0.517800 0.485820 0.995191
Cu2   Cu    Cu3+1 0.311090 0.482200 0.514180 0.999257
H1    H     H_    0.745316 0.465419 0.083789 0.168391
H2    H     H_    0.257916 0.506717 0.921517 0.164825
N1    N     N_2   0.027170 0.455360 0.535550 0.003576
N2    N     N_2   0.972830 0.544640 0.464450 0.002458
O1    O     O_R   0.622710 0.286400 0.490790 -0.578759
O2    O     O_R   0.377290 0.713600 0.509210 -0.575801
O3    O     O_R   0.303660 0.256330 0.514730 -0.579106
O4    O     O_R   0.696340 0.743670 0.485270 -0.577654
O5    O     O_R   0.600900 0.509520 0.671740 -0.577087
O6    O     O_R   0.399100 0.490480 0.328260 -0.569207
O7    O     O_R   0.281840 0.479450 0.695690 -0.585091
O8    O     O_R   0.718160 0.520550 0.304310 -0.581699
C11   C     C_3   0.266628 0.372926 0.122088 -0.323677
C12   C     C_3   0.209611 0.235250 0.046676 -0.380301
C13   C     C_3   0.011843 0.227269 0.030411 -0.868088
H3    H     H_    0.910060 0.226978 0.121504 0.267107
H4    H     H_    0.005153 0.326729 0.971493 0.254061
H5    H     H_    0.969321 0.121460 0.984217 0.240510
H6    H     H_    0.307682 0.237760 0.953504 0.229948
H7    H     H_    0.219577 0.127871 0.094867 0.207159
H8    H     H_    0.240624 0.323250 0.217897 0.216648
H9    H     H_    0.174696 0.458915 0.127573 0.211660
C14   C     C_3   0.742599 0.589758 0.877192 -0.335601
C15   C     C_3   0.820212 0.725983 0.945596 -0.394533
C16   C     C_3   0.020616 0.720119 0.950318 -0.874856
H10   H     H_    0.019920 0.625553 0.016519 0.250152
H11   H     H_    0.106599 0.701741 0.857118 0.271149
H12   H     H_    0.088478 0.828636 0.981864 0.243733
H13   H     H_    0.814901 0.836149 0.899251 0.212221
H14   H     H_    0.731767 0.727682 0.040270 0.238439
H15   H     H_    0.821169 0.494748 0.875190 0.217733
H16   H     H_    0.775089 0.637895 0.781350 0.224057
C17   C     C_3   0.353886 0.984214 0.678764 -0.448902
C18   C     C_3   0.151477 0.008101 0.718977 -0.365567
C19   C     C_3   0.027733 0.916158 0.644921 -0.641216
H17   H     H_    0.069654 0.963447 0.547100 0.271072
H18   H     H_    0.040357 0.792918 0.646792 0.256740
H19   H     H_    0.878983 0.923904 0.684999 0.214521
H20   H     H_    0.096029 0.975408 0.817950 0.209812
H21   H     H_    0.146378 0.132084 0.713199 0.257628
H22   H     H_    0.356877 0.861593 0.699030 0.195312
H23   H     H_    0.433891 0.052416 0.737563 0.178799
C20   C     C_3   0.616112 0.028691 0.325103 -0.420828
C21   C     C_3   0.671647 0.914631 0.228238 -0.384935
C22   C     C_3   0.867029 0.887730 0.221456 -0.744683
H24   H     H_    0.967784 0.956483 0.143132 0.237336
H25   H     H_    0.911531 0.920617 0.306214 0.287279
H26   H     H_    0.873952 0.766331 0.204369 0.279762
H27   H     H_    0.569063 0.803948 0.248341 0.239509
H28   H     H_    0.669092 0.962471 0.136278 0.205853
H29   H     H_    0.500220 0.074357 0.301308 0.172512
H30   H     H_    0.735088 0.127583 0.315789 0.224417
I1    I     I_    0.854487 0.286011 0.666805 -0.360003
I2    I     I_    0.150174 0.707140 0.330342 -0.372035

loop_
_geom_bond_atom_site_label_1
_geom_bond_atom_site_label_2
_ccdc_geom_bond_type
Cu1   Cu2   S    
C12   H7    S    
C16   H10   S    
C10   C20   S    
Cu2   O6    S    
C13   H4    S    
C4    O6    A    
C9    C10   D    
C15   H14   S    
C14   C15   S    
Cu2   N1    S    
C11   H9    S    
C20   C21   S    
C20   H30   S    
C5    H2    S    
C14   H15   S    
C17   H22   S    
C7    C8    S    
C19   H18   S    
C14   H16   S    
C17   C18   S    
C6    H1    S    
C9    C17   S    
C8    C11   S    
Cu2   O7    S    
C15   H13   S    
C20   H29   S    
C7    C14   S    
Cu2   O3    S    
C4    C6    S    
C15   C16   S    
C11   C12   S    
C17   H23   S    
C16   H12   S    
C22   H24   S    
C12   C13   S    
C4    O8    A    
C21   H28   S    
Cu1   O4    S    
C3    O5    A    
C22   H25   S    
N2    I2    S    
C2    O4    A    
N1    N2    D    
N1    I1    S    
C18   H21   S    
Cu1   O8    S    
C12   H6    S    
C1    C9    S    
C21   C22   S    
C16   H11   S    
Cu1   N2    S    
Cu2   O2    S    
C13   H3    S    
C5    C7    D    
C19   H19   S    
C18   C19   S    
Cu1   O1    S    
C22   H26   S    
C6    C8    D    
C3    C5    S    
C3    O7    A    
C21   H27   S    
C1    O3    A    
C1    O1    A    
C18   H20   S    
Cu1   O5    S    
C19   H17   S    
C11   H8    S    
C2    O2    A    
C13   H5    S    
C2    C10   S    
