data_mof_unit_20367.cif
_audit_creation_date              2012-12-10T18:58:43-0500
_audit_creation_method            fapswitch 2.2
_symmetry_space_group_name_H-M    P1
_symmetry_Int_Tables_number       1
_space_group_crystal_system       triclinic
_cell_length_a                    12.990845
_cell_length_b                    10.839662
_cell_length_c                    9.537956
_cell_angle_alpha                 90.200337
_cell_angle_beta                  95.976528
_cell_angle_gamma                 90.692531
_cell_volume                      1335.68724478

loop_
_atom_site_label
_atom_site_type_symbol
_atom_type_description
_atom_site_fract_x
_atom_site_fract_y
_atom_site_fract_z
_atom_type_partial_charge
C1    C     C_R   0.496316 0.262441 0.499181 0.826658
C2    C     C_R   0.027658 0.482557 0.566214 0.174341
C3    C     C_R   0.972186 0.501181 0.432722 0.177947
C4    C     C_R   0.864882 0.504964 0.421001 -0.269191
C5    C     C_R   0.867215 0.467943 0.672296 -0.185530
C6    C     C_R   0.974765 0.465073 0.685288 -0.236469
C7    C     C_R   0.471731 0.064535 0.619042 0.120522
C8    C     C_R   0.481154 0.129919 0.495717 -0.157727
C9    C     C_R   0.470973 0.065537 0.367072 -0.317420
C10   C     C_R   0.466544 0.936055 0.364627 0.445704
C11   C     C_R   0.480209 0.871211 0.494395 -0.197251
C12   C     C_R   0.300537 0.499317 0.473856 0.789341
C13   C     C_R   0.472216 0.937620 0.618683 0.063087
C14   C     C_3   0.534628 0.934129 0.759128 -0.471463
C15   C     C_3   0.533208 0.073895 0.759645 -0.431327
C16   C     C_R   0.587387 0.531777 0.086314 0.207186
C17   C     C_R   0.417280 0.456256 0.062510 -0.103541
C18   C     C_R   0.417228 0.456355 0.913760 -0.089401
C19   C     C_R   0.587913 0.530631 0.938814 0.246185
C20   C     C_3   0.645234 0.650736 0.941681 0.222333
C21   C     C_3   0.643824 0.652230 0.100879 -0.565956
C22   C     C_R   0.495858 0.737986 0.499053 0.817721
C23   C     C_R   0.699426 0.497358 0.526088 0.809425
C24   C     C_R   0.812028 0.490513 0.540653 -0.066285
C25   C     C_R   0.187810 0.498177 0.458769 -0.043885
C26   C     C_R   0.024830 0.516102 0.313046 -0.217626
C27   C     C_R   0.132308 0.513801 0.325937 -0.210573
C28   C     C_R   0.135141 0.481736 0.578405 -0.263358
Cu1   Cu    Cu3+1 0.499990 0.499980 0.640670 0.945571
Cu2   Cu    Cu3+1 0.500010 0.500020 0.359330 0.945068
H1    H     H_    0.822841 0.519576 0.318490 0.152970
H2    H     H_    0.613223 0.897504 0.752613 0.198381
H3    H     H_    0.487511 0.112934 0.841179 0.194118
H4    H     H_    0.610917 0.116887 0.754611 0.196383
H5    H     H_    0.349695 0.422400 0.108166 0.138468
H6    H     H_    0.721628 0.644211 0.160039 0.199856
H7    H     H_    0.595965 0.727347 0.137868 0.231879
H8    H     H_    0.827454 0.453347 0.765190 0.201351
H9    H     H_    0.983021 0.529773 0.209971 0.137785
H10   H     H_    0.471999 0.114496 0.268372 0.175146
H11   H     H_    0.490501 0.892930 0.841383 0.190524
N1    N     N_R   0.500660 0.500930 0.148010 -0.179838
N2    N     N_R   0.500660 0.500890 0.852110 -0.216236
O1    O     O_R   0.500000 0.319640 0.618810 -0.580776
O2    O     O_R   0.500010 0.319680 0.381230 -0.583007
O3    O     O_R   0.348990 0.499960 0.599490 -0.593169
O4    O     O_R   0.349000 0.500000 0.361910 -0.606952
O5    O     O_R   0.499990 0.680320 0.618770 -0.589206
O6    O     O_R   0.500000 0.680360 0.381190 -0.534417
O7    O     O_R   0.651000 0.500000 0.638090 -0.562301
O8    O     O_R   0.651010 0.500040 0.400510 -0.583556
H12   H     H_    0.349634 0.422282 0.848955 0.141577
O9    O     O_3   0.745879 0.636095 0.900937 -0.598076
C29   C     C_3   0.797735 0.751821 0.899300 0.057401
H13   H     H_    0.873432 0.744008 0.964373 0.154902
H14   H     H_    0.756254 0.829213 0.945883 0.134383
C30   C     C_3   0.817831 0.783524 0.748167 -0.337182
H15   H     H_    0.875635 0.719136 0.712558 0.233794
H16   H     H_    0.745154 0.772669 0.676527 0.216656
C31   C     C_3   0.859229 0.915154 0.737800 -0.932353
H17   H     H_    0.801730 0.982394 0.768765 0.253538
H18   H     H_    0.874353 0.934207 0.627435 0.262088
H19   H     H_    0.932733 0.927257 0.807413 0.258911
H20   H     H_    0.598664 0.722692 0.884014 0.107549
H21   H     H_    0.016423 0.449469 0.788031 0.138192
H22   H     H_    0.171937 0.525169 0.232340 0.152616
H23   H     H_    0.177524 0.468168 0.681154 0.142637
O10   O     O_3   0.465237 0.874557 0.236822 -0.610716
C32   C     C_3   0.369177 0.890511 0.154381 0.035151
H24   H     H_    0.383874 0.886462 0.041865 0.155296
H25   H     H_    0.332947 0.981643 0.169833 0.126476
C33   C     C_3   0.293568 0.786002 0.181947 -0.309260
H26   H     H_    0.328802 0.695851 0.160714 0.243383
H27   H     H_    0.277619 0.788361 0.294169 0.205086
C34   C     C_3   0.191723 0.797815 0.087753 -0.954218
H28   H     H_    0.154750 0.887174 0.107646 0.258583
H29   H     H_    0.137836 0.722053 0.110519 0.254316
H30   H     H_    0.205565 0.791995 0.974938 0.257777

loop_
_geom_bond_atom_site_label_1
_geom_bond_atom_site_label_2
_ccdc_geom_bond_type
C8    C9    A    
C22   O5    A    
Cu2   O8    S    
C16   C21   S    
C1    C8    S    
Cu2   O2    S    
C19   C20   S    
C18   H12   S    
C7    C8    A    
C21   H6    S    
O9    C29   S    
C25   C28   A    
C26   C27   A    
C31   H19   S    
C33   C34   S    
C5    C6    A    
C4    C24   A    
C26   H9    S    
C30   H16   S    
C31   H18   S    
C32   H25   S    
C17   N1    A    
C6    H21   S    
O10   C32   S    
C23   C24   S    
C9    C10   A    
C15   H4    S    
C7    C15   S    
C13   C14   S    
Cu1   N2    S    
C2    C6    A    
C12   O4    A    
C19   N2    A    
Cu1   O7    S    
C29   H14   S    
Cu1   O5    S    
Cu2   O4    S    
C28   H23   S    
C33   H27   S    
C33   H26   S    
C23   O7    A    
C9    H10   S    
C31   H17   S    
C20   H20   S    
C32   C33   S    
C34   H28   S    
Cu1   Cu2   S    
C1    O1    A    
C23   O8    A    
C17   C18   A    
C34   H29   S    
C14   H11   S    
C12   O3    A    
Cu2   O6    S    
C22   O6    A    
Cu1   O1    S    
C3    C4    A    
C16   N1    A    
C29   H13   S    
C3    C26   A    
C14   H2    S    
C20   O9    S    
C30   C31   S    
C10   O10   S    
C25   C27   A    
C12   C25   S    
C11   C22   S    
Cu1   O3    S    
C2    C3    A    
C27   H22   S    
C18   N2    A    
C11   C13   A    
C1    O2    A    
C30   H15   S    
C5    C24   A    
C16   C19   A    
C32   H24   S    
C34   H30   S    
C4    H1    S    
C10   C11   A    
C7    C13   A    
C21   H7    S    
C20   C21   S    
C14   C15   S    
Cu2   N1    S    
C2    C28   A    
C17   H5    S    
C5    H8    S    
C15   H3    S    
C29   C30   S    
