data_mof_unit_41448.cif
_audit_creation_date              2012-12-11T16:07:27-0500
_audit_creation_method            fapswitch 2.2
_symmetry_space_group_name_H-M    P1
_symmetry_Int_Tables_number       1
_space_group_crystal_system       triclinic
_cell_length_a                    17.119784
_cell_length_b                    17.119954
_cell_length_c                    17.238692
_cell_angle_alpha                 89.998667
_cell_angle_beta                  89.998714
_cell_angle_gamma                 89.994922
_cell_volume                      5052.48674309

loop_
_atom_site_label
_atom_site_type_symbol
_atom_type_description
_atom_site_fract_x
_atom_site_fract_y
_atom_site_fract_z
_atom_type_partial_charge
C1    C     C_R   0.422807 0.669635 0.646253 -0.061297
C2    C     C_R   0.605278 0.302503 0.391115 -0.125312
C3    C     C_R   0.697455 0.605214 0.609020 -0.125062
C4    C     C_R   0.330331 0.422812 0.353775 -0.061987
C5    C     C_R   0.577197 0.330325 0.646227 -0.062219
C6    C     C_R   0.394759 0.697494 0.391083 -0.124774
C7    C     C_R   0.302549 0.394790 0.609034 -0.124917
C8    C     C_R   0.669666 0.577188 0.353772 -0.061908
C9    C     C_R   0.422810 0.330335 0.353772 -0.061793
C10   C     C_R   0.605222 0.697455 0.609013 -0.125161
C11   C     C_R   0.697496 0.394744 0.391095 -0.125000
C12   C     C_R   0.330307 0.577201 0.646215 -0.062618
C13   C     C_R   0.577191 0.669666 0.353773 -0.061850
C14   C     C_R   0.394783 0.302549 0.609028 -0.124959
C15   C     C_R   0.302500 0.605294 0.391129 -0.125512
C16   C     C_R   0.669650 0.422805 0.646242 -0.061709
C17   C     C_R   0.922806 0.169649 0.146243 -0.061738
C18   C     C_R   0.105297 0.802502 0.891128 -0.125509
C19   C     C_R   0.197454 0.105213 0.109022 -0.125163
C20   C     C_R   0.830330 0.922810 0.853775 -0.061999
C21   C     C_R   0.077199 0.830312 0.146218 -0.062506
C22   C     C_R   0.894746 0.197494 0.891091 -0.125014
C23   C     C_R   0.802547 0.894785 0.109028 -0.125030
C24   C     C_R   0.169671 0.077193 0.853776 -0.061984
C25   C     C_R   0.922814 0.830338 0.853770 -0.061784
C26   C     C_R   0.105219 0.197454 0.109017 -0.125037
C27   C     C_R   0.197493 0.894765 0.891076 -0.124782
C28   C     C_R   0.830327 0.077196 0.146228 -0.062183
C29   C     C_R   0.077190 0.169665 0.853772 -0.061773
C30   C     C_R   0.894784 0.802548 0.109028 -0.124878
C31   C     C_R   0.802503 0.105277 0.891112 -0.125280
C32   C     C_R   0.169636 0.922807 0.146253 -0.061401
C33   C     C_3   0.322892 0.322901 0.251267 -0.105772
C34   C     C_3   0.733210 0.733197 0.668253 -0.105202
C35   C     C_3   0.266737 0.733333 0.331968 -0.105177
C36   C     C_3   0.677035 0.322935 0.748830 -0.105790
C37   C     C_3   0.677103 0.677102 0.251269 -0.105799
C38   C     C_3   0.266804 0.266815 0.668278 -0.105196
C39   C     C_3   0.733312 0.266719 0.331965 -0.105167
C40   C     C_3   0.322915 0.677017 0.748830 -0.105805
C41   C     C_3   0.822897 0.822903 0.751263 -0.105752
C42   C     C_3   0.233203 0.233196 0.168259 -0.105218
C43   C     C_3   0.766722 0.233309 0.831958 -0.105167
C44   C     C_3   0.177016 0.822921 0.248835 -0.105800
C45   C     C_3   0.177109 0.177104 0.751274 -0.105819
C46   C     C_3   0.766805 0.766805 0.168271 -0.105179
C47   C     C_3   0.233334 0.766747 0.831960 -0.105186
C48   C     C_3   0.822940 0.177033 0.248835 -0.105786
C49   C     C_R   0.365143 0.634810 0.690041 0.110367
C50   C     C_R   0.680804 0.319215 0.371108 0.186692
C51   C     C_R   0.680711 0.680704 0.629118 0.186512
C52   C     C_R   0.365155 0.365161 0.309976 0.110310
C53   C     C_R   0.634821 0.365157 0.690042 0.110371
C54   C     C_R   0.319225 0.680815 0.371110 0.186686
C55   C     C_R   0.319299 0.319305 0.629144 0.186451
C56   C     C_R   0.634840 0.634838 0.309974 0.110319
C57   C     C_R   0.865160 0.134820 0.190044 0.110364
C58   C     C_R   0.180816 0.819232 0.871103 0.186680
C59   C     C_R   0.180707 0.180703 0.129124 0.186514
C60   C     C_R   0.865158 0.865162 0.809974 0.110298
C61   C     C_R   0.134809 0.865147 0.190044 0.110364
C62   C     C_R   0.819218 0.180801 0.871102 0.186687
C63   C     C_R   0.819299 0.819300 0.129138 0.186450
C64   C     C_R   0.134843 0.134840 0.809976 0.110330
C65   C     C_3   0.794135 0.702679 0.726166 -0.373849
C66   C     C_3   0.262037 0.353780 0.193392 -0.360769
C67   C     C_3   0.646139 0.261910 0.806519 -0.361205
C68   C     C_3   0.297255 0.794707 0.274521 -0.374488
C69   C     C_3   0.205890 0.297330 0.726204 -0.373755
C70   C     C_3   0.737909 0.646223 0.193341 -0.360714
C71   C     C_3   0.353872 0.737137 0.807408 -0.359735
C72   C     C_3   0.702749 0.206154 0.273710 -0.373425
C73   C     C_3   0.794361 0.297254 0.274188 -0.374040
C74   C     C_3   0.261514 0.646150 0.806145 -0.361719
C75   C     C_3   0.646223 0.737915 0.193350 -0.360811
C76   C     C_3   0.297326 0.206038 0.726341 -0.373683
C77   C     C_3   0.206502 0.702755 0.273384 -0.372929
C78   C     C_3   0.737535 0.353866 0.807035 -0.360326
C79   C     C_3   0.353782 0.262148 0.193292 -0.360719
C80   C     C_3   0.702682 0.793954 0.726333 -0.373708
C81   C     C_3   0.294095 0.202677 0.226205 -0.373812
C82   C     C_3   0.762009 0.853782 0.693420 -0.360848
C83   C     C_3   0.146142 0.761589 0.306217 -0.361728
C84   C     C_3   0.797258 0.294376 0.774202 -0.374077
C85   C     C_3   0.705964 0.797323 0.226270 -0.373695
C86   C     C_3   0.237988 0.146230 0.693420 -0.360809
C87   C     C_3   0.853872 0.237552 0.307020 -0.360388
C88   C     C_3   0.202752 0.706579 0.773310 -0.372901
C89   C     C_3   0.294776 0.797260 0.774579 -0.374496
C90   C     C_3   0.761934 0.146136 0.306545 -0.361136
C91   C     C_3   0.146225 0.237845 0.693283 -0.360702
C92   C     C_3   0.797325 0.705956 0.226260 -0.373747
C93   C     C_3   0.706177 0.202746 0.773683 -0.373387
C94   C     C_3   0.237203 0.853873 0.307348 -0.359747
C95   C     C_3   0.853787 0.762184 0.693253 -0.360653
C96   C     C_3   0.202676 0.293986 0.226306 -0.373744
C97   C     C_3   0.264017 0.263919 0.283251 0.928211
C98   C     C_3   0.791536 0.791699 0.635198 0.951689
C99   C     C_3   0.207698 0.791177 0.364946 0.951612
C100  C     C_3   0.736261 0.264251 0.716929 0.928206
C101  C     C_3   0.736033 0.736023 0.283258 0.928280
C102  C     C_3   0.208466 0.208334 0.635216 0.951538
C103  C     C_3   0.791502 0.208022 0.364946 0.951637
C104  C     C_3   0.264621 0.736631 0.716931 0.928164
C105  C     C_3   0.764054 0.763888 0.783244 0.928201
C106  C     C_3   0.291563 0.291664 0.135204 0.951703
C107  C     C_3   0.708006 0.291477 0.864940 0.951633
C108  C     C_3   0.236561 0.764558 0.216939 0.928177
C109  C     C_3   0.235963 0.236100 0.783265 0.928290
C110  C     C_3   0.708391 0.708399 0.135210 0.951526
C111  C     C_3   0.291108 0.707639 0.864940 0.951605
C112  C     C_3   0.764235 0.236239 0.216935 0.928196
H1    H     H_    0.456682 0.720604 0.661360 0.099711
H2    H     H_    0.577741 0.245649 0.391578 0.110338
H3    H     H_    0.754320 0.577689 0.608559 0.110259
H4    H     H_    0.279365 0.456715 0.338690 0.099669
H5    H     H_    0.543333 0.279337 0.661299 0.099681
H6    H     H_    0.422315 0.754339 0.391554 0.110097
H7    H     H_    0.245682 0.422310 0.608572 0.110153
H8    H     H_    0.720638 0.543296 0.338685 0.099702
H9    H     H_    0.456708 0.279368 0.338683 0.099681
H10   H     H_    0.577701 0.754321 0.608554 0.110371
H11   H     H_    0.754345 0.422292 0.391562 0.110176
H12   H     H_    0.279313 0.543342 0.661273 0.099682
H13   H     H_    0.543303 0.720641 0.338686 0.099712
H14   H     H_    0.422300 0.245681 0.608569 0.110259
H15   H     H_    0.245641 0.577764 0.391590 0.110405
H16   H     H_    0.720628 0.456673 0.661335 0.099707
H17   H     H_    0.956676 0.220626 0.161335 0.099697
H18   H     H_    0.077769 0.745642 0.891588 0.110468
H19   H     H_    0.254319 0.077688 0.108562 0.110301
H20   H     H_    0.779362 0.956708 0.838690 0.099673
H21   H     H_    0.043337 0.779320 0.161279 0.099678
H22   H     H_    0.922294 0.254343 0.891558 0.110195
H23   H     H_    0.745680 0.922304 0.108568 0.110225
H24   H     H_    0.220648 0.043308 0.838692 0.099716
H25   H     H_    0.956719 0.779376 0.838679 0.099666
H26   H     H_    0.077698 0.254320 0.108556 0.110316
H27   H     H_    0.254337 0.922322 0.891547 0.110042
H28   H     H_    0.779339 0.043333 0.161303 0.099688
H29   H     H_    0.043298 0.220636 0.838684 0.099706
H30   H     H_    0.922302 0.745680 0.108565 0.110204
H31   H     H_    0.745648 0.077741 0.891575 0.110311
H32   H     H_    0.220609 0.956679 0.161357 0.099718
H33   H     H_    0.805632 0.640428 0.740174 0.174514
H34   H     H_    0.251037 0.416287 0.180227 0.184680
H35   H     H_    0.583620 0.250746 0.819484 0.184611
H36   H     H_    0.359517 0.806642 0.260923 0.174367
H37   H     H_    0.194409 0.359580 0.740227 0.174512
H38   H     H_    0.748862 0.583717 0.180130 0.184771
H39   H     H_    0.416379 0.747507 0.821072 0.184984
H40   H     H_    0.640498 0.194939 0.259480 0.174588
H41   H     H_    0.806007 0.359511 0.260331 0.174453
H42   H     H_    0.250020 0.583626 0.818813 0.184483
H43   H     H_    0.583716 0.748873 0.180146 0.184799
H44   H     H_    0.359575 0.194679 0.740471 0.174543
H45   H     H_    0.195579 0.640510 0.258900 0.174671
H46   H     H_    0.748239 0.416377 0.820408 0.184866
H47   H     H_    0.416289 0.251241 0.180047 0.184752
H48   H     H_    0.640432 0.805302 0.740472 0.174558
H49   H     H_    0.305564 0.140427 0.240241 0.174537
H50   H     H_    0.750981 0.916290 0.680280 0.184688
H51   H     H_    0.083618 0.750155 0.318938 0.184485
H52   H     H_    0.859515 0.306038 0.760360 0.174455
H53   H     H_    0.694546 0.859572 0.240349 0.174537
H54   H     H_    0.249004 0.083723 0.680267 0.184794
H55   H     H_    0.916385 0.248272 0.320377 0.184819
H56   H     H_    0.140507 0.695718 0.758773 0.174683
H57   H     H_    0.306771 0.859522 0.761033 0.174350
H58   H     H_    0.750787 0.083618 0.319526 0.184651
H59   H     H_    0.083719 0.248740 0.680023 0.184805
H60   H     H_    0.859575 0.694533 0.240333 0.174515
H61   H     H_    0.694979 0.140497 0.759436 0.174587
H62   H     H_    0.247633 0.916380 0.320961 0.184998
H63   H     H_    0.916294 0.751305 0.679982 0.184713
H64   H     H_    0.140426 0.305361 0.240420 0.174538
N1    N     N_R   0.424590 0.632770 0.578330 -0.046510
N2    N     N_R   0.575410 0.367230 0.421670 -0.055186
N3    N     N_R   0.632770 0.575410 0.578330 -0.055179
N4    N     N_R   0.367230 0.424590 0.421670 -0.046507
N5    N     N_R   0.575410 0.367230 0.578330 -0.046554
N6    N     N_R   0.424590 0.632770 0.421670 -0.055191
N7    N     N_R   0.367230 0.424590 0.578330 -0.055125
N8    N     N_R   0.632770 0.575410 0.421670 -0.046516
N9    N     N_R   0.424590 0.367230 0.421670 -0.046501
N10   N     N_R   0.575410 0.632770 0.578330 -0.055199
N11   N     N_R   0.632770 0.424590 0.421670 -0.055186
N12   N     N_R   0.367230 0.575410 0.578330 -0.046579
N13   N     N_R   0.575410 0.632770 0.421670 -0.046517
N14   N     N_R   0.424590 0.367230 0.578330 -0.055147
N15   N     N_R   0.367230 0.575410 0.421670 -0.055175
N16   N     N_R   0.632770 0.424590 0.578330 -0.046531
N17   N     N_R   0.924590 0.132770 0.078330 -0.046528
N18   N     N_R   0.075410 0.867230 0.921670 -0.055188
N19   N     N_R   0.132770 0.075410 0.078330 -0.055191
N20   N     N_R   0.867230 0.924590 0.921670 -0.046514
N21   N     N_R   0.075410 0.867230 0.078330 -0.046568
N22   N     N_R   0.924590 0.132770 0.921670 -0.055190
N23   N     N_R   0.867230 0.924590 0.078330 -0.055145
N24   N     N_R   0.132770 0.075410 0.921670 -0.046529
N25   N     N_R   0.924590 0.867230 0.921670 -0.046492
N26   N     N_R   0.075410 0.132770 0.078330 -0.055181
N27   N     N_R   0.132770 0.924590 0.921670 -0.055183
N28   N     N_R   0.867230 0.075410 0.078330 -0.046555
N29   N     N_R   0.075410 0.132770 0.921670 -0.046507
N30   N     N_R   0.924590 0.867230 0.078330 -0.055135
N31   N     N_R   0.867230 0.075410 0.921670 -0.055178
N32   N     N_R   0.132770 0.924590 0.078330 -0.046520
Ni1   Ni    Ni4+2 0.500000 0.631570 0.500000 0.240979
Ni2   Ni    Ni4+2 0.500000 0.368430 0.500000 0.240872
Ni3   Ni    Ni4+2 0.631570 0.500000 0.500000 0.240897
Ni4   Ni    Ni4+2 0.368430 0.500000 0.500000 0.240766
Ni5   Ni    Ni4+2 0.000000 0.131570 0.000000 0.240937
Ni6   Ni    Ni4+2 0.000000 0.868430 0.000000 0.240844
Ni7   Ni    Ni4+2 0.131570 0.000000 0.000000 0.240913
Ni8   Ni    Ni4+2 0.868430 0.000000 0.000000 0.240824
F1    F     F_    0.250320 0.250119 0.361184 -0.656366
F2    F     F_    0.803605 0.803937 0.556850 -0.642250
F3    F     F_    0.194907 0.802818 0.443273 -0.642370
F4    F     F_    0.750327 0.250713 0.639016 -0.656410
F5    F     F_    0.749779 0.749760 0.361194 -0.656286
F6    F     F_    0.196393 0.196123 0.556866 -0.642389
F7    F     F_    0.803475 0.195562 0.443274 -0.642357
F8    F     F_    0.251461 0.751074 0.639019 -0.656421
F9    F     F_    0.750389 0.750054 0.861178 -0.656374
F10   F     F_    0.303665 0.303868 0.056856 -0.642232
F11   F     F_    0.695527 0.303428 0.943268 -0.642369
F12   F     F_    0.250939 0.751329 0.139027 -0.656421
F13   F     F_    0.249635 0.249909 0.861201 -0.656275
F14   F     F_    0.696244 0.696261 0.056859 -0.642405
F15   F     F_    0.302680 0.694783 0.943267 -0.642363
F16   F     F_    0.750674 0.250286 0.139021 -0.656414

loop_
_geom_bond_atom_site_label_1
_geom_bond_atom_site_label_2
_ccdc_geom_bond_type
C40   C104  S    
C72   C112  S    
C19   N19   A    
N24   N29   A    
C40   C71   S    
N3    Ni3   S    
C18   N18   A    
C111  F15   S    
C17   N17   A    
C70   H38   S    
C7    C55   A    
C44   C83   S    
C8    C56   A    
C1    N1    A    
C2    C50   A    
C12   C49   A    
C36   C67   S    
C29   N29   A    
C48   C57   S    
N19   N26   A    
C38   C76   S    
C28   C57   A    
C33   C52   S    
C42   C81   S    
N2    Ni2   S    
C34   C51   S    
N17   N28   A    
C41   C105  S    
C22   H22   S    
C102  F6    S    
C27   N27   A    
C94   C99   S    
N27   Ni7   S    
C85   H53   S    
C26   N26   A    
C20   H20   S    
C32   C61   A    
C25   N25   A    
C79   H47   S    
N20   Ni8   S    
N5    N16   A    
C45   C109  S    
C80   H48   S    
C46   C92   S    
C68   H36   S    
C41   C82   S    
C9    N9    A    
C101  F5    S    
C40   C49   S    
C30   N30   A    
C23   N23   A    
N24   Ni7   S    
C13   N13   A    
C74   H42   S    
N1    Ni1   S    
N4    Ni4   S    
C95   H63   S    
C16   C53   A    
C73   C87   S    
C3    N3    A    
C36   C53   S    
C110  F14   S    
C34   C98   S    
C37   C56   S    
C69   C109  S    
C75   C85   S    
C87   H55   S    
C38   C55   S    
C30   C63   A    
C76   C109  S    
C88   H56   S    
C107  F11   S    
N23   N30   A    
C9    H9    S    
C39   C72   S    
C106  F10   S    
C25   C60   A    
C105  F9    S    
C32   N32   A    
C70   C110  S    
C26   C59   A    
C99   F3    S    
C72   H40   S    
N19   Ni7   S    
C84   H52   S    
N15   Ni4   S    
C13   C56   A    
C34   C80   S    
C8    N8    A    
C23   C63   A    
C14   C55   A    
C37   C75   S    
C38   C69   S    
N29   Ni5   S    
C24   C64   A    
C48   C90   S    
C37   C70   S    
C11   N11   A    
C35   C54   S    
C2    N2    A    
C43   C84   S    
C47   C89   S    
C31   C62   A    
N30   Ni6   S    
C9    C52   A    
C1    H1    S    
C4    N4    A    
C35   C99   S    
C10   C51   A    
C34   C65   S    
C5    N5    A    
N25   Ni6   S    
C88   C104  S    
C78   H46   S    
C33   C66   S    
C4    C52   A    
C44   C108  S    
C77   H45   S    
C19   H19   S    
C66   C106  S    
C71   H39   S    
C95   C98   S    
C32   H32   S    
C12   H12   S    
C82   C98   S    
C17   H17   S    
N23   Ni8   S    
C84   C100  S    
C15   C54   A    
C7    H7    S    
C14   N14   A    
C15   H15   S    
C20   N20   A    
C80   C82   S    
C70   C92   S    
C74   C111  S    
N3    N10   A    
C3    C51   A    
C112  F16   S    
C33   C79   S    
C82   H50   S    
C19   C59   A    
N7    Ni4   S    
C80   C105  S    
C35   C77   S    
N6    Ni1   S    
C27   H27   S    
C79   C106  S    
C5    H5    S    
N5    Ni2   S    
C28   N28   A    
C25   H25   S    
C22   C62   A    
C3    H3    S    
N16   Ni3   S    
C31   N31   A    
C10   N10   A    
C24   H24   S    
C71   C111  S    
C72   C90   S    
C71   C89   S    
N12   Ni4   S    
C29   H29   S    
C96   C97   S    
C90   H58   S    
C21   H21   S    
C93   H61   S    
C48   C87   S    
C109  F13   S    
C36   C100  S    
C43   C107  S    
N17   Ni5   S    
N1    N12   A    
C93   C100  S    
C24   N24   A    
C92   C101  S    
C94   H62   S    
C87   C103  S    
N2    N11   A    
C81   H49   S    
C48   C112  S    
C6    N6    A    
C6    C54   A    
N32   Ni7   S    
C98   F2    S    
C89   C104  S    
C67   H35   S    
C97   F1    S    
C18   H18   S    
C20   C60   A    
N6    N15   A    
C91   C102  S    
C65   H33   S    
C86   C102  S    
N7    N14   A    
C76   C86   S    
C66   H34   S    
C85   C101  S    
C8    H8    S    
N8    Ni3   S    
C66   C96   S    
C5    C53   A    
C73   C112  S    
C83   H51   S    
C16   N16   A    
C75   C110  S    
C96   H64   S    
C16   H16   S    
C76   H44   S    
N22   N31   A    
N9    Ni2   S    
C21   C61   A    
C22   N22   A    
C77   C108  S    
C11   H11   S    
C18   C58   A    
C41   C60   S    
N11   Ni3   S    
C28   H28   S    
C26   H26   S    
C27   C58   A    
C14   H14   S    
C42   C59   S    
N18   Ni6   S    
C103  F7    S    
C65   C105  S    
C75   H43   S    
C39   C103  S    
C36   C78   S    
C91   H59   S    
C44   C61   S    
C108  F12   S    
C15   N15   A    
N28   Ni8   S    
C45   C64   S    
C79   C81   S    
C30   H30   S    
C23   H23   S    
C46   C63   S    
C42   C96   S    
C69   H37   S    
C47   C88   S    
C46   C85   S    
C46   C110  S    
C45   C86   S    
N14   Ni2   S    
C4    H4    S    
C38   C102  S    
C11   C50   A    
N13   Ni1   S    
C47   C58   S    
C37   C101  S    
C2    H2    S    
C67   C107  S    
C41   C95   S    
C81   C97   S    
C35   C68   S    
C92   H60   S    
C47   C111  S    
N18   N27   A    
C21   N21   A    
N31   Ni8   S    
C43   C93   S    
C40   C74   S    
C33   C97   S    
C7    N7    A    
C39   C73   S    
N26   Ni5   S    
C31   H31   S    
C45   C91   S    
C68   C94   S    
C90   C103  S    
C29   C64   A    
C44   C94   S    
N4    N9    A    
C89   H57   S    
C42   C106  S    
C78   C84   S    
C10   H10   S    
C65   C95   S    
C39   C50   S    
C104  F8    S    
C86   H54   S    
C100  F4    S    
N10   Ni1   S    
C73   H41   S    
C67   C93   S    
C77   C83   S    
N8    N13   A    
C78   C107  S    
N21   N32   A    
C83   C99   S    
C68   C108  S    
C74   C88   S    
N20   N25   A    
C69   C91   S    
N22   Ni5   S    
C1    C49   A    
C13   H13   S    
C6    H6    S    
N21   Ni6   S    
C43   C62   S    
C17   C57   A    
C12   N12   A    
