data_mof_unit_35207.cif
_audit_creation_date              2013-03-05T15:41:38-0500
_audit_creation_method            fapswitch 2.2
_symmetry_space_group_name_H-M    P1
_symmetry_Int_Tables_number       1
_space_group_crystal_system       triclinic
_cell_length_a                    7.808167
_cell_length_b                    8.570598
_cell_length_c                    15.725604
_cell_angle_alpha                 91.364051
_cell_angle_beta                  85.50438
_cell_angle_gamma                 93.561339
_cell_volume                      1046.91436873

loop_
_atom_site_label
_atom_site_type_symbol
_atom_site_description
_atom_site_fract_x
_atom_site_fract_y
_atom_site_fract_z
_atom_type_partial_charge
O1    O     O_R   0.389240 0.738570 0.505550 -0.636077
O2    O     O_R   0.678400 0.711630 0.491050 -0.600391
C1    C     C_R   0.545839 0.794550 0.502129 0.839236
O3    O     O_R   0.355360 0.513470 0.630110 -0.598293
O4    O     O_R   0.644510 0.486530 0.615610 -0.610736
C2    C     C_R   0.501473 0.499829 0.661437 0.878844
Zn1   Zn    Zn3+2 0.306930 0.517990 0.509680 1.096410
Zn2   Zn    Zn3+2 0.693070 0.482010 0.490320 1.123776
O5    O     O_R   0.321600 0.288370 0.508950 -0.561561
O6    O     O_R   0.610760 0.261430 0.494450 -0.560802
O7    O     O_R   0.355490 0.513470 0.384390 -0.575928
O8    O     O_R   0.644640 0.486530 0.369890 -0.587001
C3    C     C_R   0.455111 0.205969 0.506578 0.982333
C4    C     C_R   0.498480 0.499592 0.338557 0.892320
C5    C     C_3   0.369004 0.597830 0.957796 -0.325149
C6    C     C_3   0.687688 0.547685 0.945604 0.422146
C7    C     C_3   0.685694 0.520642 0.044229 -0.484191
H1    H     H_    0.441958 0.725998 0.071610 0.263005
H2    H     H_    0.388463 0.716924 0.930670 0.250006
H3    H     H_    0.743137 0.622219 0.079270 0.237824
H4    H     H_    0.769796 0.426127 0.057243 0.269081
C8    C     C_1   0.494701 0.494190 0.249914 -0.045652
C9    C     C_3   0.503808 0.487038 0.916863 -0.111723
C10   C     C_3   0.383791 0.608563 0.054753 -0.389629
C11   C     C_3   0.498762 0.480123 0.082832 -0.032360
C12   C     C_3   0.433402 0.312628 0.049544 0.399194
C13   C     C_3   0.452256 0.315508 0.948725 -0.019844
C14   C     C_1   0.494844 0.487680 0.174622 0.094128
C15   C     C_1   0.504933 0.491509 0.825166 0.130558
C16   C     C_1   0.504242 0.495668 0.749991 0.007327
H5    H     H_    0.560046 0.243962 0.925794 0.193443
H6    H     H_    0.236314 0.555771 0.944644 0.278639
H7    H     H_    0.253742 0.600969 0.089113 0.239296
C17   C     C_2   0.569454 0.956813 0.518921 0.130139
C18   C     C_2   0.433198 0.042336 0.510477 -0.425666
H8    H     H_    0.308282 0.991621 0.494504 0.209694
N1    N     N_2   0.950340 0.457950 0.477370 0.108822
N2    N     N_2   0.049660 0.542050 0.522630 -0.093132
H9    H     H_    0.987031 0.618928 0.563634 0.192727
N3    N     N_R   0.537644 0.186280 0.076841 0.217898
O9    O     O_R   0.507078 0.044444 0.048090 -0.292339
O10   O     O_R   0.640730 0.206726 0.137857 -0.333659
N4    N     N_R   0.727328 0.018061 0.552780 0.243561
O11   O     O_R   0.875435 0.976575 0.518880 -0.336416
O12   O     O_R   0.721795 0.099683 0.623727 -0.326096
Cl1   Cl    Cl    0.038735 0.323855 0.406015 -0.359518
N5    N     N_R   0.827200 0.461290 0.900053 0.198164
O13   O     O_R   0.936607 0.531413 0.844612 -0.291697
O14   O     O_R   0.850702 0.317008 0.917854 -0.290759
N6    N     N_R   0.719198 0.717013 0.926211 0.233594
O15   O     O_R   0.759010 0.820842 0.984352 -0.285480
O16   O     O_R   0.716704 0.764370 0.848258 -0.316842
N7    N     N_R   0.301517 0.237155 0.910839 0.267369
O17   O     O_R   0.207175 0.309400 0.861722 -0.279833
O18   O     O_R   0.268464 0.087976 0.921796 -0.253717
N8    N     N_R   0.252725 0.277615 0.083448 0.239429
O19   O     O_R   0.125068 0.343940 0.053560 -0.337930
O20   O     O_R   0.219404 0.185767 0.148232 -0.276542

loop_
_geom_bond_atom_site_label_1
_geom_bond_atom_site_label_2
_geom_bond_distance
_ccdc_geom_bond_type
O4    Zn2   1.976934 S    
N6    O16   1.302408 A    
N4    O11   1.301306 A    
C13   N7    1.477811 S    
N1    N2    1.272862 D    
C9    C13   1.582484 S    
N8    O20   1.302470 A    
C10   H7    1.111204 S    
Zn2   O8    1.961807 S    
C7    C11   1.558106 S    
C4    C8    1.396191 S    
N3    O10   1.301840 A    
O2    C1    1.289952 A    
C11   C12   1.584392 S    
C5    H6    1.108956 S    
N5    O14   1.301500 A    
C8    C14   1.183916 T    
N7    O17   1.300483 A    
C10   C11   1.555854 S    
C11   C14   1.441384 S    
Zn1   O7    1.976934 S    
N4    O12   1.301923 A    
C12   N3    1.485193 S    
C12   C13   1.581357 S    
C15   C16   1.184012 T    
O3    Zn1   1.961809 S    
H1    C10   1.113081 S    
C9    C15   1.442733 S    
C6    N5    1.483459 S    
C5    C9    1.553299 S    
C5    C10   1.538221 S    
C2    C16   1.395767 S    
Zn1   N2    2.025989 S    
O8    C4    1.290117 A    
C3    C18   1.404452 S    
C6    C9    1.591764 S    
N7    O18   1.301351 A    
O4    C2    1.290515 A    
O7    C4    1.290908 A    
O2    Zn2   1.978112 S    
Zn2   N1    2.025989 S    
C13   H5    1.104723 S    
N5    O13   1.302110 A    
C7    H3    1.109103 S    
N2    H9    1.029281 S    
N8    O19   1.301595 A    
O3    C2    1.290491 A    
C17   C18   1.345536 D    
Zn1   O5    1.978111 S    
O5    C3    1.292681 A    
N3    O9    1.301464 A    
O1    Zn1   1.959496 S    
C1    C17   1.412817 S    
N6    O15   1.302262 A    
N1    Cl1   1.723964 S    
C5    H2    1.112745 S    
Zn2   O6    1.959496 S    
C7    H4    1.106501 S    
C17   N4    1.444933 S    
C18   H8    1.088066 S    
C6    N6    1.491509 S    
C6    C7    1.572336 S    
O1    C1    1.283057 A    
O6    C3    1.278892 A    
C12   N8    1.483799 S    
