data_mof_unit_63544.cif
_audit_creation_date              2012-12-10T17:05:04-0500
_audit_creation_method            fapswitch 2.2
_symmetry_space_group_name_H-M    P1
_symmetry_Int_Tables_number       1
_space_group_crystal_system       triclinic
_cell_length_a                    15.10211
_cell_length_b                    15.120406
_cell_length_c                    19.374735
_cell_angle_alpha                 89.125489
_cell_angle_beta                  91.056826
_cell_angle_gamma                 90.337746
_cell_volume                      4422.88386137

loop_
_atom_site_label
_atom_site_type_symbol
_atom_type_description
_atom_site_fract_x
_atom_site_fract_y
_atom_site_fract_z
_atom_type_partial_charge
C1    C     C_R   0.486294 0.260195 0.510652 0.911092
C2    C     C_2   0.509086 0.467163 0.019781 0.388524
C3    C     C_2   0.470226 0.533310 0.983391 0.118314
C4    C     C_R   0.514706 0.739584 0.489441 0.962197
C5    C     C_R   0.482677 0.519981 0.763796 -0.247881
C6    C     C_R   0.485676 0.163938 0.518115 -0.223819
C7    C     C_R   0.520735 0.835464 0.483577 -0.263956
C8    C     C_R   0.537711 0.966772 0.411124 0.412398
C9    C     C_R   0.540281 0.874708 0.419489 0.264027
C10   C     C_R   0.504278 0.887470 0.541113 0.332105
C11   C     C_R   0.500859 0.979937 0.533216 -0.090537
C12   C     C_R   0.513720 0.469663 0.095016 -0.149551
C13   C     C_R   0.510971 0.020011 0.466734 -0.155210
C14   C     C_R   0.494559 0.111785 0.459113 0.380695
C15   C     C_R   0.482694 0.124206 0.584012 0.323432
C16   C     C_R   0.259980 0.512177 0.488041 0.941570
C17   C     C_R   0.486965 0.033040 0.590774 -0.083429
C18   C     C_R   0.163523 0.510018 0.478941 -0.295214
C19   C     C_R   0.835100 0.480716 0.516769 -0.234252
C20   C     C_R   0.967720 0.453477 0.585386 0.453912
C21   C     C_R   0.875464 0.449596 0.577997 0.034642
C22   C     C_R   0.885461 0.504736 0.459343 0.397992
C23   C     C_R   0.579904 0.519235 0.129071 0.382244
C24   C     C_R   0.978600 0.497670 0.463369 -0.198222
C25   C     C_R   0.019341 0.485124 0.529659 -0.172710
C26   C     C_R   0.110494 0.503204 0.537439 0.386409
C27   C     C_R   0.124955 0.506098 0.412350 0.273018
C28   C     C_R   0.739339 0.486217 0.511952 0.914344
C29   C     C_R   0.032651 0.502073 0.404223 0.425164
C30   C     C_R   0.489754 0.511550 0.687976 0.901640
C31   C     C_R   0.509470 0.489341 0.312910 0.977696
C32   C     C_R   0.511365 0.482850 0.238252 -0.268996
C33   C     C_R   0.446892 0.431684 0.203882 0.369916
C34   C     C_R   0.578586 0.526022 0.201112 0.299971
C35   C     C_R   0.448416 0.425383 0.132417 -0.153431
C36   C     C_R   0.548988 0.556360 0.875214 -0.158658
C37   C     C_R   0.556104 0.549944 0.804109 0.164787
C38   C     C_R   0.401840 0.499397 0.797427 0.323113
C39   C     C_R   0.396711 0.505354 0.869497 0.386405
C40   C     C_R   0.470813 0.533181 0.907936 -0.075283
Cl1   Cl    Cl    0.363457 0.374541 0.249032 -0.408504
Cl2   Cl    Cl    0.016675 0.403248 0.659845 -0.348069
Cl3   Cl    Cl    0.989538 0.485201 0.319677 -0.299359
Cl4   Cl    Cl    0.830232 0.558548 0.388833 -0.397479
Cl5   Cl    Cl    0.304453 0.468753 0.751275 -0.317744
Cl6   Cl    Cl    0.663372 0.573557 0.081422 -0.385860
Cl7   Cl    Cl    0.660114 0.589577 0.244666 -0.336318
Cl8   Cl    Cl    0.555250 0.374530 0.979566 -0.424443
Cl9   Cl    Cl    0.298126 0.475457 0.912169 -0.371331
Cl10  Cl    Cl    0.467080 0.161139 0.377756 -0.407845
Cl11  Cl    Cl    0.475933 0.185943 0.660313 -0.461954
Cl12  Cl    Cl    0.581816 0.011842 0.334015 -0.317622
Cl13  Cl    Cl    0.571591 0.807899 0.349607 -0.385118
Cl14  Cl    Cl    0.481378 0.835371 0.621767 -0.523007
Cl15  Cl    Cl    0.156206 0.537121 0.617902 -0.392123
Cl16  Cl    Cl    0.191931 0.502907 0.338171 -0.376426
H1    H     H_    0.482305 0.004835 0.642209 0.242758
H2    H     H_    0.605846 0.577582 0.905803 0.223337
H3    H     H_    0.397780 0.387162 0.105757 0.234952
I1    I     I_    0.683649 0.584215 0.766381 -0.052238
I2    I     I_    0.796043 0.393400 0.658228 -0.083108
I3    I     I_    0.410393 0.643663 0.030716 -0.036939
O1    O     O_3   0.500000 0.500000 0.500000 -0.573517
O2    O     O_R   0.437070 0.459640 0.654640 -0.569651
O3    O     O_R   0.556790 0.436390 0.349710 -0.591400
O4    O     O_R   0.547170 0.557950 0.655150 -0.620323
O5    O     O_R   0.458970 0.546010 0.340500 -0.591593
O6    O     O_R   0.306870 0.560460 0.447950 -0.599009
O7    O     O_R   0.697260 0.434930 0.470830 -0.605752
O8    O     O_R   0.434240 0.306870 0.546470 -0.590454
O9    O     O_R   0.561630 0.697750 0.534750 -0.594554
O10   O     O_R   0.542340 0.296600 0.470110 -0.608584
O11   O     O_R   0.461800 0.698790 0.448670 -0.609932
O12   O     O_R   0.296600 0.461110 0.533510 -0.591603
O13   O     O_R   0.699270 0.543500 0.547710 -0.620321
Zn1   Zn    Zn3+2 0.433070 0.575010 0.435400 1.120364
Zn2   Zn    Zn3+2 0.418400 0.433070 0.557650 1.124289
Zn3   Zn    Zn3+2 0.575700 0.573520 0.558390 1.082570
Zn4   Zn    Zn3+2 0.572830 0.418400 0.448560 1.109449

loop_
_geom_bond_atom_site_label_1
_geom_bond_atom_site_label_2
_ccdc_geom_bond_type
C7    C10   A    
C8    C13   A    
O3    Zn4   S    
C30   O2    A    
C27   C29   A    
O2    Zn2   S    
C28   O7    A    
C18   C26   A    
C2    C12   S    
C26   Cl15  S    
O1    Zn4   S    
C31   O5    A    
C12   C23   A    
C16   O12   A    
C35   H3    S    
C36   C37   A    
C19   C21   A    
O10   Zn4   S    
C36   H2    S    
C38   C39   A    
C20   C25   A    
C7    C9    A    
C24   C29   A    
C5    C37   A    
C38   Cl5   S    
C6    C15   A    
C22   Cl4   S    
C8    C9    A    
O12   Zn2   S    
C16   O6    A    
C15   Cl11  S    
C8    Cl12  S    
C21   I2    S    
C23   Cl6   S    
C5    C38   A    
C29   Cl3   S    
O8    Zn2   S    
C4    C7    S    
O4    Zn3   S    
C1    O10   A    
C1    C6    S    
C36   C40   A    
C19   C22   A    
C24   C25   A    
C39   C40   A    
C31   O3    A    
C27   Cl16  S    
C2    Cl8   S    
C25   C26   A    
C32   C34   A    
C6    C14   A    
C31   C32   S    
C23   C34   A    
C12   C35   A    
C19   C28   S    
C4    O11   A    
C30   O4    A    
C39   Cl9   S    
C3    C40   S    
O11   Zn1   S    
C22   C24   A    
O7    Zn4   S    
C9    Cl13  S    
C5    C30   S    
O1    Zn2   S    
C3    I3    S    
C15   C17   A    
C11   C17   A    
C18   C27   A    
C20   Cl2   S    
C34   Cl7   S    
O6    Zn1   S    
C1    O8    A    
C33   Cl1   S    
C32   C33   A    
C2    C3    D    
C11   C13   A    
C14   Cl10  S    
C33   C35   A    
C4    O9    A    
C10   Cl14  S    
O13   Zn3   S    
C37   I1    S    
C10   C11   A    
C20   C21   A    
C16   C18   S    
O1    Zn1   S    
O5    Zn1   S    
C13   C14   A    
C28   O13   A    
O9    Zn3   S    
C17   H1    S    
O1    Zn3   S    
