data_mof_unit_35107.cif
_audit_creation_date              2012-12-10T21:00:49-0500
_audit_creation_method            fapswitch 2.2
_symmetry_space_group_name_H-M    P1
_symmetry_Int_Tables_number       1
_space_group_crystal_system       triclinic
_cell_length_a                    18.116701
_cell_length_b                    18.07421
_cell_length_c                    18.365995
_cell_angle_alpha                 119.866133
_cell_angle_beta                  89.982435
_cell_angle_gamma                 119.59659
_cell_volume                      4287.35057913

loop_
_atom_site_label
_atom_site_type_symbol
_atom_type_description
_atom_site_fract_x
_atom_site_fract_y
_atom_site_fract_z
_atom_type_partial_charge
C1    C     C_R   0.109508 0.220250 0.610006 0.501795
C2    C     C_3   0.449384 0.897120 0.947217 0.062849
C3    C     C_3   0.843698 0.081985 0.110816 -0.323657
C4    C     C_3   0.934057 0.722626 0.876213 -0.415465
C5    C     C_3   0.061622 0.273175 0.122091 -0.415074
C6    C     C_3   0.016076 0.693763 0.124572 -0.365522
C7    C     C_3   0.984013 0.305990 0.875300 -0.363109
C8    C     C_3   0.973950 0.357112 0.320142 -0.382044
C9    C     C_3   0.025495 0.642007 0.679712 -0.381837
C10   C     C_3   0.442366 0.067729 0.150204 -0.406126
C11   C     C_3   0.557607 0.932179 0.849660 -0.406249
C12   C     C_3   0.389098 0.277857 0.514223 -0.304750
C13   C     C_3   0.473109 0.031531 0.069940 0.005236
C14   C     C_3   0.607686 0.776105 0.613133 -0.319249
C15   C     C_3   0.526768 0.968436 0.929878 0.006792
C16   C     C_3   0.443633 0.404358 0.477091 0.145952
C17   C     C_3   0.556045 0.594593 0.522915 0.143008
C18   C     C_3   0.546420 0.463052 0.509678 -0.148695
C19   C     C_3   0.453317 0.535695 0.489878 -0.120796
C20   C     C_3   0.550531 0.499304 0.448516 0.049004
C21   C     C_3   0.449161 0.499765 0.551351 0.067375
C22   C     C_3   0.447213 0.438078 0.414320 -0.126427
C23   C     C_R   0.890096 0.779780 0.389855 0.515829
C24   C     C_3   0.552658 0.560897 0.585627 -0.133993
C25   C     C_R   0.241382 0.183067 0.789928 -0.107115
C26   C     C_R   0.761654 0.830896 0.213744 -0.112492
C27   C     C_R   0.392487 0.781064 0.888214 0.495665
C28   C     C_R   0.607493 0.218928 0.111731 0.495878
C29   C     C_R   0.195873 0.141200 0.703665 -0.069512
C30   C     C_R   0.807563 0.872431 0.299745 -0.062669
C31   C     C_R   0.104526 0.101879 0.679218 0.075496
C32   C     C_R   0.894948 0.898031 0.320211 0.104169
C33   C     C_R   0.059694 0.106591 0.742190 -0.084680
C34   C     C_3   0.987280 0.433174 0.415913 0.009524
C35   C     C_R   0.935370 0.880249 0.253642 -0.066904
C36   C     C_R   0.105390 0.148223 0.828240 -0.120314
C37   C     C_R   0.889494 0.839475 0.167974 -0.119637
C38   C     C_R   0.195887 0.185415 0.851801 -0.107203
C39   C     C_R   0.803090 0.815825 0.148306 -0.111696
C40   C     C_R   0.005083 0.943521 0.529417 0.099328
C41   C     C_R   0.995193 0.056264 0.469336 0.100127
C42   C     C_R   0.949104 0.892242 0.443851 0.003346
C43   C     C_R   0.051007 0.107824 0.555386 -0.004234
C44   C     C_R   0.946851 0.948687 0.412428 -0.041570
C45   C     C_3   0.012165 0.565911 0.583931 0.010641
C46   C     C_R   0.053654 0.051286 0.586626 -0.054692
C47   C     C_R   0.670565 0.652070 0.832914 -0.067613
C48   C     C_R   0.330273 0.325192 0.154350 -0.067878
C49   C     C_R   0.624127 0.590583 0.863717 0.152721
C50   C     C_R   0.373960 0.392824 0.128530 0.153123
C51   C     C_R   0.107668 0.497889 0.886637 0.502863
C52   C     C_R   0.892251 0.502013 0.113274 0.502511
C53   C     C_R   0.595368 0.629204 0.937512 0.072897
C54   C     C_R   0.404873 0.362399 0.054793 0.071269
C55   C     C_R   0.612522 0.729140 0.977914 0.019516
C56   C     C_3   0.413531 0.965535 0.972765 -0.112826
C57   C     C_R   0.392660 0.264438 0.009397 0.018852
C58   C     C_R   0.657778 0.787978 0.944517 -0.080930
C59   C     C_R   0.350727 0.199749 0.038302 -0.073996
C60   C     C_R   0.687451 0.750401 0.872826 -0.017985
C61   C     C_R   0.319137 0.229384 0.110207 -0.013760
C62   C     C_R   0.593286 0.560278 0.023805 -0.176394
C63   C     C_R   0.406874 0.440707 0.977066 -0.178716
C64   C     C_R   0.550254 0.498062 0.054365 0.020365
C65   C     C_R   0.449853 0.502218 0.945815 0.020036
C66   C     C_R   0.455666 0.435862 0.029725 -0.032435
C67   C     C_3   0.586322 0.034426 0.027067 -0.112045
C68   C     C_R   0.544420 0.563099 0.969262 -0.032187
C69   C     C_R   0.170758 0.828034 0.996537 -0.091931
C70   C     C_R   0.826076 0.170993 0.002160 -0.091145
C71   C     C_R   0.153826 0.747848 0.003465 -0.098170
C72   C     C_R   0.844212 0.251556 0.995275 -0.099404
C73   C     C_R   0.066094 0.659182 0.968302 0.047242
C74   C     C_R   0.932346 0.339613 0.030630 0.047297
C75   C     C_R   0.392220 0.500013 0.608016 0.504364
C76   C     C_R   0.607713 0.500154 0.391987 0.507000
C77   C     C_R   0.996085 0.650958 0.924586 -0.105462
C78   C     C_3   0.491979 0.037815 0.955205 -0.125791
C79   C     C_R   0.001585 0.346698 0.074223 -0.105151
C80   C     C_R   0.011974 0.732000 0.918982 0.015205
C81   C     C_R   0.984471 0.265225 0.079754 0.015972
C82   C     C_R   0.100462 0.822020 0.955979 0.180664
C83   C     C_R   0.895507 0.176022 0.042916 0.181652
C84   C     C_R   0.001940 0.590411 0.056122 -0.034981
C85   C     C_R   0.997912 0.409256 0.943656 -0.036236
C86   C     C_R   0.952750 0.503874 0.060512 0.015089
C87   C     C_R   0.047001 0.495793 0.939218 0.014814
C88   C     C_R   0.956973 0.416686 0.009288 -0.023633
C89   C     C_3   0.507885 0.962164 0.044625 -0.125529
C90   C     C_R   0.042549 0.582812 0.990271 -0.023555
C91   C     C_R   0.393863 0.500271 0.888940 0.503809
C92   C     C_R   0.606167 0.499617 0.110936 0.505325
C93   C     C_R   0.108725 0.500315 0.608214 0.500890
C94   C     C_R   0.891118 0.499463 0.391780 0.500508
C95   C     C_3   0.079605 0.529305 0.485991 -0.123214
C96   C     C_3   0.919823 0.469738 0.513840 -0.122035
C97   C     C_3   0.040391 0.595334 0.518111 -0.120142
C98   C     C_3   0.959101 0.403700 0.481747 -0.124274
C99   C     C_3   0.948641 0.498381 0.447720 0.065771
C100  C     C_3   0.550509 0.102856 0.052626 0.062325
C101  C     C_3   0.050840 0.500795 0.552150 0.064925
C102  C     C_3   0.079718 0.863003 0.527630 -0.288218
C103  C     C_3   0.025537 0.131634 0.383180 -0.258887
C104  C     C_3   0.736813 0.815736 0.839368 -0.415824
C105  C     C_3   0.274384 0.160027 0.141044 -0.410499
C106  C     C_3   0.536054 0.414395 0.733078 -0.312226
C107  C     C_3   0.456002 0.564452 0.265422 -0.291241
C108  C     C_3   0.581411 0.774656 0.054334 -0.403050
C109  C     C_3   0.426299 0.227430 0.932519 -0.407060
C110  C     C_3   0.153503 0.918538 0.890319 -0.323886
H1    H     H_    0.073635 0.674076 0.533082 0.094365
H2    H     H_    0.002821 0.899618 0.268665 0.085873
H3    H     H_    0.658274 0.852635 0.625924 0.135992
H4    H     H_    0.616544 0.782239 0.676173 0.138175
H5    H     H_    0.539848 0.755967 0.589453 0.148733
H6    H     H_    0.070519 0.150973 0.876443 0.101389
H7    H     H_    0.921160 0.827009 0.117050 0.099390
H8    H     H_    0.693315 0.622540 0.777223 0.112186
H9    H     H_    0.305757 0.348110 0.210040 0.112373
H10   H     H_    0.145423 0.553097 0.474654 0.102720
H11   H     H_    0.854012 0.445975 0.525187 0.103384
H12   H     H_    0.669634 0.863516 0.974347 0.121991
H13   H     H_    0.343254 0.126086 0.004731 0.111184
H14   H     H_    0.665625 0.605476 0.040542 0.150154
H15   H     H_    0.926648 0.324973 0.466948 0.102258
H16   H     H_    0.334562 0.395505 0.960385 0.149037
H17   H     H_    0.238217 0.897516 0.026772 0.106347
H18   H     H_    0.758358 0.101951 0.971758 0.111783
H19   H     H_    0.208221 0.756627 0.039373 0.104367
H20   H     H_    0.790410 0.243603 0.959380 0.103772
H21   H     H_    0.928082 0.583260 0.899153 0.110128
H22   H     H_    0.069914 0.413859 0.099692 0.109365
H23   H     H_    0.486030 0.069071 0.918307 0.092406
H24   H     H_    0.513788 0.930979 0.081612 0.092399
H25   H     H_    0.342508 0.936942 0.950182 0.105746
H26   H     H_    0.230613 0.216442 0.918179 0.110407
H27   H     H_    0.657288 0.062995 0.049759 0.108433
H28   H     H_    0.583894 0.432016 0.516142 0.100815
H29   H     H_    0.415502 0.566136 0.482826 0.098861
H30   H     H_    0.404522 0.386627 0.343833 0.113718
H31   H     H_    0.595335 0.612477 0.656153 0.123643
H32   H     H_    0.019835 0.910858 0.621221 0.251634
H33   H     H_    0.080219 0.814928 0.548052 0.131185
H34   H     H_    0.148022 0.935824 0.558581 0.121520
H35   H     H_    0.061692 0.818935 0.454174 0.142573
H36   H     H_    0.972865 0.167823 0.488820 0.252229
H37   H     H_    0.768338 0.785438 0.082202 0.112163
H38   H     H_    0.974933 0.093544 0.320362 0.135527
H39   H     H_    0.069071 0.102662 0.367732 0.147250
H40   H     H_    0.068121 0.216488 0.414103 0.169914
H41   H     H_    0.752724 0.774197 0.779997 0.117595
H42   H     H_    0.695167 0.836653 0.821214 0.129743
H43   H     H_    0.800712 0.887771 0.892117 0.152848
H44   H     H_    0.312292 0.201075 0.211336 0.122517
H45   H     H_    0.204703 0.138669 0.135588 0.134726
H46   H     H_    0.271741 0.087741 0.100787 0.152704
H47   H     H_    0.599447 0.460676 0.856206 0.251880
H48   H     H_    0.311797 0.213402 0.808570 0.102213
H49   H     H_    0.529226 0.339546 0.700709 0.126742
H50   H     H_    0.553005 0.441565 0.689083 0.149120
H51   H     H_    0.470873 0.401415 0.741494 0.145771
H52   H     H_    0.393488 0.525007 0.145130 0.250963
H53   H     H_    0.522628 0.582446 0.258202 0.156292
H54   H     H_    0.439464 0.532143 0.305675 0.156781
H55   H     H_    0.459612 0.637580 0.301344 0.130390
H56   H     H_    0.551112 0.726496 0.080292 0.127898
H57   H     H_    0.639251 0.852660 0.109677 0.102289
H58   H     H_    0.530514 0.782895 0.032305 0.145734
H59   H     H_    0.694244 0.811078 0.198183 0.101864
H60   H     H_    0.454745 0.280217 0.910831 0.127348
H61   H     H_    0.479389 0.220454 0.951898 0.138029
H62   H     H_    0.370143 0.150011 0.874852 0.105136
H63   H     H_    0.069738 0.923238 0.966938 0.247397
H64   H     H_    0.175536 0.994826 0.904155 0.144046
H65   H     H_    0.100103 0.856654 0.824677 0.137359
H66   H     H_    0.211861 0.912998 0.888613 0.143826
H67   H     H_    0.923680 0.072664 0.030618 0.243361
H68   H     H_    0.819602 0.005191 0.097009 0.138865
H69   H     H_    0.787399 0.091238 0.115541 0.147139
H70   H     H_    0.231287 0.138549 0.655860 0.078655
H71   H     H_    0.899164 0.142848 0.175095 0.134927
H72   H     H_    0.923726 0.781135 0.926732 0.123077
H73   H     H_    0.947329 0.735043 0.822953 0.132560
H74   H     H_    0.870705 0.644710 0.846036 0.129591
H75   H     H_    0.070807 0.213594 0.071412 0.121291
H76   H     H_    0.125600 0.350432 0.151747 0.130603
H77   H     H_    0.048336 0.261408 0.175678 0.130762
H78   H     H_    0.022304 0.707747 0.191081 0.136401
H79   H     H_    0.079888 0.760550 0.134541 0.111516
H80   H     H_    0.959875 0.695380 0.103219 0.160558
H81   H     H_    0.775674 0.885653 0.350459 0.092206
H82   H     H_    0.977907 0.292035 0.808805 0.139306
H83   H     H_    0.040227 0.304432 0.896772 0.163005
H84   H     H_    0.920191 0.239089 0.865173 0.111949
H85   H     H_    0.009046 0.320742 0.318556 0.110554
H86   H     H_    0.901221 0.296041 0.283674 0.146270
H87   H     H_    0.001849 0.398508 0.287946 0.154276
H88   H     H_    0.990153 0.678122 0.681289 0.116010
H89   H     H_    0.997844 0.600682 0.712000 0.154071
H90   H     H_    0.098202 0.703295 0.716134 0.145226
H91   H     H_    0.419605 0.115236 0.151952 0.148277
H92   H     H_    0.989187 0.076662 0.724093 0.095852
H93   H     H_    0.386105 0.999465 0.146042 0.112859
H94   H     H_    0.498896 0.115256 0.211835 0.127508
H95   H     H_    0.582420 0.886839 0.849239 0.143899
H96   H     H_    0.500603 0.882584 0.787855 0.125311
H97   H     H_    0.612456 0.000362 0.852712 0.112287
H98   H     H_    0.373689 0.244514 0.387359 0.239408
H99   H     H_    0.333036 0.197374 0.489059 0.133696
H100  H     H_    0.386435 0.331626 0.577963 0.152927
H101  H     H_    0.453539 0.285670 0.525471 0.118324
H102  H     H_    0.685060 0.720949 0.560586 0.266168
N1    N     N_2   0.014951 0.886058 0.556230 -0.474073
N2    N     N_2   0.979769 0.110611 0.442192 -0.506205
N3    N     N_2   0.605906 0.489474 0.818567 -0.532187
N4    N     N_2   0.387924 0.491958 0.178897 -0.538616
N5    N     N_2   0.119228 0.909907 0.958727 -0.536963
N6    N     N_2   0.875361 0.087847 0.040412 -0.537059
N7    N     N_2   0.379607 0.298818 0.449712 -0.500967
N8    N     N_2   0.619503 0.698616 0.546747 -0.513437
O1    O     O_3   0.251620 0.500000 0.748430 -0.436633
O2    O     O_R   0.570330 0.268390 0.136490 -0.541068
O3    O     O_R   0.134680 0.268390 0.572240 -0.538094
O4    O     O_R   0.865320 0.731610 0.427760 -0.503781
O5    O     O_R   0.306670 0.731630 0.863510 -0.549415
O6    O     O_R   0.693330 0.268370 0.136490 -0.550214
O7    O     O_R   0.135450 0.439270 0.865360 -0.548165
O8    O     O_R   0.864550 0.560730 0.134640 -0.548926
O9    O     O_R   0.429670 0.560710 0.692610 -0.554739
O10   O     O_R   0.570330 0.439290 0.307390 -0.549940
O11   O     O_R   0.308540 0.439240 0.865360 -0.549439
O12   O     O_3   0.748380 0.500000 0.251570 -0.439285
O13   O     O_R   0.691460 0.560760 0.134640 -0.549681
O14   O     O_R   0.133580 0.439310 0.571150 -0.555843
O15   O     O_R   0.866420 0.560690 0.428850 -0.540324
O16   O     O_R   0.430770 0.560690 0.864590 -0.535848
O17   O     O_R   0.569230 0.439310 0.135410 -0.535289
O18   O     O_R   0.133580 0.560760 0.692610 -0.547846
O19   O     O_R   0.866420 0.439240 0.307390 -0.550268
O20   O     O_R   0.134680 0.560740 0.864590 -0.540492
O21   O     O_R   0.865320 0.439260 0.135410 -0.540698
O22   O     O_R   0.306670 0.439270 0.571150 -0.529709
O23   O     O_R   0.693330 0.560730 0.428850 -0.547910
O24   O     O_R   0.135450 0.268370 0.694460 -0.542434
O25   O     O_R   0.864550 0.731630 0.305540 -0.555490
O26   O     O_R   0.429670 0.731610 0.863510 -0.543389
Zn1   Zn    Zn3+2 0.207400 0.586780 0.791530 0.919315
Zn2   Zn    Zn3+2 0.792600 0.413220 0.208470 0.918890
Zn3   Zn    Zn3+2 0.208510 0.413230 0.792630 0.916896
Zn4   Zn    Zn3+2 0.791490 0.586770 0.207370 0.915373
Zn5   Zn    Zn3+2 0.383150 0.586740 0.791530 0.918722
Zn6   Zn    Zn3+2 0.616850 0.413260 0.208470 0.924131
Zn7   Zn    Zn3+2 0.207400 0.413250 0.618010 0.910017
Zn8   Zn    Zn3+2 0.792600 0.586750 0.381990 0.930797

loop_
_geom_bond_atom_site_label_1
_geom_bond_atom_site_label_2
_ccdc_geom_bond_type
O5    Zn1   S    
O25   Zn4   S    
C63   C65   A    
C9    C45   S    
C16   C21   S    
C6    H78   S    
O21   Zn2   S    
C92   O13   A    
C84   C90   A    
C5    H75   S    
H67   N6    S    
C34   C98   S    
C33   C36   A    
C62   H14   S    
O4    Zn8   S    
C6    H80   S    
C47   C49   A    
H52   N4    S    
C110  H65   S    
C109  H60   S    
C40   C46   A    
C106  N3    S    
C82   N5    S    
C43   C46   A    
C50   C54   A    
O23   Zn8   S    
C42   C44   A    
C96   H11   S    
C16   N7    S    
C18   C24   S    
C104  H41   S    
C19   C21   S    
C3    H68   S    
C84   C86   A    
C12   H99   S    
C4    C80   S    
C102  H35   S    
C97   H1    S    
C86   C88   A    
C94   O15   A    
C85   C88   A    
C15   C78   S    
C58   C60   A    
C106  H49   S    
C96   C99   S    
C22   H30   S    
C33   H92   S    
C67   C89   S    
C17   C20   S    
C56   C78   S    
C20   C76   S    
C8    H85   S    
C75   O9    A    
C77   H21   S    
C106  H51   S    
C76   O10   A    
C18   H28   S    
C53   C68   S    
C3    H69   S    
C62   C64   A    
C69   C82   A    
C103  H40   S    
C81   C83   A    
C47   C60   A    
C11   C15   S    
C52   O8    A    
C98   H15   S    
C57   C109  S    
C107  N4    S    
O1    Zn5   S    
C26   H59   S    
C31   C46   S    
C96   C98   S    
O18   Zn1   S    
C103  H38   S    
O20   Zn1   S    
C31   C33   A    
O17   Zn6   S    
C2    C27   S    
O12   Zn6   S    
C11   H96   S    
C38   H26   S    
C104  H43   S    
C7    H83   S    
H63   N5    S    
C10   H93   S    
C24   H31   S    
C12   N7    S    
C9    H90   S    
O7    Zn3   S    
C13   C56   S    
C13   C89   S    
C28   C100  S    
H98   N7    S    
C48   C50   A    
C105  H44   S    
C108  H58   S    
C63   C66   A    
C69   C71   A    
C59   H13   S    
C41   C43   A    
C5    H77   S    
C14   N8    S    
C8    H87   S    
C11   H97   S    
C5    H76   S    
O10   Zn6   S    
C97   C99   S    
C1    C43   S    
O13   Zn4   S    
C48   H9    S    
O8    Zn4   S    
O26   Zn5   S    
C53   C55   A    
C25   C29   A    
C37   C39   A    
O1    Zn7   S    
C92   O17   A    
C59   C61   A    
C17   C24   S    
H47   N3    S    
O24   Zn3   S    
C85   C87   A    
C32   C35   A    
C70   C83   A    
C76   O23   A    
O12   Zn8   S    
C34   C95   S    
C12   H101  S    
C72   C74   A    
C27   O26   A    
C28   O6    A    
C71   C73   A    
C83   N6    S    
C27   O5    A    
H102  N8    S    
C14   H4    S    
C91   O16   A    
C29   H70   S    
C91   O11   A    
O19   Zn2   S    
C47   H8    S    
C64   C66   A    
C109  H61   S    
C40   N1    S    
C2    C89   S    
C6    C84   S    
C2    C15   S    
C1    O24   A    
C25   C38   A    
C71   H19   S    
C5    C81   S    
O3    Zn7   S    
C102  N1    S    
O14   Zn7   S    
C50   N4    S    
C93   O18   A    
C65   C68   A    
C15   C67   S    
C19   C22   S    
C34   C99   S    
C32   C44   S    
C21   C24   S    
C108  H56   S    
C107  H54   S    
C8    C34   S    
C30   H81   S    
C4    H74   S    
C7    H84   S    
C72   H20   S    
C107  H55   S    
C23   C42   S    
C103  N2    S    
O9    Zn5   S    
C17   N8    S    
C45   C101  S    
C67   C100  S    
C3    H71   S    
C28   O2    A    
C105  H45   S    
C108  H57   S    
C20   C22   S    
C26   C30   A    
C74   C79   A    
C110  N5    S    
C51   O7    A    
C93   O14   A    
C41   C44   A    
C51   O20   A    
C7    H82   S    
C55   C58   A    
O12   Zn4   S    
C102  H33   S    
C64   C92   S    
O16   Zn5   S    
C93   C101  S    
O11   Zn3   S    
O2    Zn6   S    
C56   H25   S    
C61   C105  S    
C9    H88   S    
H32   N1    S    
C79   C81   A    
C77   C80   A    
C70   H18   S    
C65   C91   S    
C78   C100  S    
C16   C22   S    
C89   H24   S    
C35   C37   A    
C4    H72   S    
C23   O25   A    
O15   Zn8   S    
C107  H53   S    
C40   C42   A    
C10   C13   S    
C73   C90   S    
C70   C72   A    
C95   C97   S    
O6    Zn2   S    
C54   C66   S    
C110  H66   S    
C95   H10   S    
C14   H3    S    
O1    Zn1   S    
C49   N3    S    
C51   C87   S    
C98   C101  S    
C62   C68   A    
C55   C108  S    
C1    O3    A    
C102  H34   S    
C74   C88   S    
C104  H42   S    
C13   C100  S    
C36   C38   A    
C10   H91   S    
C12   H100  S    
C29   C31   A    
C75   O22   A    
C2    C56   S    
C52   O21   A    
C58   H12   S    
C30   C32   A    
C41   N2    S    
C45   C96   S    
C48   C61   A    
C7    C85   S    
C110  H64   S    
C94   C99   S    
C3    N6    S    
C49   C53   A    
C79   H22   S    
C6    H79   S    
C52   C86   S    
C17   C19   S    
C80   C82   A    
C8    H86   S    
C18   C20   S    
C4    H73   S    
H36   N2    S    
C26   C39   A    
C78   H23   S    
C63   H16   S    
C57   C59   A    
C103  H39   S    
C9    H89   S    
C95   C101  S    
C94   O19   A    
C105  H46   S    
C37   H7    S    
C23   O4    A    
C69   H17   S    
C109  H62   S    
C16   C18   S    
C21   C75   S    
C87   C90   A    
C39   H37   S    
C25   H48   S    
O22   Zn7   S    
C73   C77   A    
C45   C97   S    
C11   H95   S    
O12   Zn2   S    
C60   C104  S    
C67   H27   S    
C10   H94   S    
O1    Zn3   S    
C19   H29   S    
C35   H2    S    
C14   H5    S    
C106  H50   S    
C54   C57   A    
C36   H6    S    
