data_mof_unit_56300.cif
_audit_creation_date              2012-12-11T16:31:27-0500
_audit_creation_method            fapswitch 2.2
_symmetry_space_group_name_H-M    P1
_symmetry_Int_Tables_number       1
_space_group_crystal_system       triclinic
_cell_length_a                    6.943424
_cell_length_b                    18.248795
_cell_length_c                    20.213592
_cell_angle_alpha                 68.332619
_cell_angle_beta                  90.611435
_cell_angle_gamma                 90.757759
_cell_volume                      2380.02194296

loop_
_atom_site_label
_atom_site_type_symbol
_atom_type_description
_atom_site_fract_x
_atom_site_fract_y
_atom_site_fract_z
_atom_type_partial_charge
O1    O     O_R   0.488990 0.443920 0.942160 -0.534523
O2    O     O_R   0.823840 0.406530 0.087600 -0.538922
O3    O     O_R   0.999650 0.556080 0.057840 -0.532627
C1    C     C_R   0.655050 0.383161 0.114724 0.693198
O4    O     O_R   0.818390 0.434590 0.944530 -0.538716
O5    O     O_R   0.994160 0.584350 0.913750 -0.536299
C2    C     C_R   0.648858 0.420492 0.924072 0.718567
O6    O     O_R   0.494480 0.415650 0.086250 -0.536861
O7    O     O_3   0.662600 0.549100 0.990070 -0.367036
V1    V     V_3+5 0.935320 0.490890 0.001840 1.438806
O8    O     O_R   0.324240 0.593470 0.912400 -0.539484
C3    C     C_R   0.155251 0.616427 0.884896 0.694236
O9    O     O_R   0.329690 0.565410 0.055470 -0.542661
C4    C     C_R   0.162074 0.579590 0.075903 0.721870
V2    V     V_3+5 0.435990 0.509110 0.998160 1.430158
O10   O     O_3   0.158840 0.450900 0.009930 -0.365897
C5    C     C_3   0.991632 0.672534 0.267369 -0.343530
C6    C     C_3   0.338513 0.710325 0.242593 -0.413539
C7    C     C_3   0.329534 0.758048 0.292415 -0.334751
H1    H     H_    0.035637 0.611344 0.300286 0.149944
H2    H     H_    0.383654 0.648846 0.274006 0.156486
H3    H     H_    0.369356 0.719124 0.347589 0.151307
H4    H     H_    0.437337 0.807035 0.274855 0.137617
C8    C     C_1   0.110651 0.874843 0.378288 -0.180336
C9    C     C_3   0.139784 0.709759 0.206708 0.228681
C10   C     C_3   0.979094 0.721782 0.315720 -0.343478
C11   C     C_3   0.124910 0.791758 0.291788 0.251324
C12   C     C_3   0.074503 0.845090 0.214025 -0.378910
C13   C     C_3   0.085300 0.797467 0.163733 0.239888
C14   C     C_1   0.116881 0.837308 0.339613 -0.080591
C15   C     C_1   0.148959 0.663468 0.159477 -0.037379
C16   C     C_1   0.155572 0.625494 0.121178 -0.179802
H5    H     H_    0.201496 0.824427 0.124400 0.112356
H6    H     H_    0.928593 0.870380 0.212081 0.143825
H7    H     H_    0.830112 0.744401 0.313534 0.138112
H8    H     H_    0.177225 0.895840 0.195258 0.128764
C17   C     C_R   0.274409 0.773997 0.872409 -0.128650
C18   C     C_R   0.332257 0.848959 0.868258 -0.108569
C19   C     C_R   0.320664 0.912561 0.803952 -0.129184
C20   C     C_R   0.250823 0.901710 0.743321 -0.144239
C21   C     C_R   0.192948 0.826091 0.745566 0.069651
C22   C     C_R   0.205253 0.760831 0.811530 0.066053
C23   C     C_R   0.119883 0.815249 0.683892 -0.181073
C24   C     C_R   0.059325 0.739018 0.688297 0.070721
C25   C     C_R   0.071661 0.673756 0.754263 0.069248
C26   C     C_R   0.144760 0.684606 0.815926 -0.184762
C27   C     C_R   0.990069 0.725838 0.627437 -0.139805
C28   C     C_R   0.932146 0.650868 0.631614 -0.115332
C29   C     C_R   0.943800 0.587265 0.695921 -0.120426
C30   C     C_R   0.013755 0.598129 0.756531 -0.148191
H9    H     H_    0.385072 0.857817 0.915368 0.119864
H10   H     H_    0.364581 0.970803 0.801107 0.109040
H11   H     H_    0.241317 0.953501 0.695038 0.106873
H12   H     H_    0.981223 0.772952 0.575821 0.101175
H13   H     H_    0.023283 0.546348 0.804823 0.113713
H14   H     H_    0.533952 0.482059 0.302120 0.123428
C31   C     C_R   0.705242 0.224193 0.122786 -0.140660
C32   C     C_R   0.725638 0.148667 0.123057 -0.159336
C33   C     C_R   0.707134 0.084066 0.185909 -0.185826
C34   C     C_R   0.668987 0.093592 0.250486 0.332717
C35   C     C_R   0.653047 0.171424 0.251987 0.016730
C36   C     C_R   0.668745 0.237299 0.186203 0.024227
C37   C     C_R   0.620150 0.185226 0.316366 -0.203918
C38   C     C_R   0.598126 0.264224 0.314132 0.018659
C39   C     C_R   0.608375 0.328558 0.247161 0.024685
C40   C     C_R   0.644778 0.315118 0.183863 -0.141810
C41   C     C_R   0.567459 0.281936 0.376729 0.338130
C42   C     C_R   0.543585 0.360565 0.370913 -0.177979
C43   C     C_R   0.551794 0.421897 0.305522 -0.171697
C44   C     C_R   0.584883 0.406541 0.244495 -0.148374
H15   H     H_    0.717984 0.272262 0.071855 0.107152
H16   H     H_    0.753874 0.140118 0.073829 0.131424
H17   H     H_    0.720948 0.025769 0.184114 0.105179
H18   H     H_    0.519522 0.374585 0.417755 0.107640
H19   H     H_    0.592601 0.457078 0.195100 0.114750
O11   O     O_R   0.770890 0.084490 0.414040 -0.527532
O12   O     O_R   0.445980 0.065450 0.555510 -0.536577
O13   O     O_R   0.270670 0.915620 0.586180 -0.543196
C45   C     C_R   0.615181 0.078462 0.577079 0.771744
O14   O     O_R   0.441480 0.093500 0.412450 -0.525384
O15   O     O_R   0.266140 0.943870 0.442100 -0.529732
C46   C     C_R   0.610360 0.117222 0.385455 0.930573
O16   O     O_R   0.775410 0.056240 0.558120 -0.538090
O17   O     O_3   0.602660 0.950990 0.510100 -0.372204
V3    V     V_3+5 0.329740 0.009100 0.498130 1.479728
O18   O     O_R   0.936120 0.934420 0.444240 -0.533431
C47   C     C_R   0.103911 0.920379 0.423864 0.734023
O19   O     O_R   0.940610 0.906370 0.587310 -0.544731
C48   C     C_R   0.109527 0.883444 0.614911 0.677239
V4    V     V_3+5 0.829110 0.990690 0.501470 1.473597
O20   O     O_3   0.106080 0.049010 0.489880 -0.369482
C49   C     C_3   0.837495 0.240348 0.712907 -0.383840
C50   C     C_3   0.494162 0.280107 0.678387 -0.297815
C51   C     C_3   0.494187 0.329085 0.727502 0.144250
H20   H     H_    0.883794 0.350784 0.729167 0.145964
H21   H     H_    0.887723 0.278362 0.658841 0.132677
H22   H     H_    0.345108 0.258773 0.674403 0.116962
H23   H     H_    0.538236 0.317998 0.623447 0.170191
H24   H     H_    0.344542 0.327942 0.747669 0.126771
C52   C     C_1   0.639050 0.374951 0.878584 -0.180238
C53   C     C_3   0.631624 0.208666 0.707777 0.197154
C54   C     C_3   0.839671 0.289354 0.762133 0.234552
C55   C     C_3   0.633849 0.291710 0.792082 0.183033
C56   C     C_3   0.561496 0.205910 0.832759 -0.414989
C57   C     C_3   0.565493 0.156947 0.784043 -0.361955
C58   C     C_1   0.635153 0.337352 0.839952 -0.030597
C59   C     C_1   0.629059 0.162095 0.660810 -0.071138
C60   C     C_1   0.624756 0.124042 0.622564 -0.195372
H25   H     H_    0.664744 0.106332 0.807342 0.154670
H26   H     H_    0.419293 0.132074 0.781980 0.151393
H27   H     H_    0.649887 0.176607 0.881353 0.161706
H28   H     H_    0.939588 0.190291 0.732973 0.149465
H29   H     H_    0.008655 0.683073 0.371936 0.148724
H30   H     H_    0.846901 0.667659 0.245213 0.140294
H31   H     H_    0.899828 0.529014 0.698787 0.131597
H32   H     H_    0.283217 0.726877 0.924025 0.106151
H33   H     H_    0.879222 0.642004 0.584520 0.116861
O21   O     O_3   0.643257 0.027224 0.311380 -0.658932
H34   H     H_    0.659769 0.978958 0.300475 0.273776
O22   O     O_3   0.563136 0.222910 0.443340 -0.669139
H35   H     H_    0.539301 0.245768 0.480018 0.270164
H36   H     H_    0.450155 0.736733 0.201235 0.136332
O23   O     O_3   0.548141 0.407536 0.687559 -0.657551
H37   H     H_    0.493388 0.440961 0.711735 0.287323
O24   O     O_3   0.978125 0.261246 0.816935 -0.661591
H38   H     H_    0.958196 0.203638 0.841451 0.291457
H39   H     H_    0.411515 0.206944 0.851296 0.172459
O25   O     O_3   0.913585 0.803329 0.124442 -0.645595
H40   H     H_    0.804386 0.788643 0.158201 0.287250

loop_
_geom_bond_atom_site_label_1
_geom_bond_atom_site_label_2
_ccdc_geom_bond_type
C9    C15   S    
C1    C40   S    
C57   H26   S    
C53   C59   S    
C50   C51   S    
C6    H2    S    
C21   C22   A    
O2    C1    A    
C1    O6    A    
C54   O24   S    
O25   H40   S    
V3    O20   S    
C31   C36   A    
C17   H32   S    
C25   C26   A    
C24   C25   A    
C10   C11   S    
C23   C48   S    
C5    C10   S    
C51   H24   S    
C12   C13   S    
C17   C18   A    
C20   H11   S    
O5    C3    A    
C18   C19   A    
C42   H18   S    
V2    O10   S    
C13   H5    S    
C49   H21   S    
C5    H1    S    
C6    C7    S    
C22   C26   A    
C17   C22   A    
C35   C37   A    
O21   H34   S    
O8    V2    S    
C15   C16   T    
C42   C43   A    
C59   C60   T    
C34   O21   S    
O1    V2    S    
C7    C11   S    
C41   O22   S    
C33   H17   S    
C35   C36   A    
V4    O20   S    
C24   C27   A    
C49   C54   S    
C51   O23   S    
C19   H10   S    
O12   V3    S    
C33   C34   A    
O9    C4    A    
C11   C14   S    
C9    C13   S    
C21   C23   A    
C54   C55   S    
C6    C9    S    
O17   V4    S    
C56   C57   S    
C5    H30   S    
O12   C45   A    
O13   C48   A    
C53   C57   S    
C2    C52   S    
C36   C40   A    
C37   C46   S    
C41   C42   A    
C38   C41   A    
O23   H37   S    
C7    H3    S    
O17   V3    S    
C3    C26   S    
O18   V4    S    
O11   C46   A    
C19   C20   A    
O4    C2    A    
O18   C47   A    
C49   H28   S    
C18   H9    S    
C32   C33   A    
C34   C35   A    
C7    H4    S    
C23   C24   A    
O14   V3    S    
C27   C28   A    
C31   H15   S    
O15   C47   A    
O3    C4    A    
C49   C53   S    
C6    H36   S    
C27   H12   S    
O13   V3    S    
O14   C46   A    
C28   C29   A    
C29   H31   S    
O19   V4    S    
C51   C55   S    
C29   C30   A    
O6    V2    S    
O9    V2    S    
O24   H38   S    
C50   C53   S    
O2    V1    S    
C50   H22   S    
C55   C56   S    
O22   H35   S    
O7    V1    S    
O16   V4    S    
C57   H25   S    
C20   C21   A    
O1    C2    A    
C4    C16   S    
O5    V1    S    
C56   H27   S    
O8    C3    A    
H20   C54   S    
C28   H33   S    
C52   C58   T    
C30   H13   S    
C5    C9    S    
C38   C39   A    
O7    V2    S    
C10   H29   S    
O4    V1    S    
O3    V1    S    
V1    O10   S    
C45   O16   A    
C32   H16   S    
C31   C32   A    
C56   H39   S    
C25   C30   A    
C45   C60   S    
C55   C58   S    
C39   C40   A    
C43   C44   A    
C8    C47   S    
C8    C14   T    
C12   H6    S    
C37   C38   A    
C10   H7    S    
O19   C48   A    
C12   H8    S    
H14   C43   S    
C13   O25   S    
C11   C12   S    
C44   H19   S    
C50   H23   S    
O15   V3    S    
C39   C44   A    
O11   V4    S    
