data_mof_unit_40510.cif
_audit_creation_date              2012-12-10T17:11:03-0500
_audit_creation_method            fapswitch 2.2
_symmetry_space_group_name_H-M    P1
_symmetry_Int_Tables_number       1
_space_group_crystal_system       triclinic
_cell_length_a                    11.658113
_cell_length_b                    12.998773
_cell_length_c                    13.437012
_cell_angle_alpha                 92.150912
_cell_angle_beta                  76.072939
_cell_angle_gamma                 100.301285
_cell_volume                      1944.51042171

loop_
_atom_site_label
_atom_site_type_symbol
_atom_type_description
_atom_site_fract_x
_atom_site_fract_y
_atom_site_fract_z
_atom_type_partial_charge
C1    C     C_R   0.522884 0.701241 0.498327 0.816779
C2    C     C_R   0.446415 0.495064 0.977377 0.083347
C3    C     C_R   0.466534 0.466777 0.872340 0.039704
C4    C     C_R   0.530159 0.478720 0.034222 0.087727
C5    C     C_R   0.625908 0.425638 0.988640 0.160650
C6    C     C_R   0.636018 0.387652 0.889171 -0.240419
C7    C     C_R   0.556679 0.406378 0.832481 -0.188830
C8    C     C_R   0.521704 0.513729 0.135370 -0.247326
C9    C     C_R   0.694401 0.439645 0.146368 -0.198163
C10   C     C_R   0.395319 0.498567 0.810316 -0.127290
C11   C     C_R   0.465660 0.185755 0.499450 -0.047271
C12   C     C_R   0.435300 0.495336 0.696700 0.796105
C13   C     C_R   0.539373 0.815576 0.492525 -0.070665
C14   C     C_R   0.662768 0.988148 0.460336 -0.209147
C15   C     C_R   0.654788 0.879842 0.464312 0.164854
C16   C     C_R   0.435887 0.861258 0.513317 -0.313233
C17   C     C_R   0.444935 0.968989 0.507697 0.174216
C18   C     C_R   0.559278 0.032665 0.482021 0.129088
C19   C     C_R   0.568921 0.140529 0.478340 -0.256113
C20   C     C_R   0.351730 0.122422 0.522946 -0.199888
C21   C     C_R   0.341392 0.014251 0.527526 -0.198882
C22   C     C_R   0.946964 0.600110 0.592457 -0.342328
C23   C     C_R   0.478564 0.299124 0.498919 0.800268
C24   C     C_R   0.827541 0.589763 0.584316 0.090279
C25   C     C_R   0.856517 0.456305 0.460361 0.021101
C26   C     C_R   0.977172 0.463563 0.466357 0.069454
C27   C     C_R   0.022919 0.536750 0.533117 0.070505
C28   C     C_R   0.143733 0.544453 0.538679 0.015150
C29   C     C_R   0.172229 0.409721 0.416181 0.088428
C30   C     C_R   0.053021 0.399837 0.407462 -0.347048
C31   C     C_R   0.563897 0.502319 0.303984 0.798517
C32   C     C_R   0.708612 0.408512 0.044295 -0.194873
C33   C     C_R   0.598607 0.489793 0.192748 -0.051124
C34   C     C_R   0.293490 0.544403 0.858035 0.183501
C35   C     C_R   0.266710 0.559106 0.963883 -0.140189
C36   C     C_R   0.342163 0.536813 0.022290 -0.241323
Cu1   Cu    Cu3+1 0.386470 0.492430 0.492410 0.931973
Cu2   Cu    Cu3+1 0.613530 0.507570 0.507590 0.928873
H1    H     H_    0.754402 0.420112 0.190184 0.144117
H2    H     H_    0.270992 0.156532 0.539550 0.154861
H3    H     H_    0.750068 0.038189 0.439748 0.133573
H4    H     H_    0.252904 0.966229 0.546956 0.132772
H5    H     H_    0.347592 0.812888 0.534445 0.155782
H6    H     H_    0.180248 0.601126 0.588932 0.118480
H7    H     H_    0.230049 0.360093 0.370838 0.129496
H8    H     H_    0.979479 0.657057 0.644719 0.138244
H9    H     H_    0.020491 0.342712 0.355358 0.135282
H10   H     H_    0.769472 0.638822 0.630277 0.128446
H11   H     H_    0.705567 0.342970 0.854921 0.145721
H12   H     H_    0.820361 0.400809 0.408808 0.112069
H13   H     H_    0.781780 0.367805 0.009914 0.134221
H14   H     H_    0.454324 0.558372 0.172997 0.145660
H15   H     H_    0.314215 0.551234 0.103230 0.140905
H16   H     H_    0.188105 0.591545 0.001947 0.142090
H17   H     H_    0.565695 0.370496 0.757826 0.171476
H18   H     H_    0.657105 0.189296 0.458912 0.143793
N1    N     N_R   0.215880 0.481050 0.481000 -0.178776
N2    N     N_R   0.784100 0.518950 0.519000 -0.179431
O1    O     O_R   0.419710 0.645650 0.494620 -0.589917
O2    O     O_R   0.611450 0.658430 0.507430 -0.582246
O3    O     O_R   0.357340 0.490460 0.641450 -0.572359
O4    O     O_R   0.549080 0.503250 0.654260 -0.585592
O5    O     O_R   0.388550 0.341570 0.492570 -0.589463
O6    O     O_R   0.580290 0.354350 0.505380 -0.593396
O7    O     O_R   0.450920 0.496750 0.345740 -0.583309
O8    O     O_R   0.642660 0.509540 0.358550 -0.586168
C37   C     C_3   0.770214 0.836557 0.435550 -0.823491
H19   H     H_    0.849284 0.898592 0.407097 0.211353
H20   H     H_    0.785389 0.800191 0.503592 0.238886
H21   H     H_    0.766661 0.778332 0.373265 0.239038
C38   C     C_3   0.213411 0.581731 0.799132 -0.857320
H22   H     H_    0.142908 0.619961 0.849586 0.214030
H23   H     H_    0.267508 0.640442 0.740574 0.228996
H24   H     H_    0.166653 0.514360 0.762532 0.245772

loop_
_geom_bond_atom_site_label_1
_geom_bond_atom_site_label_2
_ccdc_geom_bond_type
C19   H18   S    
C31   O8    A    
C14   C18   A    
C35   C36   A    
C7    H17   S    
C4    C8    A    
C28   N1    A    
C11   C19   A    
C26   C27   A    
C29   C30   A    
C18   C19   A    
C3    C7    A    
C1    O1    A    
C5    C6    A    
C20   H2    S    
C9    H1    S    
C34   C35   A    
C25   H12   S    
C36   H15   S    
C9    C32   A    
Cu2   N2    S    
Cu2   O8    S    
C16   C17   A    
Cu1   O7    S    
C31   C33   S    
C8    H14   S    
C5    C32   A    
C23   O5    A    
C35   H16   S    
C9    C33   A    
Cu1   O5    S    
Cu2   O6    S    
C11   C20   A    
C37   H19   S    
C24   H10   S    
C30   H9    S    
C1    O2    A    
C38   H23   S    
C25   C26   A    
C28   H6    S    
C17   C21   A    
C29   H7    S    
C37   H20   S    
C2    C4    A    
C32   H13   S    
Cu1   Cu2   S    
C12   O4    A    
C15   C37   S    
C17   C18   A    
C10   C34   A    
C16   H5    S    
Cu1   O1    S    
C10   C12   S    
C14   H3    S    
Cu2   O2    S    
C23   O6    A    
C22   H8    S    
C29   N1    A    
C26   C30   A    
C22   C27   A    
C13   C15   A    
C22   C24   A    
C1    C13   S    
C25   N2    A    
C2    C36   A    
C31   O7    A    
C4    C5    A    
C38   H24   S    
Cu1   O3    S    
C6    C7    A    
C37   H21   S    
C2    C3    A    
C38   H22   S    
C3    C10   A    
C12   O3    A    
C11   C23   S    
C8    C33   A    
C6    H11   S    
C21   H4    S    
C20   C21   A    
C24   N2    A    
C13   C16   A    
C27   C28   A    
C14   C15   A    
C34   C38   S    
Cu1   N1    S    
Cu2   O4    S    
