data_mof_unit_51380.cif
_audit_creation_date              2012-12-11T20:03:41-0500
_audit_creation_method            fapswitch 2.2
_symmetry_space_group_name_H-M    P1
_symmetry_Int_Tables_number       1
_space_group_crystal_system       triclinic
_cell_length_a                    8.376098
_cell_length_b                    16.324672
_cell_length_c                    19.018804
_cell_angle_alpha                 111.86266
_cell_angle_beta                  92.002972
_cell_angle_gamma                 83.468898
_cell_volume                      2397.79901942

loop_
_atom_site_label
_atom_site_type_symbol
_atom_type_description
_atom_site_fract_x
_atom_site_fract_y
_atom_site_fract_z
_atom_type_partial_charge
Ba1   Ba    Ba6+2 0.334020 0.539200 0.472300 1.753545
Ba2   Ba    Ba6+2 0.855780 0.460880 0.527720 1.728576
C1    C     C_3   0.970181 0.853273 0.350078 -0.269757
C2    C     C_R   0.508757 0.539554 0.740382 -0.006800
C3    C     C_R   0.366062 0.437501 0.805509 -0.168590
C4    C     C_3   0.484113 0.810215 0.331979 0.709640
C5    C     C_R   0.287913 0.463231 0.749689 0.087528
C6    C     C_R   0.841129 0.540861 0.183955 -0.025643
C7    C     C_R   0.898870 0.545651 0.255345 -0.032769
C8    C     C_R   0.666733 0.433782 0.185729 -0.115394
C9    C     C_R   0.693880 0.457724 0.264097 0.111505
C10   C     C_R   0.517500 0.464130 0.835198 0.020599
C11   C     C_R   0.353245 0.519528 0.722496 -0.122693
C12   C     C_3   0.978482 0.759881 0.350224 0.330630
C13   C     C_R   0.729176 0.480333 0.144316 0.041331
C14   C     C_R   0.816288 0.510043 0.297350 -0.228917
C15   C     C_R   0.404579 0.340332 0.917748 -0.096782
C16   C     C_3   0.387665 0.886239 0.314813 0.298612
C17   C     C_R   0.304843 0.317643 0.963266 -0.070111
C18   C     C_R   0.300810 0.364502 0.041077 -0.093803
C19   C     C_R   0.408547 0.427070 0.073677 -0.078304
C20   C     C_R   0.531630 0.436524 0.029576 0.057460
C21   C     C_R   0.504169 0.409212 0.949717 0.035929
C22   C     C_R   0.683068 0.464912 0.060990 0.000654
C23   C     C_3   0.055949 0.313196 0.283531 0.315535
C24   C     C_R   0.796269 0.469572 0.008219 0.028125
C25   C     C_R   0.748542 0.461466 0.932614 0.028274
C26   C     C_R   0.591704 0.442597 0.904713 0.002512
C27   C     C_R   0.960288 0.478464 0.026809 -0.082554
C28   C     C_3   0.476447 0.756277 0.752165 0.605250
C29   C     C_R   0.061569 0.500083 0.981772 -0.024543
C30   C     C_R   0.013309 0.492984 0.909978 -0.011694
C31   C     C_R   0.867151 0.461626 0.883202 -0.093076
C32   C     C_2   0.401818 0.240282 0.480751 0.201397
C33   C     C_R   0.797504 0.751056 0.515081 -0.278002
C34   C     C_3   0.051009 0.283651 0.197707 -0.375563
C35   C     C_2   0.206683 0.131175 0.441265 -0.114460
C36   C     C_2   0.253846 0.207089 0.442433 0.034190
C37   C     C_2   0.505675 0.191263 0.508843 -0.000016
C38   C     C_3   0.457260 0.109549 0.517827 -0.108868
C39   C     C_3   0.296967 0.077590 0.481971 0.009474
C40   C     C_3   0.530999 0.826071 0.828837 0.638680
C41   C     C_2   0.589805 0.035056 0.501646 -0.026692
C42   C     C_2   0.569403 0.965475 0.519852 -0.124902
C43   C     C_R   0.844434 0.929390 0.558779 0.007314
C44   C     C_R   0.702984 0.899516 0.520964 -0.050105
C45   C     C_3   0.659497 0.239879 0.682211 0.315173
C46   C     C_R   0.960176 0.871181 0.575895 -0.138834
C47   C     C_R   0.933181 0.782637 0.557743 0.005969
C48   C     C_R   0.681291 0.808990 0.496322 -0.054636
C49   C     C_3   0.587541 0.259503 0.337361 0.241981
C50   C     C_3   0.664508 0.164018 0.308666 -0.266727
C51   C     C_3   0.975339 0.797396 0.731329 0.315173
C52   C     C_3   0.017936 0.831665 0.815382 0.366878
C53   C     C_3   0.536204 0.980040 0.879315 0.129354
C54   C     C_3   0.372066 0.383785 0.560760 0.695958
C55   C     C_3   0.486826 0.840064 0.675503 0.362401
C56   C     C_3   0.729630 0.222242 0.750694 -0.374750
C57   C     C_3   0.171631 0.255013 0.680411 0.347821
C58   C     C_3   0.164156 0.174347 0.701459 -0.394503
C59   C     C_R   0.587053 0.516941 0.799838 -0.016138
H1    H     H_    0.016299 0.763118 0.407716 0.028569
H2    H     H_    0.082735 0.882746 0.373464 0.082929
H3    H     H_    0.138738 0.855592 0.822944 0.092540
H4    H     H_    0.929416 0.888826 0.846536 -0.068651
H5    H     H_    0.856307 0.737438 0.338127 0.003003
H6    H     H_    0.869086 0.895542 0.386882 0.092560
H7    H     H_    0.931048 0.333586 0.305891 -0.008245
H8    H     H_    0.127197 0.370878 0.305655 0.050579
H9    H     H_    0.975178 0.228213 0.173737 0.137100
H10   H     H_    0.999726 0.339835 0.181514 0.030262
H11   H     H_    0.174482 0.261290 0.173733 0.130606
H12   H     H_    0.662088 0.828972 0.823289 -0.023390
H13   H     H_    0.951480 0.852157 0.291491 0.195386
H14   H     H_    0.617989 0.311862 0.699502 0.025680
H15   H     H_    0.556468 0.200124 0.662163 -0.008672
H16   H     H_    0.828717 0.263756 0.775029 0.153517
H17   H     H_    0.636100 0.238291 0.794682 0.065169
H18   H     H_    0.775741 0.151017 0.734054 0.116605
H19   H     H_    0.296734 0.272954 0.690279 -0.024364
H20   H     H_    0.142839 0.236510 0.619247 0.084456
H21   H     H_    0.260387 0.121508 0.670768 0.074264
H22   H     H_    0.046561 0.147907 0.685203 0.153067
H23   H     H_    0.457326 0.260372 0.345843 0.055364
H24   H     H_    0.181689 0.192563 0.763383 0.116594
H25   H     H_    0.695500 0.546525 0.820099 0.111908
H26   H     H_    0.297745 0.400253 0.826223 0.064838
H27   H     H_    0.888814 0.582996 0.159432 0.099905
H28   H     H_    0.596605 0.379074 0.158607 0.046048
H29   H     H_    0.287122 0.541843 0.681788 0.021345
H30   H     H_    0.851388 0.520248 0.355049 0.043438
H31   H     H_    0.408268 0.300302 0.858043 0.060020
H32   H     H_    0.227112 0.265816 0.937898 0.075748
H33   H     H_    0.216330 0.351342 0.076335 0.071082
H34   H     H_    0.646823 0.294800 0.391558 0.123302
H35   H     H_    0.598987 0.832569 0.359308 -0.122105
H36   H     H_    0.399043 0.464666 0.133588 0.150098
H37   H     H_    0.014435 0.467670 0.075037 0.050261
H38   H     H_    0.181320 0.516524 0.000462 0.113888
H39   H     H_    0.092742 0.507399 0.874270 0.111809
H40   H     H_    0.847147 0.433295 0.823481 0.122204
H41   H     H_    0.097060 0.108046 0.412401 0.111419
H42   H     H_    0.066311 0.896346 0.606815 0.092785
H43   H     H_    0.777837 0.682284 0.500301 0.078386
H44   H     H_    0.706133 0.040721 0.481305 0.111221
H45   H     H_    0.612110 0.125511 0.253366 0.193872
H46   H     H_    0.280771 0.863041 0.279987 0.063590
H47   H     H_    0.452187 0.959739 0.539226 0.093875
H48   H     H_    0.342350 0.937012 0.368809 -0.054243
H49   H     H_    0.393668 0.715217 0.764818 0.042175
H50   H     H_    0.633367 0.980422 0.840931 0.012889
H51   H     H_    0.588286 0.976235 0.932690 0.096249
H52   H     H_    0.458226 0.044060 0.894366 0.074228
H53   H     H_    0.358365 0.910549 0.986502 0.348506
H54   H     H_    0.848304 0.663398 0.864906 0.375431
H55   H     H_    0.290567 0.016889 0.247175 0.342771
H56   H     H_    0.643768 0.133566 0.350397 0.136727
H57   H     H_    0.676091 0.698423 0.150776 0.380891
H58   H     H_    0.354248 0.351522 0.601762 -1.065884
H59   H     H_    0.275436 0.432855 0.556972 0.084657
H60   H     H_    0.456385 0.429517 0.588282 0.048374
H61   H     H_    0.544637 0.788571 0.624142 0.039865
H62   H     H_    0.581513 0.874710 0.713548 -0.074170
H63   H     H_    0.411833 0.890230 0.658864 0.049360
H64   H     H_    0.796018 0.161948 0.301140 0.119126
H65   H     H_    0.856375 0.771386 0.723553 0.038310
H66   H     H_    0.967496 0.855716 0.713400 -0.167688
O1    O     O_2   0.405910 0.437000 0.315050 -0.456890
O2    O     O_2   0.829332 0.190907 0.485796 -0.485053
O3    O     O_3   0.778439 0.213745 0.625727 -0.574484
O4    O     O_3   0.650250 0.445090 0.405140 -0.492483
O5    O     O_3   0.024090 0.610190 0.555810 -0.477175
O6    O     O_2   0.949630 0.279650 0.426400 -0.466121
O7    O     O_3   0.126885 0.242480 0.303131 -0.621943
O8    O     O_2   0.962649 0.491631 0.748561 -0.463417
O9    O     O_3   0.061038 0.325490 0.724816 -0.601017
O10   O     O_3   0.110870 0.602570 0.387980 -0.488994
O11   O     O_2   0.236257 0.540194 0.250877 -0.444602
O12   O     O_3   0.093304 0.728952 0.689831 -0.567278
O13   O     O_3   0.607722 0.295210 0.282365 -0.648438
O14   O     O_3   0.090350 0.702733 0.295443 -0.518483
O15   O     O_2   0.240060 0.720390 0.573650 -0.410409
O16   O     O_3   0.508300 0.651290 0.432440 -0.427316
O17   O     O_2   0.363645 0.805207 0.515923 -0.500560
O18   O     O_3   0.441414 0.910058 0.842778 -0.663063
O19   O     O_2   0.499783 0.698746 0.887437 -0.293312
O20   O     O_2   0.643148 0.823913 0.963120 -0.241009
O21   O     O_3   0.332802 0.849870 0.955099 -0.409999
O22   O     O_2   0.163747 0.683527 0.831847 -0.275731
O23   O     O_3   0.386590 0.786061 0.378234 -0.606661
O24   O     O_2   0.015256 0.793943 0.941043 -0.188932
O25   O     O_3   0.853221 0.694722 0.829407 -0.513538
O26   O     O_2   0.657972 0.959015 0.307683 -0.324483
O27   O     O_2   0.528806 0.880983 0.186783 -0.177321
O28   O     O_3   0.391867 0.034706 0.274265 -0.549917
O29   O     O_2   0.386165 0.709373 0.192087 -0.260150
O30   O     O_2   0.543961 0.634597 0.265318 -0.322906
O31   O     O_3   0.692907 0.726024 0.206137 -0.521417
O32   O     O_3   0.430517 0.325057 0.488967 -0.695019
O33   O     O_3   0.386702 0.800946 0.709817 -0.638065
O34   O     O_2   0.783780 0.563030 0.685000 -0.384488
O35   O     O_3   0.539430 0.554980 0.594880 -0.503046
O36   O     O_3   0.078810 0.397510 0.612040 -0.459883
O37   O     O_3   0.612041 0.703633 0.709043 -0.672001
O38   O     O_3   0.165590 0.389880 0.444220 -0.483765
O39   O     O_3   0.681380 0.348790 0.567580 -0.444288
P1    P     P_3+3 0.586140 0.411610 0.321630 1.000928
P2    P     P_3+3 0.070040 0.709050 0.593050 1.054585
P3    P     P_3+3 0.491381 0.765315 0.452682 0.992673
P4    P     P_3+3 0.603540 0.588460 0.678390 1.032796
P5    P     P_3+3 0.697976 0.234645 0.547289 1.014514
P6    P     P_3+3 0.084344 0.595820 0.295001 1.036330
P7    P     P_3+3 0.128022 0.277575 0.402003 0.988205
P8    P     P_3+3 0.099330 0.420174 0.708747 1.005681
S1    S     S_3+6 0.505185 0.796554 0.909784 -0.005014
S2    S     S_3+6 0.016541 0.749070 0.856214 -0.002844
S3    S     S_3+6 0.499639 0.939070 0.268844 -0.058044
S4    S     S_3+6 0.523918 0.716259 0.246218 -0.039438

loop_
_geom_bond_atom_site_label_1
_geom_bond_atom_site_label_2
_ccdc_geom_bond_type
C57   C58   S    
C38   C39   S    
O7    P7    S    
C53   H51   S    
O37   P4    S    
C17   C18   A    
Ba1   O1    S    
C28   O37   S    
Ba1   O5    S    
Ba2   O35   S    
C52   H4    S    
C43   C44   A    
C25   C31   A    
C28   O33   S    
C15   H31   S    
C24   C25   A    
C15   C21   A    
C2    P4    S    
C27   H37   S    
C28   H49   S    
C31   H40   S    
C7    C14   A    
C22   C24   A    
C45   H15   S    
C54   O32   S    
C8    C13   A    
C35   H41   S    
C11   H29   S    
C58   H22   S    
O20   S1    D    
C53   O18   S    
O23   P3    S    
Ba1   P1    S    
O38   P7    S    
C12   H1    S    
C5    P8    S    
C57   O9    S    
Ba1   Ba2   S    
C41   H44   S    
C52   S2    S    
C2    C11   A    
C1    H13   S    
C16   H46   S    
O10   P6    S    
C37   P5    S    
Ba1   O15   S    
C51   H66   S    
C56   H16   S    
C55   H61   S    
C58   H21   S    
C38   C41   S    
C8    H28   S    
C42   C44   S    
C6    C7    A    
H55   O28   S    
H54   O25   S    
C33   C47   A    
O1    P1    D    
Ba2   O5    S    
C16   H48   S    
C24   C27   A    
C29   H38   S    
Ba2   O39   S    
C17   H32   S    
C34   H10   S    
C49   O13   S    
O13   P1    S    
C12   O14   S    
O4    P1    S    
O39   P5    S    
C51   O12   S    
C19   C20   A    
C4    S4    S    
C9    P1    S    
C54   H59   S    
C23   H7    S    
O29   S4    D    
Ba2   O34   S    
C34   H9    S    
O26   S3    D    
C42   H47   S    
C4    C16   S    
O9    P8    S    
Ba2   O6    S    
C45   O3    S    
O11   P6    D    
C32   C37   D    
O21   S1    S    
O8    P8    D    
C57   H20   S    
C16   S3    S    
C47   P2    S    
C33   H43   S    
C51   H65   S    
C37   C38   S    
C3    C5    A    
C36   P7    S    
C53   H52   S    
Ba1   P2    S    
C51   C52   S    
C46   H42   S    
O15   P2    D    
O17   P3    D    
O14   P6    S    
C49   C50   S    
C30   C31   A    
C6    H27   S    
C3    H26   S    
C57   H19   S    
C41   C42   D    
C35   C36   D    
Ba1   O16   S    
C55   H62   S    
C19   H36   S    
C9    C14   A    
C29   C30   A    
O35   P4    S    
Ba1   O38   S    
O3    P5    S    
C50   H64   S    
O19   S1    D    
C33   C48   A    
Ba2   O4    S    
C12   H5    S    
C21   C26   A    
C4    O23   S    
C23   O7    S    
Ba2   O38   S    
O16   P3    S    
C1    C12   S    
C56   H18   S    
Ba2   P4    S    
O34   P4    D    
C13   C22   S    
C55   O33   S    
C10   C26   S    
Ba1   O35   S    
C6    C13   A    
C4    H35   S    
C8    C9    A    
C54   H58   S    
C20   C22   A    
H57   O31   S    
C23   H8    S    
Ba1   O10   S    
C43   C46   A    
C18   H33   S    
C46   C47   A    
C40   H12   S    
O24   S2    D    
C53   H50   S    
C32   C36   S    
O2    P5    D    
C1    H6    S    
O5    P2    S    
Ba1   O4    S    
Ba2   O36   S    
C58   H24   S    
C1    H2    S    
C44   C48   A    
C40   S1    S    
O22   S2    D    
C54   H60   S    
O31   S4    S    
C45   H14   S    
C27   C29   A    
C32   O32   S    
C55   H63   S    
C10   C59   A    
C40   O18   S    
C52   H3    S    
C2    C59   A    
C15   C17   A    
C48   P3    S    
O30   S4    D    
C35   C39   S    
O12   P2    S    
H53   O21   S    
C59   H25   S    
C56   H17   S    
C23   C34   S    
C50   H45   S    
O25   S2    S    
O27   S3    D    
C30   H39   S    
C5    C11   A    
C18   C19   A    
C14   H30   S    
C50   H56   S    
O28   S3    S    
C25   C26   A    
C20   C21   A    
C28   C40   S    
C7    P6    S    
O36   P8    S    
O6    P7    D    
C49   H23   S    
C34   H11   S    
C49   H34   S    
C45   C56   S    
C3    C10   A    
