data_mof_unit_13556.cif
_audit_creation_date              2012-12-11T14:56:30-0500
_audit_creation_method            fapswitch 2.2
_symmetry_space_group_name_H-M    P1
_symmetry_Int_Tables_number       1
_space_group_crystal_system       triclinic
_cell_length_a                    10.582522
_cell_length_b                    10.703344
_cell_length_c                    17.133171
_cell_angle_alpha                 80.384456
_cell_angle_beta                  89.732585
_cell_angle_gamma                 119.278855
_cell_volume                      1660.51114514

loop_
_atom_site_label
_atom_site_type_symbol
_atom_type_description
_atom_site_fract_x
_atom_site_fract_y
_atom_site_fract_z
_atom_type_partial_charge
C1    C     C_R   0.224087 0.855226 0.128970 0.602067
C2    C     C_R   0.796482 0.438672 0.260950 -0.093252
C3    C     C_R   0.786131 0.424536 0.182353 0.214729
C4    C     C_R   0.648701 0.338205 0.158039 0.039265
C5    C     C_1   0.668801 0.848576 0.205419 -0.017407
C6    C     C_1   0.680504 0.839041 0.274788 -0.022255
C7    C     C_1   0.181877 0.826596 0.211459 -0.015723
C8    C     C_1   0.152111 0.820304 0.279975 -0.044691
C9    C     C_1   0.644786 0.324705 0.778319 -0.059857
C10   C     C_1   0.652340 0.346990 0.707780 -0.031934
C11   C     C_R   0.626016 0.713847 0.804723 -0.129252
C12   C     C_R   0.635910 0.279298 0.086569 0.576011
C13   C     C_R   0.614324 0.697912 0.726647 -0.126464
C14   C     C_R   0.670542 0.821597 0.665525 0.039615
C15   C     C_R   0.745995 0.961728 0.682707 -0.118682
C16   C     C_R   0.754814 0.977916 0.761408 -0.123001
C17   C     C_R   0.689128 0.853516 0.822483 0.030268
C18   C     C_R   0.264429 0.967205 0.757943 -0.091842
C19   C     C_R   0.249078 0.953826 0.679368 0.214503
C20   C     C_R   0.159817 0.815325 0.661695 0.041661
C21   C     C_R   0.099944 0.690053 0.722664 -0.170314
C22   C     C_R   0.118507 0.704165 0.801375 -0.148206
C23   C     C_R   0.640282 0.858450 0.125387 0.550148
C24   C     C_R   0.194945 0.843379 0.818985 -0.004301
C25   C     C_R   0.686761 0.809709 0.357169 0.548401
C26   C     C_R   0.688896 0.395548 0.395056 0.566458
C27   C     C_R   0.103885 0.810380 0.359274 0.548196
C28   C     C_R   0.677984 0.799626 0.585650 0.541113
C29   C     C_R   0.679605 0.383884 0.624713 0.600102
C30   C     C_R   0.100524 0.802142 0.585686 0.580369
C31   C     C_R   0.224730 0.863996 0.899057 0.566772
C32   C     C_R   0.637564 0.284870 0.861056 0.541441
C33   C     C_R   0.646972 0.867139 0.899309 0.544114
C34   C     C_R   0.522014 0.281313 0.210723 -0.167526
C35   C     C_R   0.533251 0.298155 0.289206 -0.146918
C36   C     C_R   0.670882 0.370499 0.315021 -0.007450
Cr1   Cr    Cr6+3 0.402240 0.783890 0.019450 1.086530
Cr2   Cr    Cr6+3 0.382360 0.097900 0.991800 1.035423
Cr3   Cr    Cr6+3 0.715380 0.118170 0.988700 1.062701
Cr4   Cr    Cr6+3 0.936650 0.882420 0.465510 1.069166
Cr5   Cr    Cr6+3 0.605770 0.565620 0.493360 1.083773
Cr6   Cr    Cr6+3 0.921340 0.550490 0.496380 1.038234
H1    H     H_    0.414591 0.215180 0.192986 0.156048
H2    H     H_    0.030797 0.582069 0.710161 0.150623
H3    H     H_    0.069971 0.607842 0.848298 0.153430
H4    H     H_    0.435826 0.250924 0.330076 0.156503
H5    H     H_    0.903250 0.504039 0.279728 0.163689
H6    H     H_    0.576240 0.616940 0.851305 0.137350
H7    H     H_    0.563385 0.588558 0.714108 0.142474
H8    H     H_    0.795615 0.057559 0.635492 0.140716
H9    H     H_    0.803333 0.086944 0.774194 0.145356
H10   H     H_    0.332385 0.074760 0.771320 0.160137
O1    O     O_R   0.521780 0.757110 0.108900 -0.503445
O2    O     O_R   0.513330 0.228330 0.898660 -0.506010
O3    O     O_R   0.739230 0.266130 0.888050 -0.511196
O4    O     O_R   0.712580 0.991850 0.918770 -0.507662
O5    O     O_3   0.499990 0.999980 0.999980 -0.281902
O6    O     O_R   0.083770 0.911170 0.376030 -0.500804
O7    O     O_R   0.808770 0.880340 0.383890 -0.495325
O8    O     O_R   0.584340 0.689460 0.394160 -0.504419
O9    O     O_R   0.614320 0.443940 0.423590 -0.476602
O10   O     O_R   0.805020 0.410040 0.421340 -0.517401
O11   O     O_R   0.049240 0.685450 0.403290 -0.502057
O12   O     O_R   0.275160 0.783810 0.101120 -0.449887
O13   O     O_R   0.077520 0.903010 0.551800 -0.452473
O14   O     O_R   0.802980 0.872780 0.546830 -0.500768
O15   O     O_R   0.578090 0.681300 0.569920 -0.514657
O16   O     O_R   0.608530 0.436370 0.586530 -0.457036
O17   O     O_R   0.798770 0.401880 0.597100 -0.523535
O18   O     O_R   0.043450 0.677890 0.566230 -0.521477
O19   O     O_3   0.821250 0.666180 0.485090 -0.285047
O20   O     O_R   0.237900 0.972600 0.090980 -0.516768
O21   O     O_R   0.511190 0.220540 0.061620 -0.525468
O22   O     O_R   0.736920 0.257720 0.063840 -0.450029
O23   O     O_R   0.710450 0.984050 0.081720 -0.493767
O24   O     O_R   0.524090 0.765520 0.933110 -0.514368
O25   O     O_R   0.277300 0.791600 0.938160 -0.476707
O26   O     O_R   0.240210 0.981010 0.915190 -0.516402
Cl1   Cl    Cl    0.340400 0.112922 0.605170 -0.603997
Cl2   Cl    Cl    0.947439 0.513683 0.117108 -0.599100

loop_
_geom_bond_atom_site_label_1
_geom_bond_atom_site_label_2
_ccdc_geom_bond_type
Cr4   O19   S    
C12   O22   A    
C19   C20   A    
C16   H9    S    
Cr5   O9    S    
C18   H10   S    
C7    C8    T    
Cr5   O15   S    
Cr2   O20   S    
C20   C30   S    
C18   C24   A    
C26   O9    A    
C18   C19   A    
C5    C6    T    
C15   H8    S    
C6    C25   S    
C15   C16   A    
C29   O16   A    
Cr6   O18   S    
C34   C35   A    
Cr3   O22   S    
C9    C32   S    
Cr3   O3    S    
C35   C36   A    
C16   C17   A    
C5    C23   S    
C12   O21   A    
C31   O25   A    
C25   O8    A    
Cr3   O23   S    
C4    C12   S    
C9    C10   T    
Cr6   O10   S    
C32   O3    A    
Cr5   O19   S    
Cr1   O1    S    
C33   O4    A    
Cr4   O7    S    
Cr4   O14   S    
C13   C14   A    
C11   H6    S    
C17   C33   S    
C3    Cl2   S    
C32   O2    A    
C30   O18   A    
C23   O1    A    
Cr5   O16   S    
C29   O17   A    
C4    C34   A    
C1    O20   A    
Cr4   O6    S    
C28   O15   A    
Cr2   O26   S    
Cr1   O25   S    
Cr6   O17   S    
C28   O14   A    
C21   H2    S    
C33   O24   A    
Cr3   O4    S    
Cr2   O2    S    
C19   Cl1   S    
C27   O11   A    
C13   H7    S    
C26   C36   S    
Cr1   O24   S    
Cr4   O13   S    
C22   C24   A    
C3    C4    A    
C1    O12   A    
Cr1   O12   S    
C31   O26   A    
C2    C36   A    
C11   C17   A    
C1    C7    S    
C34   H1    S    
Cr5   O8    S    
C23   O23   A    
C27   O6    A    
C2    H5    S    
C2    C3    A    
C26   O10   A    
C24   C31   S    
C11   C13   A    
C10   C29   S    
Cr2   O5    S    
Cr6   O19   S    
C30   O13   A    
C22   H3    S    
C20   C21   A    
C8    C27   S    
C14   C15   A    
C25   O7    A    
C14   C28   S    
C21   C22   A    
C35   H4    S    
Cr6   O11   S    
Cr1   O5    S    
Cr2   O21   S    
Cr3   O5    S    
