data_mof_unit_54144.cif
_audit_creation_date              2012-10-26T20:18:37-0400
_audit_creation_method            fapswitch 2.2
_symmetry_space_group_name_H-M    P1
_symmetry_Int_Tables_number       1
_space_group_crystal_system       triclinic
_cell_length_a                    10.71751
_cell_length_b                    11.077344
_cell_length_c                    9.979625
_cell_angle_alpha                 111.086063
_cell_angle_beta                  98.375927
_cell_angle_gamma                 93.757931
_cell_volume                      1084.70782459

loop_
_atom_site_label
_atom_site_type_symbol
_atom_type_description
_atom_site_fract_x
_atom_site_fract_y
_atom_site_fract_z
_atom_type_partial_charge
Br1   Br    Br    0.334505 0.837664 0.336157 -0.567487
C1    C     C_R   0.493750 0.255040 0.440709 0.527116
C2    C     C_2   0.487622 0.487641 0.919257 0.127751
C3    C     C_R   0.260390 0.501247 0.500479 0.547734
C4    C     C_R   0.506446 0.745087 0.559291 0.572563
C5    C     C_R   0.739806 0.501211 0.499663 0.531227
C6    C     C_3   0.069729 0.382173 0.530971 -0.217820
C7    C     C_3   0.923568 0.376268 0.522403 -0.107325
C8    C     C_3   0.096393 0.627666 0.619277 -0.238861
C9    C     C_3   0.050642 0.493461 0.349199 -0.227609
C10   C     C_3   0.122265 0.501326 0.500136 0.034474
C11   C     C_3   0.645184 0.139365 0.626300 -0.386386
C12   C     C_3   0.877724 0.499403 0.497794 0.066295
C13   C     C_3   0.379746 0.381250 0.827499 -0.313268
C14   C     C_3   0.620006 0.618950 0.172478 -0.303081
C15   C     C_3   0.855524 0.246064 0.405138 -0.422029
C16   C     C_3   0.952739 0.623727 0.622391 -0.250302
C17   C     C_3   0.908959 0.501754 0.351394 -0.232393
C18   C     C_2   0.481730 0.115813 0.408392 -0.094756
C19   C     C_2   0.531608 0.065815 0.506069 -0.014781
C20   C     C_2   0.522420 0.884224 0.591491 -0.096041
C21   C     C_2   0.478012 0.933717 0.491505 0.138404
C22   C     C_2   0.512394 0.512285 0.080704 0.142254
Cu1   Cu    Cu3+1 0.522160 0.521810 0.644910 0.907578
Cu2   Cu    Cu3+1 0.477840 0.478190 0.355090 0.940553
H1    H     H_    0.115151 0.389959 0.641894 0.105905
H2    H     H_    0.902114 0.378400 0.629114 0.133728
H3    H     H_    0.148879 0.638477 0.728578 0.144924
H4    H     H_    0.936511 0.624818 0.730460 0.133870
H5    H     H_    0.090974 0.574565 0.320933 0.164012
H6    H     H_    0.061988 0.399994 0.262273 0.126896
H7    H     H_    0.852143 0.420073 0.255839 0.137934
H8    H     H_    0.719721 0.074354 0.626493 0.102290
H9    H     H_    0.692731 0.223824 0.610617 0.156777
H10   H     H_    0.614741 0.173688 0.734125 0.139444
H11   H     H_    0.401193 0.287425 0.836481 0.084935
H12   H     H_    0.884576 0.593872 0.339203 0.111971
H13   H     H_    0.290038 0.407261 0.867625 0.083716
H14   H     H_    0.358693 0.361013 0.711440 0.203327
H15   H     H_    0.709722 0.593289 0.132223 0.061190
H16   H     H_    0.598186 0.712704 0.163546 0.118935
H17   H     H_    0.641291 0.639014 0.288497 0.196915
H18   H     H_    0.881327 0.164080 0.438358 0.126700
H19   H     H_    0.750864 0.243648 0.391774 0.149316
H20   H     H_    0.883611 0.229438 0.297773 0.140061
H21   H     H_    0.130447 0.714214 0.596484 0.138509
H22   H     H_    0.918898 0.712945 0.610683 0.108878
H23   H     H_    0.585171 0.943592 0.693023 0.068486
H24   H     H_    0.416778 0.056515 0.308852 0.150226
H25   H     H_    0.628310 0.625441 0.927880 0.199586
H26   H     H_    0.096004 0.291328 0.452342 0.120530
H27   H     H_    0.372379 0.373805 0.071918 0.197850
N1    N     N_2   0.444530 0.445420 0.137360 -0.334659
N2    N     N_2   0.555520 0.554510 0.862630 -0.344645
O1    O     O_R   0.511820 0.332340 0.577400 -0.506303
O2    O     O_R   0.474400 0.295500 0.332650 -0.496729
O3    O     O_R   0.336400 0.518400 0.622370 -0.515560
O4    O     O_R   0.298980 0.481560 0.377620 -0.485044
O5    O     O_R   0.525600 0.704500 0.667350 -0.496280
O6    O     O_R   0.488180 0.667660 0.422600 -0.456878
O7    O     O_R   0.701020 0.518440 0.622380 -0.509360
O8    O     O_R   0.663600 0.481600 0.377630 -0.525262

loop_
_geom_bond_atom_site_label_1
_geom_bond_atom_site_label_2
_ccdc_geom_bond_type
C3    O3    A    
C15   H20   S    
C8    H3    S    
C7    C12   S    
Cu2   O6    S    
C13   H13   S    
C16   H4    S    
C15   H19   S    
C2    C22   S    
C18   C19   D    
Cu2   O2    S    
C12   C16   S    
Cu2   O8    S    
C20   H23   S    
C5    O8    A    
C14   C22   S    
Cu1   O7    S    
C6    H26   S    
Br1   C21   S    
C7    C15   S    
C1    O2    A    
C20   C21   D    
H27   N1    S    
C3    C10   S    
C6    C10   S    
C8    C10   S    
C15   H18   S    
C11   C19   S    
H25   N2    S    
C2    C13   S    
C6    H1    S    
C12   C17   S    
C9    C17   S    
Cu1   O5    S    
C5    O7    A    
C8    C16   S    
C17   H12   S    
Cu2   N1    S    
C22   N1    D    
C1    O1    A    
C13   H11   S    
C13   H14   S    
C2    N2    D    
C11   H10   S    
C14   H15   S    
C17   H7    S    
C9    C10   S    
C4    O5    A    
C11   H9    S    
C9    H5    S    
C8    H21   S    
C4    C20   S    
Cu1   Cu2   S    
C14   H16   S    
C5    C12   S    
C6    C7    S    
Cu2   O4    S    
C3    O4    A    
C7    H2    S    
C18   H24   S    
C4    O6    A    
C11   H8    S    
C1    C18   S    
Cu1   N2    S    
C9    H6    S    
C16   H22   S    
C14   H17   S    
C19   C21   S    
Cu1   O3    S    
Cu1   O1    S    
