data_mof_unit_15335.cif
_audit_creation_date              2012-12-10T18:52:18-0500
_audit_creation_method            fapswitch 2.2
_symmetry_space_group_name_H-M    P1
_symmetry_Int_Tables_number       1
_space_group_crystal_system       triclinic
_cell_length_a                    15.728945
_cell_length_b                    10.713747
_cell_length_c                    9.841559
_cell_angle_alpha                 89.985481
_cell_angle_beta                  89.980879
_cell_angle_gamma                 90.13868
_cell_volume                      1658.45453551

loop_
_atom_site_label
_atom_site_type_symbol
_atom_type_description
_atom_site_fract_x
_atom_site_fract_y
_atom_site_fract_z
_atom_type_partial_charge
C1    C     C_R   0.499938 0.259878 0.499965 0.861393
C2    C     C_R   0.451450 0.416509 0.072028 -0.072711
C3    C     C_R   0.337850 0.499897 0.499998 0.909352
C4    C     C_R   0.662150 0.500102 0.500002 0.909351
C5    C     C_3   0.971358 0.406672 0.580299 -0.212021
C6    C     C_3   0.028642 0.593326 0.419702 -0.212026
C7    C     C_3   0.027220 0.391121 0.452595 0.160417
C8    C     C_3   0.972780 0.608877 0.547406 0.160421
C9    C     C_1   0.248956 0.499843 0.500065 -0.191723
C10   C     C_1   0.751044 0.500156 0.499935 -0.191723
C11   C     C_3   0.028322 0.516592 0.628329 -0.209763
C12   C     C_R   0.500062 0.740122 0.500035 0.861394
C13   C     C_3   0.971678 0.483406 0.371672 -0.209765
C14   C     C_3   0.082845 0.499789 0.500084 0.145773
C15   C     C_3   0.917155 0.500208 0.499916 0.145774
C16   C     C_1   0.173693 0.499825 0.500121 -0.085125
C17   C     C_1   0.826307 0.500173 0.499879 -0.085125
C18   C     C_R   0.482827 0.063876 0.379095 -0.198323
C19   C     C_R   0.517173 0.936124 0.620905 -0.198323
C20   C     C_3   0.061397 0.267188 0.399109 -0.430003
C21   C     C_3   0.988785 0.179255 0.358594 -0.333351
C22   C     C_3   0.022938 0.054280 0.308583 -0.889604
C23   C     C_R   0.482923 0.936025 0.379093 -0.199983
C24   C     C_3   0.938603 0.732809 0.600891 -0.430012
C25   C     C_3   0.011215 0.820733 0.641428 -0.333352
C26   C     C_3   0.977062 0.945707 0.691443 -0.889585
C27   C     C_R   0.517076 0.063975 0.620907 -0.199983
C28   C     C_R   0.500074 0.872562 0.500005 -0.009584
C29   C     C_R   0.499926 0.127437 0.499995 -0.009584
C30   C     C_R   0.548569 0.583522 0.071860 -0.074399
C31   C     C_R   0.451431 0.416478 0.928140 -0.074398
C32   C     C_R   0.548549 0.583491 0.927971 -0.072710
H1    H     H_    0.468896 0.112542 0.285186 0.151848
H2    H     H_    0.062521 0.009819 0.388338 0.263451
H3    H     H_    0.969055 0.991024 0.284100 0.248552
H4    H     H_    0.946605 0.162666 0.447368 0.218708
H5    H     H_    0.950385 0.222500 0.276380 0.220373
H6    H     H_    0.102580 0.285935 0.309589 0.202245
H7    H     H_    0.100591 0.223174 0.479850 0.203302
H8    H     H_    0.937492 0.990179 0.611677 0.263449
H9    H     H_    0.938036 0.932088 0.784385 0.260466
H10   H     H_    0.030945 0.008954 0.715956 0.248551
H11   H     H_    0.049606 0.777478 0.723646 0.220373
H12   H     H_    0.531104 0.887458 0.714813 0.151848
H13   H     H_    0.053401 0.837326 0.552662 0.218713
H14   H     H_    0.899418 0.776831 0.520144 0.203300
H15   H     H_    0.897411 0.714060 0.690400 0.202247
H16   H     H_    0.946157 0.330102 0.644937 0.137761
H17   H     H_    0.053843 0.669896 0.355065 0.137763
H18   H     H_    0.946704 0.469147 0.267316 0.136085
H19   H     H_    0.053296 0.530852 0.732684 0.136082
H20   H     H_    0.469073 0.887277 0.285175 0.156414
H21   H     H_    0.530928 0.112723 0.714825 0.156414
H22   H     H_    0.587411 0.650282 0.126306 0.126579
H23   H     H_    0.412589 0.349718 0.873694 0.126578
H24   H     H_    0.587380 0.650230 0.873388 0.122507
H25   H     H_    0.412620 0.349770 0.126612 0.122508
H26   H     H_    0.061948 0.067894 0.215625 0.260470
N1    N     N_R   0.499980 0.499970 0.857200 -0.078763
N2    N     N_R   0.500020 0.500030 0.142800 -0.078762
O1    O     O_R   0.499990 0.316750 0.614620 -0.630058
O2    O     O_R   0.500010 0.683250 0.385380 -0.630058
O3    O     O_R   0.500000 0.316780 0.385290 -0.628837
O4    O     O_R   0.500000 0.683220 0.614710 -0.628837
O5    O     O_R   0.376780 0.499970 0.614640 -0.612472
O6    O     O_R   0.623220 0.500030 0.385360 -0.612472
O7    O     O_R   0.376780 0.500000 0.385310 -0.615100
O8    O     O_R   0.623220 0.500000 0.614690 -0.615100
Zn1   Zn    Zn3+2 0.500000 0.499980 0.653120 0.946586
Zn2   Zn    Zn3+2 0.500000 0.500020 0.346880 0.946586

loop_
_geom_bond_atom_site_label_1
_geom_bond_atom_site_label_2
_ccdc_geom_bond_type
C22   H26   S    
C30   C32   A    
C24   C25   S    
C27   H21   S    
C3    C9    S    
C27   C29   A    
C20   H6    S    
O3    Zn2   S    
N2    Zn2   S    
O7    Zn2   S    
C24   H14   S    
C22   H3    S    
C25   H11   S    
C18   C29   A    
C1    C29   S    
C20   H7    S    
C2    H25   S    
C21   H5    S    
C6    C14   S    
C21   H4    S    
C3    O5    A    
C23   C28   A    
C20   C21   S    
C6    C13   S    
C4    O6    A    
C19   C28   A    
C30   H22   S    
O2    Zn2   S    
C26   H8    S    
C23   H20   S    
O6    Zn2   S    
C12   C28   S    
C8    C11   S    
O5    Zn1   S    
C1    O3    A    
C19   C27   A    
C8    C24   S    
C9    C16   T    
N1    Zn1   S    
C4    C10   S    
C5    C11   S    
C8    C15   S    
C2    N2    A    
C13   C15   S    
C6    H17   S    
C32   H24   S    
C22   H2    S    
C5    H16   S    
C14   C16   S    
C5    C15   S    
C11   H19   S    
C18   H1    S    
C10   C17   T    
C31   N1    A    
C13   H18   S    
C25   H13   S    
C7    C13   S    
C12   O2    A    
C19   H12   S    
C26   H10   S    
C15   C17   S    
C7    C20   S    
O1    Zn1   S    
C11   C14   S    
C5    C7    S    
C12   O4    A    
C2    C31   A    
C6    C8    S    
C32   N1    A    
C31   H23   S    
C25   C26   S    
C21   C22   S    
C24   H15   S    
C4    O8    A    
O4    Zn1   S    
C7    C14   S    
C3    O7    A    
C18   C23   A    
C26   H9    S    
C1    O1    A    
O8    Zn1   S    
C30   N2    A    
