data_mof_unit_20538.cif
_audit_creation_date              2012-12-11T19:16:02-0500
_audit_creation_method            fapswitch 2.2
_symmetry_space_group_name_H-M    P1
_symmetry_Int_Tables_number       1
_space_group_crystal_system       triclinic
_cell_length_a                    8.240444
_cell_length_b                    14.912118
_cell_length_c                    18.885785
_cell_angle_alpha                 101.618212
_cell_angle_beta                  91.948539
_cell_angle_gamma                 98.716958
_cell_volume                      2241.93068232

loop_
_atom_site_label
_atom_site_type_symbol
_atom_type_description
_atom_site_fract_x
_atom_site_fract_y
_atom_site_fract_z
_atom_type_partial_charge
Ba1   Ba    Ba6+2 0.853510 0.540900 0.466480 1.744957
Ba2   Ba    Ba6+2 0.336320 0.459170 0.533530 1.739186
C1    C     C_3   0.712785 0.870980 0.290251 -0.294067
C2    C     C_3   0.668032 0.778206 0.312588 0.339552
C3    C     C_3   0.451385 0.324308 0.309570 0.350315
C4    C     C_3   0.391269 0.297897 0.229257 -0.286546
C5    C     C_3   0.019082 0.271469 0.716703 0.371093
C6    C     C_3   0.999667 0.245075 0.789999 -0.297228
C7    C     C_3   0.535513 0.245361 0.769546 0.738859
C8    C     C_3   0.469791 0.218731 0.838515 -0.246336
C9    C     C_R   0.989726 0.463553 0.048430 0.002606
C10   C     C_R   0.894470 0.415609 0.094141 -0.079325
C11   C     C_R   0.760052 0.442094 0.954693 -0.098620
C12   C     C_3   0.132067 0.718930 0.267175 0.334717
C13   C     C_R   0.928163 0.469035 0.978028 0.024544
C14   C     C_R   0.703834 0.442170 0.884378 -0.103515
C15   C     C_R   0.812773 0.465528 0.833204 -0.027592
C16   C     C_R   0.977598 0.504350 0.857205 0.009782
C17   C     C_R   0.035592 0.506671 0.930199 0.029026
C18   C     C_R   0.761335 0.452274 0.759044 -0.029540
C19   C     C_R   0.871415 0.483927 0.710834 -0.265568
C20   C     C_R   0.028804 0.533405 0.734564 -0.002558
C21   C     C_R   0.082775 0.543094 0.809009 -0.048276
C22   C     C_R   0.153811 0.503945 0.073265 0.027606
C23   C     C_3   0.111308 0.742447 0.193019 -0.324368
C24   C     C_R   0.211903 0.504481 0.145982 0.000283
C25   C     C_R   0.107664 0.462858 0.193289 -0.060266
C26   C     C_R   0.953425 0.414226 0.164037 -0.000592
C27   C     C_R   0.237200 0.591524 0.837527 0.016098
C28   C     C_R   0.295918 0.592508 0.907828 -0.070307
C29   C     C_R   0.199813 0.547146 0.954836 0.003504
C30   C     C_R   0.260061 0.544425 0.026234 0.021986
C31   C     C_R   0.425139 0.578812 0.051807 -0.099361
C32   C     C_R   0.374986 0.545844 0.170918 -0.032741
C33   C     C_R   0.480596 0.579811 0.122269 -0.090657
C34   C     C_3   0.107650 0.765777 0.683153 0.669796
C35   C     C_R   0.428304 0.551951 0.243793 -0.007677
C36   C     C_R   0.319360 0.518701 0.291636 -0.305219
C37   C     C_R   0.161593 0.470772 0.267758 0.035913
C38   C     C_R   0.354395 0.814986 0.437193 0.028238
C39   C     C_R   0.584914 0.789634 0.510820 0.078401
C40   C     C_R   0.777094 0.227948 0.503374 -0.273231
C41   C     C_R   0.872190 0.170217 0.529409 0.028886
C42   C     C_R   0.812979 0.075419 0.520296 -0.052573
C43   C     C_R   0.654042 0.037257 0.486724 0.063295
C44   C     C_R   0.562355 0.096444 0.456963 0.013823
C45   C     C_3   0.055044 0.826374 0.752575 0.341003
C46   C     C_R   0.582507 0.942618 0.482043 -0.009832
C47   C     C_R   0.426384 0.908225 0.443424 -0.029574
C48   C     C_R   0.344043 0.967661 0.412298 -0.079668
C49   C     C_R   0.409906 0.059704 0.419329 -0.015054
C50   C     C_R   0.656068 0.882476 0.517886 -0.144950
C51   C     C_R   0.442432 0.754516 0.465222 -0.180311
C52   C     C_R   0.624430 0.191711 0.466033 0.008440
C53   C     C_3   0.898647 0.235218 0.326303 0.821529
C54   C     C_3   0.969371 0.167210 0.364681 -0.324793
C55   C     C_3   0.683682 0.674209 0.692098 0.407419
C56   C     C_3   0.630619 0.703665 0.768161 -0.309985
H1    H     H_    0.730780 0.782875 0.366561 0.067042
H2    H     H_    0.977604 0.875881 0.737055 0.052128
H3    H     H_    0.979128 0.779743 0.782183 -0.079730
H4    H     H_    0.820666 0.275823 0.362647 -0.143971
H5    H     H_    0.050070 0.126792 0.328325 0.148147
H6    H     H_    0.044781 0.205639 0.414582 0.056957
H7    H     H_    0.803146 0.650973 0.696052 -0.200498
H8    H     H_    0.595599 0.613619 0.663674 0.093968
H9    H     H_    0.847987 0.887468 0.286887 0.154257
H10   H     H_    0.709746 0.767792 0.797942 0.121005
H11   H     H_    0.635138 0.647627 0.798522 0.059254
H12   H     H_    0.505235 0.718794 0.764333 0.181484
H13   H     H_    0.672716 0.926967 0.330670 0.079023
H14   H     H_    0.357780 0.357699 0.340853 -0.006521
H15   H     H_    0.567763 0.374313 0.315938 0.058075
H16   H     H_    0.407426 0.225916 0.204514 0.213632
H17   H     H_    0.459846 0.346326 0.198899 0.064955
H18   H     H_    0.258895 0.301083 0.222072 0.095084
H19   H     H_    0.650556 0.868328 0.236564 0.141664
H20   H     H_    0.161351 0.691920 0.151529 0.072429
H21   H     H_    0.111289 0.336144 0.724301 0.056047
H22   H     H_    0.897894 0.284516 0.696723 -0.025607
H23   H     H_    0.117866 0.231543 0.811312 0.129937
H24   H     H_    0.960403 0.302201 0.829320 0.046835
H25   H     H_    0.906230 0.182045 0.784697 0.176260
H26   H     H_    0.561375 0.185843 0.864461 0.108531
H27   H     H_    0.352987 0.168629 0.826154 0.166944
H28   H     H_    0.059481 0.649448 0.265997 0.077862
H29   H     H_    0.829966 0.475230 0.654463 0.066030
H30   H     H_    0.573337 0.423627 0.870530 0.082496
H31   H     H_    0.873563 0.376321 0.195343 0.156972
H32   H     H_    0.316244 0.628415 0.805584 0.125329
H33   H     H_    0.608376 0.607949 0.137669 0.112965
H34   H     H_    0.667682 0.422874 0.990467 0.073594
H35   H     H_    0.773727 0.376419 0.076664 0.084179
H36   H     H_    0.264526 0.717353 0.278465 -0.080608
H37   H     H_    0.516588 0.604789 0.018350 0.076210
H38   H     H_    0.388901 0.682181 0.459178 0.078421
H39   H     H_    0.226520 0.944418 0.382060 0.092056
H40   H     H_    0.765670 0.906310 0.553555 0.130289
H41   H     H_    0.892399 0.034072 0.540947 0.102382
H42   H     H_    0.338027 0.101270 0.394510 0.089090
H43   H     H_    0.978944 0.740132 0.178066 0.149906
H44   H     H_    0.178941 0.813057 0.193773 0.132690
H45   H     H_    0.996781 0.724957 0.652606 -0.076491
O1    O     O_2   0.871970 0.437290 0.322980 -0.483876
O2    O     O_3   0.695136 0.750611 0.658301 -0.614037
O3    O     O_3   0.074263 0.786157 0.318964 -0.616633
O4    O     O_2   0.317740 0.562750 0.677070 -0.464219
O5    O     O_3   0.068290 0.555610 0.587550 -0.472284
O6    O     O_3   0.528280 0.392520 0.627490 -0.467635
O7    O     O_3   0.220380 0.708941 0.698390 -0.614380
O8    O     O_3   0.609300 0.386850 0.459730 -0.492388
O9    O     O_3   0.105720 0.342720 0.589770 -0.507228
O10   O     O_2   0.215816 0.181826 0.546807 -0.443333
O11   O     O_3   0.074033 0.198857 0.668717 -0.516047
O12   O     O_3   0.121420 0.444460 0.412460 -0.486838
O13   O     O_3   0.580410 0.613230 0.540280 -0.510284
O14   O     O_2   0.337420 0.273080 0.457680 -0.472880
O15   O     O_3   0.479006 0.244643 0.333858 -0.589002
O16   O     O_2   0.442570 0.475562 0.752784 -0.501572
O17   O     O_3   0.434603 0.302063 0.744022 -0.607754
O18   O     O_3   0.661430 0.607560 0.372520 -0.497436
O19   O     O_2   0.760153 0.535960 0.245389 -0.496006
O20   O     O_3   0.031568 0.290517 0.304620 -0.664691
O21   O     O_3   0.719782 0.708338 0.260989 -0.594602
O22   O     O_2   0.852280 0.726960 0.542370 -0.426891
O23   O     O_3   0.083990 0.657360 0.410240 -0.459587
O24   O     O_2   0.020360 0.824965 0.456400 -0.420926
P1    P     P_3+3 0.039440 0.410950 0.333260 0.979162
P2    P     P_3+3 0.676740 0.714970 0.563520 1.059857
P3    P     P_3+3 0.134419 0.772703 0.405388 1.034010
P4    P     P_3+3 0.150270 0.589130 0.666750 1.016943
P5    P     P_3+3 0.067943 0.222392 0.581505 1.059160
P6    P     P_3+3 0.641504 0.600326 0.279828 0.933892
P7    P     P_3+3 0.513998 0.272078 0.428364 0.968675
P8    P     P_3+3 0.547332 0.401819 0.721707 0.940666
S1    S     S_3+6 0.218538 0.891602 0.815662 -0.004342
O25   O     O_2   0.319779 0.963721 0.783231 -0.188743
O26   O     O_2   0.144180 0.939717 0.881410 -0.269595
O27   O     O_3   0.337879 0.820147 0.841234 -0.538916
H46   H     H_    0.443752 0.860608 0.860008 0.363107
S2    S     S_3+6 0.781749 0.168338 0.246224 -0.080061
O28   O     O_2   0.646141 0.100483 0.266282 -0.313312
O29   O     O_2   0.710295 0.231758 0.205954 -0.362759
O30   O     O_3   0.907250 0.109511 0.192511 -0.512373
H47   H     H_    0.853066 0.097147 0.142812 0.370062
H48   H     H_    0.868056 0.116941 0.378688 0.053257
H49   H     H_    0.532778 0.764954 0.316068 -0.086474
H50   H     H_    0.665590 0.278630 0.781727 -0.172904
S3    S     S_3+6 0.529461 0.142511 0.702290 -0.035744
O31   O     O_2   0.612633 0.073734 0.731524 -0.258922
O32   O     O_2   0.354797 0.099620 0.676412 -0.199947
O33   O     O_3   0.629964 0.171511 0.632784 -0.577360
H51   H     H_    0.563721 0.212757 0.614530 0.330052
H52   H     H_    0.445870 0.280411 0.877837 0.030924
H53   H     H_    0.361789 0.525032 0.347531 0.067069
H54   H     H_    0.417299 0.631270 0.923940 0.074521
H55   H     H_    0.824016 0.301382 0.511051 0.061642
S4    S     S_3+6 0.202726 0.831548 0.623517 -0.023102
O34   O     O_2   0.201660 0.759015 0.556359 -0.353462
O35   O     O_2   0.107759 0.906113 0.609023 -0.295098
O36   O     O_3   0.398701 0.876078 0.653038 -0.451427
H56   H     H_    0.433756 0.922543 0.623472 0.380836

loop_
_geom_bond_atom_site_label_1
_geom_bond_atom_site_label_2
_ccdc_geom_bond_type
C55   O2    S    
C53   C54   S    
C19   H29   S    
C8    H27   S    
C53   S2    S    
O10   P5    D    
C20   P4    S    
O6    P8    S    
C32   C35   A    
Ba2   O4    S    
Ba1   P1    S    
C55   H8    S    
C17   C29   A    
C8    H52   S    
O36   H56   S    
O20   P1    S    
C5    C6    S    
Ba2   O6    S    
C43   C44   A    
C13   C17   A    
C7    S3    S    
C24   C25   A    
C35   C36   A    
O21   P6    S    
C10   C26   A    
C34   H45   S    
C6    H24   S    
C21   C27   A    
C5    O11   S    
C41   P5    S    
C22   C24   A    
C16   C17   A    
C3    H14   S    
Ba1   P2    S    
S3    O32   D    
C28   C29   A    
C45   S1    S    
C42   H41   S    
C23   H44   S    
O23   P3    S    
C38   C47   A    
C52   P7    S    
C53   H4    S    
C9    C22   A    
C15   C18   A    
C2    O21   S    
C34   C45   S    
C32   C33   A    
C50   H40   S    
O5    P4    S    
C54   H48   S    
C8    H26   S    
S4    O36   S    
C45   H2    S    
Ba2   O13   S    
C24   C32   A    
O13   P2    S    
C25   C37   A    
C14   C15   A    
C54   H6    S    
C26   H31   S    
Ba1   O13   S    
C7    C8    S    
C39   C50   A    
O15   P7    S    
C34   S4    S    
C28   H54   S    
C18   P8    S    
C19   C20   A    
C51   H38   S    
S4    O35   D    
C9    C13   A    
C36   H53   S    
S1    O27   S    
O14   P7    D    
C31   H37   S    
C27   H32   S    
Ba2   O14   S    
C4    H16   S    
C36   C37   A    
C53   O20   S    
Ba2   O8    S    
Ba2   P4    S    
C16   C21   A    
C4    H17   S    
Ba1   O23   S    
C12   H28   S    
O4    P4    D    
S3    O33   S    
C56   H12   S    
O2    P2    S    
C48   C49   A    
C2    H49   S    
C44   C49   A    
C23   H20   S    
O16   P8    D    
O12   P1    S    
C6    H23   S    
C1    H13   S    
C41   C42   A    
C22   C30   A    
O19   P6    D    
C27   C28   A    
Ba2   O12   S    
C29   C30   A    
O1    P1    D    
C46   C50   A    
O27   H46   S    
Ba2   O9    S    
C44   C52   A    
C15   C16   A    
C54   H5    S    
O7    P4    S    
C56   H11   S    
O9    P5    S    
Ba1   O1    S    
C39   C51   A    
C56   H10   S    
C46   C47   A    
C38   C51   A    
C11   C13   A    
C11   H34   S    
C34   O7    S    
S4    O34   D    
C35   P6    S    
C10   H35   S    
S2    O30   S    
C40   H55   S    
C40   C41   A    
C1    C2    S    
C1    H19   S    
C42   C43   A    
S1    O26   D    
C5    H21   S    
C43   C46   A    
C49   H42   S    
O3    P3    S    
C38   P3    S    
C48   H39   S    
C37   P1    S    
O11   P5    S    
C1    H9    S    
C6    H25   S    
C55   H7    S    
O30   H47   S    
C45   H3    S    
C9    C10   A    
O8    P7    S    
C4    H18   S    
C7    H50   S    
C3    O15   S    
Ba1   O22   S    
O17   P8    S    
C30   C31   A    
S2    O29   D    
O24   P3    D    
S2    O28   D    
C40   C52   A    
C39   P2    S    
C23   H43   S    
C55   C56   S    
C3    C4    S    
Ba1   Ba2   S    
C2    H1    S    
Ba2   O5    S    
C31   C33   A    
C12   C23   S    
C3    H15   S    
Ba1   O18   S    
Ba1   O5    S    
O22   P2    D    
C12   O3    S    
C18   C19   A    
C47   C48   A    
C11   C14   A    
C25   C26   A    
C14   H30   S    
C7    O17   S    
C20   C21   A    
S1    O25   D    
O33   H51   S    
Ba1   O12   S    
O18   P6    S    
S3    O31   D    
C12   H36   S    
Ba1   O8    S    
C5    H22   S    
C33   H33   S    
