data_mof_unit_66986.cif
_audit_creation_date              2013-03-05T15:58:13-0500
_audit_creation_method            fapswitch 2.2
_symmetry_space_group_name_H-M    P1
_symmetry_Int_Tables_number       1
_space_group_crystal_system       triclinic
_cell_length_a                    8.145151
_cell_length_b                    12.759708
_cell_length_c                    14.251537
_cell_angle_alpha                 92.668281
_cell_angle_beta                  90.536642
_cell_angle_gamma                 98.940923
_cell_volume                      1461.3680514

loop_
_atom_site_label
_atom_site_type_symbol
_atom_site_description
_atom_site_fract_x
_atom_site_fract_y
_atom_site_fract_z
_atom_type_partial_charge
P1    P     P_3+3 0.054400 0.427280 0.286870 0.466196
O1    O     O_2   0.887370 0.460630 0.272300 -0.378478
O2    O     O_3   0.129410 0.451380 0.388510 -0.419726
O3    O     O_3   0.670210 0.653170 0.329170 -0.370695
O4    O     O_2   0.792286 0.591042 0.166119 -0.401764
O5    O     O_3   0.009752 0.289495 0.266005 -0.529675
O6    O     O_3   0.722981 0.783017 0.169857 -0.484874
H1    H     H_    0.772097 0.889070 0.283614 0.134996
C1    C     C_3   0.619184 0.949448 0.179879 0.040162
H2    H     H_    0.587700 0.011691 0.230566 0.070589
P2    P     P_3+3 0.668300 0.742890 0.573060 0.466666
P3    P     P_3+3 0.132745 0.840469 0.370747 0.517972
O7    O     O_2   0.845380 0.761330 0.544970 -0.393081
O8    O     O_3   0.088930 0.704860 0.376040 -0.391787
O9    O     O_2   0.995795 0.886645 0.425957 -0.393410
O10   O     O_3   0.680361 0.763121 0.695447 -0.554242
O11   O     O_3   0.106849 0.872138 0.253843 -0.452268
C2    C     C_3   0.164867 0.794741 0.194875 0.464176
H3    H     H_    0.086408 0.716065 0.200952 0.127584
H4    H     H_    0.295771 0.788576 0.212556 -0.023169
C3    C     C_3   0.156008 0.824814 0.093008 -0.785239
H5    H     H_    0.024347 0.817558 0.069300 0.296886
H6    H     H_    0.218582 0.907638 0.085336 0.277128
C4    C     C_3   0.216515 0.767697 0.659818 0.381292
H7    H     H_    0.353118 0.784165 0.653556 0.115691
H8    H     H_    0.160814 0.728238 0.593505 0.116530
C5    C     C_3   0.150880 0.872143 0.673160 -0.753172
H9    H     H_    0.216765 0.921543 0.731831 0.310072
H10   H     H_    0.166586 0.915816 0.607650 0.223480
H11   H     H_    0.017749 0.856194 0.691318 0.227084
Ba1   Ba    Ba6+2 0.855630 0.555280 0.454520 1.555317
C6    C     C_3   0.976474 0.241359 0.351393 0.352795
H12   H     H_    0.859498 0.262320 0.378799 0.053629
H13   H     H_    0.076677 0.266459 0.404062 0.152624
C7    C     C_3   0.962575 0.122069 0.335823 -0.722187
H14   H     H_    0.841039 0.089718 0.302696 0.187838
H15   H     H_    0.972534 0.084703 0.403566 0.215306
H16   H     H_    0.065226 0.102648 0.290965 0.353756
C8    C     C_3   0.715711 0.671621 0.736662 0.394790
H17   H     H_    0.832892 0.650172 0.708978 0.089033
H18   H     H_    0.613210 0.604319 0.723122 0.130759
C9    C     C_3   0.734839 0.694463 0.842323 -0.888774
H19   H     H_    0.843770 0.757019 0.858073 0.280223
H20   H     H_    0.753079 0.621678 0.877961 0.203575
H21   H     H_    0.621320 0.722125 0.870307 0.283994
P4    P     P_3+3 0.135310 0.572810 0.713130 0.459997
O12   O     O_2   0.302330 0.539400 0.727760 -0.372703
O13   O     O_3   0.060300 0.548700 0.611500 -0.412347
O14   O     O_3   0.519500 0.346920 0.670840 -0.327546
O15   O     O_3   0.178218 0.709816 0.740045 -0.553079
P5    P     P_3+3 0.060502 0.157415 0.629131 0.495757
O16   O     O_3   0.614310 0.373510 0.452640 -0.407608
O17   O     O_3   0.100780 0.295230 0.623970 -0.391880
O18   O     O_2   0.203340 0.113886 0.576969 -0.331920
O19   O     O_3   0.086674 0.129336 0.746935 -0.477388
Ba2   Ba    Ba6+2 0.334200 0.444810 0.545490 1.599016
P6    P     P_3+3 0.659471 0.654044 0.206251 0.467234
C10   C     C_3   0.669135 0.857838 0.233536 0.298122
H22   H     H_    0.560383 0.824652 0.275251 -0.038515
H23   H     H_    0.506518 0.919848 0.136439 0.114832
O20   O     O_3   0.575400 0.626570 0.547370 -0.398852
C11   C     C_3   0.470832 0.314235 0.262497 0.292310
H24   H     H_    0.358220 0.336402 0.296323 0.090881
H25   H     H_    0.574725 0.381641 0.270907 0.030514
C12   C     C_3   0.433116 0.291412 0.158622 0.361931
H26   H     H_    0.407399 0.363751 0.124978 -0.013131
H27   H     H_    0.542388 0.265260 0.124371 0.059992
P7    P     P_3+3 0.528230 0.242175 0.422448 0.511620
O21   O     O_2   0.344320 0.238700 0.455090 -0.312402
O22   O     O_3   0.515713 0.222987 0.300299 -0.534380
H28   H     H_    0.218592 0.770940 0.047350 0.194792
C13   C     C_3   0.012329 0.202726 0.802203 0.410096
H29   H     H_    0.075695 0.285063 0.793298 0.124095
H30   H     H_    0.878975 0.197033 0.782333 0.046410
C14   C     C_3   0.027103 0.181114 0.905850 -0.702664
H31   H     H_    0.929881 0.214304 0.945917 0.235189
H32   H     H_    0.013631 0.094657 0.916597 0.309504
H33   H     H_    0.148711 0.221171 0.934421 0.230577
P8    P     P_3+3 0.525112 0.330522 0.791157 0.458483
C15   C     C_3   0.532232 0.142990 0.861807 1.007459
H34   H     H_    0.656824 0.186828 0.880525 -0.101566
O23   O     O_2   0.388933 0.391613 0.830549 -0.406176
O24   O     O_3   0.442793 0.195279 0.798544 -0.511379
H35   H     H_    0.497190 0.084312 0.002383 0.283032
C16   C     C_3   0.432589 0.126504 0.950929 -0.818002
H36   H     H_    0.309051 0.078581 0.934913 0.259177
H37   H     H_    0.415433 0.205093 0.981546 0.206338
C17   C     C_R   0.981744 0.440792 0.060558 -0.090869
C18   C     C_R   0.182563 0.496526 0.194569 0.252609
C19   C     C_R   0.338051 0.549526 0.224349 -0.554884
C20   C     C_R   0.452332 0.595667 0.160844 0.255707
C21   C     C_R   0.408149 0.596589 0.065858 -0.316173
C22   C     C_R   0.249256 0.547878 0.033335 0.041725
C23   C     C_R   0.136014 0.494002 0.096947 0.004784
H38   H     H_    0.373691 0.550765 0.297781 0.182213
C24   C     C_R   0.050031 0.499074 0.901277 -0.006529
C25   C     C_R   0.937137 0.444124 0.964672 0.077156
C26   C     C_R   0.004435 0.497833 0.803650 0.236491
C27   C     C_R   0.850012 0.441119 0.773273 -0.494805
C28   C     C_R   0.735821 0.390960 0.836346 0.179946
C29   C     C_R   0.779247 0.393491 0.931855 -0.336761
C30   C     C_R   0.204358 0.551925 0.937790 -0.123091
H39   H     H_    0.497513 0.635171 0.017674 0.167279
H40   H     H_    0.690247 0.355304 0.980440 0.132116
H41   H     H_    0.815522 0.439912 0.699733 0.174033
H42   H     H_    0.894434 0.396192 0.106104 0.158397
H43   H     H_    0.292178 0.596577 0.892674 0.174534
C31   C     C_R   0.761975 0.175672 0.538261 -0.449394
C32   C     C_R   0.426214 0.812307 0.463205 -0.622068
C33   C     C_R   0.407218 0.991317 0.423146 0.649265
C34   C     C_R   0.339900 0.885043 0.422492 0.077754
C35   C     C_R   0.576226 0.845825 0.511706 0.309211
C36   C     C_R   0.643022 0.956322 0.518445 -0.048849
C37   C     C_R   0.556430 0.030139 0.473606 -0.259539
C38   C     C_R   0.619458 0.140269 0.483572 0.329444
C39   C     C_R   0.853872 0.104419 0.576317 0.167085
C40   C     C_R   0.793014 0.995663 0.568300 -0.086330
H44   H     H_    0.864325 0.943476 0.601132 0.140310
H45   H     H_    0.808051 0.259926 0.545963 0.147872
H46   H     H_    0.372842 0.729094 0.460309 0.203285
F1    F     F_    0.296187 0.212674 0.146475 -0.615727
S1    S     S_3+6 0.778980 0.006726 0.103652 0.007543
O25   O     O_2   0.948483 0.000495 0.142687 -0.224311
O26   O     O_2   0.757873 0.946904 0.010016 -0.190324
O27   O     O_3   0.764060 0.134878 0.089558 -0.556993
H47   H     H_    0.777933 0.169095 0.153479 0.359767
S2    S     S_3+6 0.559896 0.016717 0.808569 -0.018601
O28   O     O_2   0.451847 0.927006 0.853568 -0.281876
O29   O     O_2   0.514931 0.014783 0.706037 -0.333786
O30   O     O_3   0.759025 0.999541 0.820620 -0.522589
H48   H     H_    0.780925 0.953735 0.765562 0.375731
F2    F     F_    0.322208 0.054006 0.374021 -0.654181

loop_
_geom_bond_atom_site_label_1
_geom_bond_atom_site_label_2
_geom_bond_distance
_ccdc_geom_bond_type
O5    C6    1.398426 S    
C22   C23   1.421909 A    
C24   C30   1.413228 A    
C5    H10   1.107734 S    
C2    C3    1.522678 S    
Ba1   O20   2.894513 S    
C7    H14   1.104228 S    
C4    C5    1.515855 S    
Ba1   O16   2.796380 S    
C37   C38   1.419218 A    
C19   H38   1.082152 S    
C8    H18   1.109251 S    
C16   H36   1.109041 S    
C11   H24   1.109034 S    
C3    H28   1.108725 S    
C31   C38   1.395104 A    
C7    H15   1.104275 S    
C4    H8    1.108664 S    
C2    H3    1.110583 S    
C15   O24   1.408376 S    
P1    Ba1   3.395340 S    
C39   C40   1.398160 A    
C11   O22   1.402323 S    
C1    C10   1.530326 S    
O2    Ba2   2.790255 S    
C18   C23   1.436159 A    
C33   C34   1.380998 A    
C28   C29   1.400788 A    
C11   H25   1.110164 S    
C21   H39   1.083137 S    
H1    C10   1.109007 S    
P7    O21   1.567361 D    
C12   H27   1.107726 S    
C24   C26   1.435416 A    
P3    O11   1.751036 S    
C33   F2    1.350785 S    
C12   F1    1.383885 S    
Ba1   Ba2   4.543747 S    
C1    H2    1.109814 S    
O8    Ba1   2.759697 S    
O6    C10   1.408669 S    
P5    O19   1.750863 S    
C17   C25   1.414967 A    
O16   P7    1.745575 S    
P4    C26   1.881361 S    
P2    Ba1   3.423416 S    
C3    H5    1.110047 S    
C5    H11   1.107168 S    
C31   H45   1.082339 S    
C9    H20   1.108126 S    
C13   C14   1.522284 S    
C35   C36   1.428661 A    
C1    S1    1.792506 S    
C8    C9    1.522290 S    
P4    O13   1.565008 S    
C16   H37   1.104276 S    
C4    O15   1.401320 S    
C27   H41   1.081295 S    
C17   C23   1.413739 A    
P1    O5    1.749896 S    
C6    C7    1.514389 S    
P8    C28   1.864588 S    
C7    H16   1.108526 S    
C4    H7    1.105014 S    
C13   H30   1.110440 S    
C32   C35   1.395668 A    
C20   C21   1.398494 A    
Ba2   O21   2.887371 S    
C13   H29   1.109659 S    
P7    C38   1.842662 S    
C10   H22   1.110893 S    
O14   P8    1.738090 S    
O1    Ba1   2.843761 S    
P1    O2    1.565127 S    
C9    H21   1.110778 S    
C6    H13   1.103185 S    
O3    P6    1.753792 S    
C14   H31   1.105753 S    
S2    O29   1.501257 D    
C15   C16   1.518975 S    
C17   H42   1.080820 S    
P2    O10   1.750865 S    
C27   C28   1.402467 A    
P3    O9    1.545355 D    
C24   C25   1.423922 A    
O11   C2    1.407149 S    
C30   H43   1.079689 S    
H35   C16   1.105444 S    
O2    Ba1   2.908175 S    
C14   H32   1.109462 S    
C36   C40   1.417491 A    
P3    O8    1.716916 S    
C12   H26   1.106878 S    
C29   H40   1.083228 S    
Ba1   O13   2.789693 S    
C3    H6    1.110383 S    
O27   H47   0.989430 S    
C9    H19   1.110929 S    
S1    O26   1.501018 D    
S2    O28   1.503958 D    
C8    H17   1.104418 S    
C36   C37   1.430742 A    
O17   Ba2   2.760269 S    
O13   Ba2   2.908926 S    
C33   C37   1.415262 A    
P4    O12   1.503040 D    
P1    C18   1.856879 S    
P6    C20   1.834178 S    
C11   C12   1.514669 S    
P2    C35   1.858189 S    
O7    Ba1   2.887160 S    
O19   C13   1.407311 S    
C15   H34   1.103851 S    
P2    O20   1.582600 S    
C22   C30   1.411964 A    
P8    O23   1.546869 D    
C15   S2    1.795726 S    
O14   Ba2   2.787947 S    
P4    O15   1.752280 S    
P5    C39   1.852441 S    
O4    P6    1.543611 D    
C1    H23   1.108110 S    
C6    H12   1.099247 S    
P5    O18   1.547025 D    
S1    O27   1.679537 S    
C32   C34   1.391970 A    
O30   H48   0.990675 S    
S1    O25   1.498591 D    
S2    O30   1.678387 S    
C40   H44   1.069511 S    
P8    O24   1.759875 S    
P2    O7    1.486633 D    
C31   C39   1.389548 A    
C19   C20   1.388254 A    
P1    O1    1.502666 D    
C21   C22   1.409978 A    
C2    H4    1.108787 S    
C14   H33   1.106280 S    
O3    Ba1   2.788539 S    
O10   C8    1.398630 S    
P7    O22   1.746422 S    
C26   C27   1.403872 A    
P4    Ba2   3.395789 S    
C5    H9    1.105359 S    
Ba2   O20   2.795728 S    
P5    O17   1.743115 S    
C18   C19   1.392268 A    
O6    P6    1.750632 S    
P3    C34   1.831305 S    
C25   C29   1.411514 A    
O16   Ba2   2.893743 S    
C32   H46   1.081744 S    
O12   Ba2   2.844268 S    
