data_mof_unit_8588.cif
_audit_creation_date              2013-03-05T15:52:47-0500
_audit_creation_method            fapswitch 2.2
_symmetry_space_group_name_H-M    P1
_symmetry_Int_Tables_number       1
_space_group_crystal_system       triclinic
_cell_length_a                    6.968502
_cell_length_b                    14.97258
_cell_length_c                    21.398904
_cell_angle_alpha                 73.970688
_cell_angle_beta                  90.138901
_cell_angle_gamma                 89.763253
_cell_volume                      2145.84709354

loop_
_atom_site_label
_atom_site_type_symbol
_atom_site_description
_atom_site_fract_x
_atom_site_fract_y
_atom_site_fract_z
_atom_type_partial_charge
O1    O     O_R   0.648150 0.130050 0.214300 -0.582677
O2    O     O_R   0.351850 0.869950 0.785700 -0.582499
O3    O     O_R   0.320490 0.006660 0.340150 -0.555208
O4    O     O_R   0.679510 0.993340 0.659850 -0.555227
O5    O     O_R   0.146100 0.869940 0.285700 -0.582444
O6    O     O_R   0.853900 0.130060 0.714300 -0.585666
C1    C     C_R   0.488463 0.002767 0.366817 0.954220
C2    C     C_R   0.511432 0.996785 0.633276 0.955846
O7    O     O_R   0.318690 0.137980 0.218120 -0.577487
O8    O     O_R   0.681310 0.862020 0.781880 -0.577561
O9    O     O_R   0.144280 0.002190 0.162800 -0.599571
O10   O     O_R   0.855720 0.997810 0.837200 -0.600174
C3    C     C_R   0.486775 0.175103 0.204478 1.002011
C4    C     C_R   0.513315 0.825164 0.796026 1.009956
O11   O     O_R   0.649960 0.997790 0.337200 -0.606498
O12   O     O_R   0.350040 0.002210 0.662800 -0.605685
O13   O     O_3   0.479300 0.955290 0.231990 -0.272879
O14   O     O_3   0.520700 0.044710 0.768010 -0.271921
V1    V     V_3+5 0.206040 0.008290 0.253340 1.267120
V2    V     V_3+5 0.793960 0.991710 0.746660 1.269596
O15   O     O_R   0.814320 0.993320 0.159850 -0.569757
O16   O     O_R   0.185680 0.006680 0.840150 -0.568608
C5    C     C_R   0.982873 0.999582 0.132810 1.041856
C6    C     C_R   0.017093 0.000628 0.867141 1.045314
O17   O     O_R   0.816120 0.862000 0.281880 -0.595905
O18   O     O_R   0.183880 0.138000 0.718120 -0.594258
C7    C     C_R   0.985627 0.824844 0.294676 0.997055
C8    C     C_R   0.014387 0.174963 0.705051 0.997971
V3    V     V_3+5 0.705540 0.991700 0.246660 1.248999
V4    V     V_3+5 0.294460 0.008300 0.753340 1.254893
O19   O     O_3   0.982150 0.044700 0.268010 -0.255248
O20   O     O_3   0.017850 0.955300 0.731990 -0.254753
C9    C     C_R   0.997030 0.724166 0.324014 -0.203619
C10   C     C_R   0.002546 0.275263 0.675248 -0.121816
C11   C     C_R   0.027401 0.569341 0.309224 -0.051708
C12   C     C_R   0.955281 0.429111 0.689478 -0.002441
C13   C     C_R   0.994046 0.664955 0.284025 -0.110319
C14   C     C_R   0.994170 0.334413 0.715101 -0.266569
C15   C     C_R   0.012743 0.687250 0.391541 0.091238
C16   C     C_R   0.990455 0.311546 0.607585 0.071703
C17   C     C_R   0.012947 0.589538 0.418751 0.092406
C18   C     C_R   0.987188 0.409199 0.580039 0.024824
C19   C     C_R   0.056639 0.532339 0.377437 -0.068792
C20   C     C_R   0.933310 0.465715 0.620786 0.123011
C21   C     C_R   0.976130 0.546725 0.485649 0.118418
C22   C     C_R   0.024436 0.452196 0.513092 0.045141
C23   C     C_R   0.123408 0.405786 0.474188 -0.102665
C24   C     C_R   0.871653 0.592438 0.523791 -0.266403
C25   C     C_R   0.134209 0.442571 0.406590 -0.095401
C26   C     C_R   0.848501 0.553257 0.590558 -0.046953
H1    H     H_    0.009540 0.305550 0.766886 0.167344
H2    H     H_    0.971124 0.694222 0.232666 0.192073
H3    H     H_    0.197180 0.341183 0.496721 0.177324
H4    H     H_    0.797005 0.656748 0.500846 0.148036
C27   C     C_3   0.831374 0.969850 0.982317 -0.254770
C28   C     C_3   0.168510 0.030697 0.017532 -0.248642
C29   C     C_3   0.966726 0.914360 0.037352 0.207521
C30   C     C_3   0.033129 0.086198 0.962478 0.215851
H5    H     H_    0.691857 0.945715 0.968192 0.169400
H6    H     H_    0.308124 0.054743 0.031645 0.169749
C31   C     C_3   0.992220 0.000787 0.062243 -0.194609
C32   C     C_3   0.007670 0.999716 0.937628 -0.191103
C33   C     C_3   0.859041 0.056215 0.007522 -0.049602
C34   C     C_3   0.140834 0.944314 0.992343 -0.054153
C35   C     C_3   0.643392 0.052703 0.467990 -0.202194
C36   C     C_3   0.356160 0.946220 0.532252 -0.217178
C37   C     C_3   0.481894 0.085735 0.506632 -0.132433
C38   C     C_3   0.517471 0.913222 0.493562 -0.166555
H7    H     H_    0.465199 0.157121 0.511849 0.170100
H8    H     H_    0.534113 0.841833 0.488340 0.148338
H9    H     H_    0.752623 0.099616 0.439147 0.177572
H10   H     H_    0.246859 0.899413 0.561170 0.180173
C39   C     C_3   0.506435 0.996226 0.563009 -0.123959
C40   C     C_3   0.493083 0.002759 0.437196 -0.107791
C41   C     C_3   0.666193 0.963430 0.524885 0.038647
C42   C     C_3   0.333229 0.035447 0.475350 0.019423
C43   C     C_R   0.496324 0.276508 0.177341 -0.256365
C44   C     C_R   0.503200 0.723981 0.822697 -0.272441
C45   C     C_R   0.554068 0.430122 0.189420 -0.070109
C46   C     C_R   0.437343 0.571364 0.810278 -0.045045
C47   C     C_R   0.557861 0.333408 0.216116 -0.155387
C48   C     C_R   0.438016 0.668179 0.783759 -0.132057
C49   C     C_R   0.445986 0.316671 0.111663 0.200341
C50   C     C_R   0.552388 0.683372 0.888313 0.196573
C51   C     C_R   0.487446 0.411423 0.081723 0.016994
C52   C     C_R   0.507866 0.589000 0.918012 0.034048
C53   C     C_R   0.514883 0.469804 0.122993 0.035646
C54   C     C_R   0.477983 0.531077 0.876619 -0.007023
C55   C     C_R   0.494982 0.451102 0.012835 0.041695
C56   C     C_R   0.499623 0.549274 0.986811 0.041803
C57   C     C_R   0.480352 0.604630 0.030049 -0.167397
C58   C     C_R   0.513771 0.395942 0.969397 -0.145515
C59   C     C_R   0.495167 0.566423 0.097146 0.264128
C60   C     C_R   0.497750 0.434428 0.902276 0.202887
H11   H     H_    0.587148 0.474057 0.220464 0.173562
H12   H     H_    0.400418 0.527909 0.779269 0.205518
H13   H     H_    0.451225 0.678151 0.012151 0.190815
H14   H     H_    0.543728 0.322484 0.987092 0.191533
C61   C     C_2   0.252024 0.391733 0.369764 0.580767
H15   H     H_    0.316080 0.428437 0.323767 0.007510
O21   O     O_2   0.281570 0.308343 0.390953 -0.555149
C62   C     C_2   0.703262 0.596994 0.623033 0.662850
H16   H     H_    0.676149 0.671276 0.606000 0.020169
O22   O     O_2   0.604807 0.549470 0.666667 -0.580773
C63   C     C_2   0.851265 0.916327 0.548824 0.483142
H17   H     H_    0.959419 0.913432 0.513585 0.015474
O23   O     O_2   0.877829 0.877895 0.606340 -0.559013
C64   C     C_2   0.146717 0.081272 0.451800 0.575892
H18   H     H_    0.040145 0.084834 0.487362 -0.006519
O24   O     O_2   0.116220 0.117034 0.394149 -0.540599
I1    I     I_    0.457514 0.657662 0.156917 -0.339882
I2    I     I_    0.537724 0.344166 0.841976 -0.395480
I3    I     I_    0.761952 0.753115 0.930834 -0.320800
I4    I     I_    0.237689 0.245694 0.069577 -0.324940
C65   C     C_2   0.384321 0.710311 0.714385 0.717061
H19   H     H_    0.408300 0.783476 0.691207 -0.088886
O25   O     O_2   0.311418 0.664069 0.681933 -0.517451
C66   C     C_2   0.613091 0.293042 0.285499 0.628532
H20   H     H_    0.604347 0.218839 0.308098 -0.010048
O26   O     O_2   0.669425 0.342291 0.318631 -0.599110
I5    I     I_    0.902145 0.218698 0.552762 -0.445717
I6    I     I_    0.100004 0.779008 0.447315 -0.480056
C67   C     C_2   0.007925 0.509462 0.264513 0.513063
H21   H     H_    0.981154 0.435740 0.283528 0.059597
O27   O     O_2   0.018924 0.542031 0.205579 -0.534368
C68   C     C_2   0.956056 0.485850 0.736607 0.621425
H22   H     H_    0.940772 0.452079 0.788203 0.044934
O28   O     O_2   0.982163 0.569514 0.719405 -0.553889
I7    I     I_    0.927654 0.776159 0.095719 -0.342721
I8    I     I_    0.070793 0.224467 0.903774 -0.409628
C69   C     C_2   0.700007 0.121442 0.012347 0.527485
H23   H     H_    0.604317 0.147911 0.971293 0.056566
O29   O     O_2   0.678735 0.146127 0.061615 -0.575818
C70   C     C_2   0.299957 0.879093 0.987584 0.529096
H24   H     H_    0.395593 0.852698 0.028661 0.051595
O30   O     O_2   0.321425 0.854363 0.938344 -0.577941

loop_
_geom_bond_atom_site_label_1
_geom_bond_atom_site_label_2
_geom_bond_distance
_ccdc_geom_bond_type
C30   C32   1.540321 S    
C36   C38   1.555301 S    
C50   I3    2.140535 S    
C27   H5    1.108591 S    
C39   C41   1.538565 S    
O4    C2    1.295352 A    
V1    O19   1.708727 S    
C45   C53   1.406602 A    
C58   H14   1.079056 S    
C67   H21   1.082950 S    
C23   C25   1.400831 A    
C21   C22   1.413323 A    
C7    C9    1.465892 S    
C38   C41   1.539409 S    
C24   H4    1.082756 S    
C16   I5    2.142841 S    
C63   O23   1.219467 D    
O9    V1    2.010301 S    
C9    C15   1.401142 A    
C15   I6    2.142560 S    
C40   C42   1.538695 S    
C10   C16   1.401173 A    
C29   I7    2.120097 S    
C11   C13   1.401631 A    
C50   C52   1.416109 A    
C48   C65   1.489951 S    
O3    C1    1.294978 A    
C52   C54   1.415949 A    
C67   O27   1.222817 D    
C25   C61   1.484466 S    
C43   C49   1.410331 A    
C38   C40   1.544368 S    
C65   H19   1.084360 S    
C27   C32   1.548486 S    
O13   V3    1.726405 S    
C64   H18   1.076249 S    
C18   C22   1.424069 A    
O9    C5    1.299680 A    
C29   C31   1.540085 S    
C31   C33   1.540418 S    
O7    C3    1.297516 A    
C66   H20   1.084386 S    
C32   C34   1.540146 S    
C1    O11   1.304822 A    
O5    C7    1.295743 A    
O7    V1    2.040113 S    
C36   H10   1.105181 S    
O8    V2    2.040113 S    
C35   C37   1.555837 S    
C27   C33   1.544967 S    
C6    C32   1.506233 S    
C28   C34   1.545038 S    
O3    V1    2.013730 S    
C37   C39   1.544340 S    
C33   C69   1.496636 S    
C28   C30   1.554334 S    
C46   H12   1.081110 S    
C11   C19   1.424841 A    
C23   H3    1.081440 S    
C24   C26   1.396597 A    
C8    C10   1.462388 S    
C2    O12   1.304470 A    
C46   C54   1.408232 A    
C17   C19   1.423023 A    
C49   I4    2.140639 S    
C18   C20   1.422582 A    
C58   C60   1.396109 A    
O11   V3    2.003240 S    
C1    C40   1.506271 S    
C3    C43   1.470013 S    
C51   C53   1.416841 A    
O17   V3    2.027189 S    
C34   C70   1.496666 S    
C46   C48   1.403243 A    
C52   C56   1.428855 A    
C45   C47   1.402392 A    
C13   H2    1.076105 S    
C51   C55   1.430290 A    
C19   C25   1.420266 A    
C70   O30   1.218828 D    
C14   H1    1.077380 S    
C65   O25   1.219191 D    
C35   H9    1.104989 S    
C36   C39   1.538069 S    
O15   V3    2.002032 S    
C47   C66   1.489147 S    
C9    C13   1.392008 A    
C35   C40   1.538113 S    
C28   H6    1.108551 S    
C37   H7    1.110562 S    
C45   H11   1.081207 S    
C57   C59   1.394483 A    
C44   C48   1.408696 A    
C61   H15   1.084201 S    
C43   C47   1.410615 A    
C36   C42   1.546570 S    
O10   V2    2.010301 S    
O1    V3    2.032245 S    
C57   H13   1.079164 S    
C55   C58   1.409570 A    
C62   O22   1.220275 D    
C59   I1    2.129462 S    
O14   V4    1.726404 S    
C38   H8    1.110606 S    
C49   C51   1.417365 A    
C26   C62   1.478301 S    
C27   C29   1.553904 S    
O8    C4    1.296702 A    
O16   C6    1.302775 A    
C12   C20   1.427518 A    
O1    C3    1.295412 A    
C12   C14   1.396854 A    
C29   C34   1.540271 S    
V2    O20   1.708728 S    
C21   C24   1.404267 A    
C20   C26   1.417470 A    
C30   C33   1.540624 S    
C22   C23   1.403536 A    
C68   O28   1.218732 D    
O16   V4    2.002027 S    
C61   O21   1.221339 D    
C10   C14   1.389958 A    
C12   C68   1.487277 S    
C16   C18   1.417556 A    
C69   O29   1.218838 D    
C11   C67   1.487171 S    
C41   C63   1.487553 S    
C70   H24   1.084482 S    
O5    V1    2.039925 S    
O17   C7    1.299464 A    
O6    V2    2.039925 S    
C63   H17   1.076587 S    
O10   C6    1.299485 A    
O18   C8    1.298861 A    
C35   C41   1.546845 S    
O2    V4    2.032246 S    
O15   C5    1.302852 A    
V3    O19   2.182318 S    
V4    O20   2.182316 S    
C56   C57   1.408642 A    
C30   I8    2.121959 S    
C68   H22   1.085702 S    
C53   C59   1.404865 A    
C60   I2    2.128545 S    
C2    C39   1.506275 S    
O13   V1    2.157874 S    
C64   O24   1.219330 D    
O14   V2    2.157872 S    
C4    C44   1.466089 S    
C62   H16   1.086072 S    
O2    C4    1.294302 A    
C66   O26   1.220768 D    
O4    V2    2.013733 S    
C44   C50   1.408235 A    
O6    C8    1.294491 A    
C5    C31   1.506754 S    
C15   C17   1.417369 A    
C42   C64   1.487441 S    
C54   C60   1.404881 A    
C17   C21   1.422111 A    
C28   C31   1.548776 S    
C37   C42   1.539379 S    
C55   C56   1.421328 A    
O12   V4    2.003240 S    
C69   H23   1.084526 S    
O18   V4    2.027188 S    
