data_mof_unit_37564.cif
_audit_creation_date              2012-12-10T19:06:18-0500
_audit_creation_method            fapswitch 2.2
_symmetry_space_group_name_H-M    P1
_symmetry_Int_Tables_number       1
_space_group_crystal_system       triclinic
_cell_length_a                    13.066035
_cell_length_b                    13.609742
_cell_length_c                    15.775501
_cell_angle_alpha                 89.867912
_cell_angle_beta                  92.798756
_cell_angle_gamma                 86.095913
_cell_volume                      2795.3913557

loop_
_atom_site_label
_atom_site_type_symbol
_atom_type_description
_atom_site_fract_x
_atom_site_fract_y
_atom_site_fract_z
_atom_type_partial_charge
C1    C     C_R   0.481487 0.684966 0.499619 0.897191
C2    C     C_1   0.145860 0.477502 0.485623 0.074569
C3    C     C_R   0.499438 0.500221 0.662173 0.898985
C4    C     C_R   0.500567 0.499764 0.337852 0.898709
C5    C     C_3   0.426860 0.560626 0.028790 0.043666
C6    C     C_3   0.573342 0.437975 0.971389 0.044499
C7    C     C_3   0.516432 0.593458 0.977549 -0.051074
C8    C     C_3   0.483776 0.405167 0.022686 -0.050778
C9    C     C_1   0.498110 0.502623 0.750541 -0.190443
C10   C     C_1   0.501972 0.496922 0.249544 -0.193337
C11   C     C_3   0.409976 0.475264 0.967476 0.076646
C12   C     C_R   0.518595 0.314971 0.500384 0.899112
C13   C     C_3   0.590231 0.523338 0.032711 0.076970
C14   C     C_3   0.499302 0.506694 0.915937 0.062257
C15   C     C_3   0.500907 0.491964 0.084240 0.063036
C16   C     C_1   0.498099 0.505077 0.825454 -0.040841
C17   C     C_1   0.502062 0.494013 0.174672 -0.042480
C18   C     C_1   0.533331 0.212662 0.491803 -0.183003
C19   C     C_1   0.466896 0.787738 0.497385 -0.183539
C20   C     C_R   0.534733 0.699960 0.961346 0.133190
C21   C     C_R   0.558293 0.760869 0.030415 -0.149372
C22   C     C_R   0.575700 0.859837 0.017264 -0.154478
C23   C     C_2   0.539974 0.022751 0.471401 -0.029802
C24   C     C_R   0.569188 0.899028 0.935129 -0.114673
C25   C     C_R   0.544943 0.839340 0.866102 -0.147075
C26   C     C_R   0.527708 0.740213 0.878992 -0.152378
C27   C     C_R   0.465468 0.298745 0.039371 0.130216
C28   C     C_R   0.441958 0.237413 0.970597 -0.146740
C29   C     C_R   0.424467 0.138543 0.984218 -0.152323
C30   C     C_R   0.430841 0.099870 0.066535 -0.117112
C31   C     C_R   0.454999 0.159983 0.135288 -0.146166
C32   C     C_R   0.472337 0.258999 0.121925 -0.150714
C33   C     C_R   0.357166 0.034027 0.514566 0.147872
C34   C     C_2   0.453498 0.979043 0.489462 -0.029323
C35   C     C_R   0.312541 0.010161 0.590659 -0.149759
C36   C     C_R   0.223120 0.062453 0.615185 -0.172160
C37   C     C_R   0.177272 0.138602 0.563972 -0.106979
C38   C     C_R   0.220160 0.161937 0.487694 -0.106268
C39   C     C_R   0.309103 0.109399 0.462553 -0.151958
C40   C     C_R   0.636974 0.968049 0.447211 0.158270
C41   C     C_R   0.730747 0.985765 0.490234 -0.158567
C42   C     C_R   0.822058 0.935357 0.467475 -0.147642
C43   C     C_R   0.820794 0.867112 0.401486 -0.095555
C44   C     C_R   0.728316 0.849837 0.357594 -0.135309
C45   C     C_1   0.457433 0.874915 0.494195 -0.055908
C46   C     C_R   0.636858 0.900463 0.379833 -0.149560
C47   C     C_R   0.997975 0.635168 0.541070 0.144051
C48   C     C_R   0.967965 0.673434 0.619455 -0.137132
C49   C     C_R   0.997171 0.765864 0.646081 -0.137726
C50   C     C_R   0.055947 0.821138 0.594584 -0.127724
C51   C     C_R   0.084966 0.784462 0.516038 -0.141421
C52   C     C_R   0.055690 0.692202 0.489029 -0.146343
C53   C     C_R   0.999364 0.370200 0.453176 0.140251
C54   C     C_R   0.020502 0.338995 0.370643 -0.172791
C55   C     C_R   0.988067 0.248962 0.340707 -0.152353
C56   C     C_1   0.541058 0.126092 0.482285 -0.055975
C57   C     C_R   0.934708 0.189329 0.392939 -0.102028
C58   C     C_R   0.913760 0.219560 0.475244 -0.141156
C59   C     C_R   0.946160 0.309433 0.505478 -0.157562
C60   C     C_2   0.034160 0.465789 0.484590 -0.097977
C61   C     C_2   0.964939 0.537617 0.512517 -0.101490
C62   C     C_1   0.853761 0.523979 0.513125 0.091487
H1    H     H_    0.563487 0.731597 0.094502 0.138492
H2    H     H_    0.491685 0.303327 0.176173 0.134205
H3    H     H_    0.310957 0.666549 0.009366 0.181837
H4    H     H_    0.376841 0.674326 0.102838 0.185170
H5    H     H_    0.689296 0.332118 0.990832 0.182324
H6    H     H_    0.623292 0.324186 0.897434 0.185969
H7    H     H_    0.736168 0.561155 0.019130 0.200402
H8    H     H_    0.722879 0.484284 0.100680 0.187940
H9    H     H_    0.264063 0.437408 0.981088 0.200043
H10   H     H_    0.277303 0.514288 0.899544 0.187827
H11   H     H_    0.347749 0.952029 0.631574 0.129036
H12   H     H_    0.594222 0.906140 0.070780 0.131562
H13   H     H_    0.189694 0.044274 0.674169 0.127625
H14   H     H_    0.108641 0.179481 0.583553 0.134868
H15   H     H_    0.184840 0.220909 0.448080 0.149893
H16   H     H_    0.340788 0.127797 0.402833 0.127062
H17   H     H_    0.733065 0.038011 0.541862 0.125156
H18   H     H_    0.893802 0.949364 0.500977 0.137389
H19   H     H_    0.891522 0.828031 0.384054 0.130574
H20   H     H_    0.727531 0.797520 0.306026 0.132203
H21   H     H_    0.566132 0.887312 0.344288 0.121998
H22   H     H_    0.922563 0.631425 0.660188 0.126101
H23   H     H_    0.582769 0.975633 0.924981 0.129621
H24   H     H_    0.974178 0.794660 0.706685 0.129054
H25   H     H_    0.078307 0.892704 0.615245 0.127658
H26   H     H_    0.129584 0.827831 0.475816 0.139517
H27   H     H_    0.077113 0.665797 0.427223 0.125895
H28   H     H_    0.061717 0.384497 0.329477 0.131855
H29   H     H_    0.004465 0.225362 0.277026 0.133349
H30   H     H_    0.909811 0.119613 0.369733 0.134033
H31   H     H_    0.872918 0.173107 0.515816 0.126943
H32   H     H_    0.930507 0.331291 0.569788 0.126562
H33   H     H_    0.539386 0.869922 0.802504 0.129511
H34   H     H_    0.508303 0.696176 0.824563 0.133360
H35   H     H_    0.436853 0.266287 0.906381 0.142401
H36   H     H_    0.405976 0.091908 0.930922 0.132017
H37   H     H_    0.417214 0.023339 0.077034 0.128438
H38   H     H_    0.460406 0.129821 0.199040 0.128081
N1    N     N_1   0.234530 0.484780 0.486590 -0.090361
N2    N     N_1   0.765470 0.515220 0.513410 -0.089191
N3    N     N_3   0.343873 0.624988 0.060720 -0.456242
N4    N     N_3   0.656305 0.373594 0.939457 -0.455864
N5    N     N_3   0.689880 0.547324 0.069412 -0.457911
N6    N     N_3   0.310328 0.451254 0.930798 -0.454943
O1    O     O_R   0.402510 0.634760 0.495090 -0.609794
O2    O     O_R   0.597490 0.365240 0.504910 -0.608912
O3    O     O_R   0.572960 0.644530 0.503700 -0.600171
O4    O     O_R   0.427040 0.355470 0.496300 -0.604555
O5    O     O_R   0.414790 0.495120 0.618920 -0.604892
O6    O     O_R   0.585210 0.504880 0.381080 -0.606177
O7    O     O_R   0.585240 0.504900 0.627530 -0.611730
O8    O     O_R   0.414760 0.495100 0.372470 -0.612314
Zn1   Zn    Zn3+2 0.386190 0.493480 0.494250 0.974076
Zn2   Zn    Zn3+2 0.613810 0.506520 0.505750 0.979032

loop_
_geom_bond_atom_site_label_1
_geom_bond_atom_site_label_2
_ccdc_geom_bond_type
C28   H35   S    
C5    N3    S    
C42   H18   S    
C57   H30   S    
C41   C42   A    
C35   C36   A    
C12   O4    A    
O8    Zn1   S    
C53   C59   A    
C23   C56   S    
C53   C54   A    
C40   C46   A    
C33   C39   A    
C29   H36   S    
C4    O8    A    
C28   C29   A    
C9    C16   T    
C54   H28   S    
C44   H20   S    
C30   C31   A    
C11   C14   S    
C2    C60   S    
C10   C17   T    
C23   C40   S    
C55   H29   S    
O3    Zn2   S    
C1    O3    A    
C7    C14   S    
C31   C32   A    
C3    O5    A    
C59   H32   S    
C6    N4    S    
C29   C30   A    
C24   H23   S    
C18   C56   T    
O7    Zn2   S    
C4    O6    A    
C21   C22   A    
C52   H27   S    
H4    N3    S    
C53   C60   S    
C44   C46   A    
H5    N4    S    
C50   C51   A    
C26   H34   S    
C1    C19   S    
C5    C15   S    
C51   C52   A    
C39   H16   S    
C24   C25   A    
C32   H2    S    
C13   N5    S    
C3    O7    A    
C5    C7    S    
H7    N5    S    
C6    C8    S    
C2    N1    T    
C58   C59   A    
C30   H37   S    
C7    C20   S    
C48   H22   S    
C60   C61   D    
C43   C44   A    
C41   H17   S    
C37   C38   A    
C3    C9    S    
C36   H13   S    
C6    C14   S    
C47   C48   A    
C23   C34   D    
C11   N6    S    
C33   C34   S    
C34   C45   S    
C31   H38   S    
O1    Zn1   S    
C50   H25   S    
C1    O1    A    
C40   C41   A    
C37   H14   S    
H10   N6    S    
C25   H33   S    
C8    C15   S    
C55   C57   A    
N1    Zn1   S    
C14   C16   S    
C42   C43   A    
H3    N3    S    
C4    C10   S    
O6    Zn2   S    
C12   O2    A    
C15   C17   S    
C54   C55   A    
C35   H11   S    
C43   H19   S    
C27   C32   A    
C49   H24   S    
C58   H31   S    
H6    N4    S    
H8    N5    S    
C51   H26   S    
C47   C61   S    
C19   C45   T    
C5    C11   S    
C47   C52   A    
C38   H15   S    
O2    Zn2   S    
C13   C15   S    
C25   C26   A    
C6    C13   S    
C57   C58   A    
C38   C39   A    
C20   C26   A    
C8    C11   S    
C48   C49   A    
C33   C35   A    
C22   C24   A    
C61   C62   S    
C21   H1    S    
N2    Zn2   S    
C46   H21   S    
C7    C13   S    
C20   C21   A    
C36   C37   A    
C49   C50   A    
H9    N6    S    
C12   C18   S    
C27   C28   A    
C8    C27   S    
C22   H12   S    
O5    Zn1   S    
O4    Zn1   S    
C62   N2    T    
