data_mof_unit_67897.cif
_audit_creation_date              2012-12-10T17:47:45-0500
_audit_creation_method            fapswitch 2.2
_symmetry_space_group_name_H-M    P1
_symmetry_Int_Tables_number       1
_space_group_crystal_system       triclinic
_cell_length_a                    11.21004
_cell_length_b                    11.168914
_cell_length_c                    10.448224
_cell_angle_alpha                 89.288896
_cell_angle_beta                  92.587697
_cell_angle_gamma                 101.949656
_cell_volume                      1278.49990679

loop_
_atom_site_label
_atom_site_type_symbol
_atom_type_description
_atom_site_fract_x
_atom_site_fract_y
_atom_site_fract_z
_atom_type_partial_charge
C1    C     C_R   0.509277 0.262487 0.501416 1.053402
C2    C     C_R   0.537971 0.061193 0.612305 -0.140257
C3    C     C_R   0.519786 0.129264 0.501811 -0.081040
C4    C     C_R   0.260993 0.511136 0.497468 1.078421
C5    C     C_R   0.505016 0.065749 0.387067 -0.126899
C6    C     C_R   0.484059 0.937849 0.381741 0.315175
C7    C     C_R   0.480477 0.868293 0.497931 -0.164181
C8    C     C_R   0.347752 0.283314 0.117087 0.299650
C9    C     C_R   0.276591 0.203373 0.026059 0.444768
C10   C     C_R   0.217680 0.272363 0.946733 0.258457
C11   C     C_R   0.296237 0.342143 0.863236 0.258941
C12   C     C_3   0.881870 0.516253 0.499930 -0.261756
C13   C     C_R   0.412703 0.412040 0.924101 -0.152860
C14   C     C_R   0.421662 0.402883 0.068481 -0.208222
C15   C     C_R   0.570868 0.587547 0.072541 0.602613
C16   C     C_R   0.492461 0.737119 0.498906 0.849132
C17   C     C_R   0.563794 0.593240 0.933119 0.404650
C18   C     C_R   0.742628 0.508058 0.501564 0.898844
C19   C     C_3   0.071439 0.470043 0.620984 -0.578447
C20   C     C_3   0.935263 0.474446 0.631638 0.352916
C21   C     C_3   0.103007 0.657031 0.484731 0.927098
C22   C     C_3   0.051297 0.438568 0.379692 0.853019
C23   C     C_3   0.957643 0.649483 0.473274 -0.585306
C24   C     C_3   0.123901 0.520427 0.492924 -0.272800
C25   C     C_3   0.159991 0.826645 0.342535 -0.183988
C26   C     C_3   0.802596 0.089511 0.683221 -0.180127
C27   C     C_3   0.318644 0.732770 0.858858 -0.076118
C28   C     C_3   0.766977 0.675060 0.133213 -0.283612
C29   C     C_3   0.217456 0.997579 0.966649 -0.047710
C30   C     C_3   0.693249 0.737232 0.819947 -0.033678
C31   C     C_3   0.139594 0.837056 0.621849 -0.094765
C32   C     C_3   0.060361 0.555802 0.173367 -0.115219
C33   C     C_3   0.003440 0.228182 0.473076 -0.099435
C34   C     C_3   0.911943 0.442987 0.379261 0.025765
C35   C     C_R   0.612216 0.111680 0.717057 0.509739
C36   C     C_R   0.587960 0.059701 0.837752 0.330796
C37   C     C_R   0.505252 0.948468 0.848751 -0.400397
C38   C     C_R   0.454661 0.881680 0.737806 0.522196
C39   C     C_R   0.489174 0.934195 0.615831 -0.178167
H1    H     H_    0.127676 0.520947 0.699530 0.287990
H2    H     H_    0.069449 0.849222 0.353671 0.114858
H3    H     H_    0.179282 0.840535 0.239858 0.248393
H4    H     H_    0.779145 0.037019 0.592493 0.123733
H5    H     H_    0.798492 0.026374 0.766684 0.170120
H6    H     H_    0.898793 0.134557 0.682219 0.229837
H7    H     H_    0.643252 0.319959 0.913621 0.368082
H8    H     H_    0.272588 0.635437 0.849323 0.193738
H9    H     H_    0.248330 0.783682 0.880929 0.125913
H10   H     H_    0.385792 0.734199 0.939426 0.185700
H11   H     H_    0.657793 0.905569 0.234462 0.362743
H12   H     H_    0.891722 0.501916 0.301687 0.131648
H13   H     H_    0.822453 0.767697 0.115472 0.200779
H14   H     H_    0.787602 0.611154 0.060214 0.177563
H15   H     H_    0.796120 0.645049 0.227176 0.178825
H16   H     H_    0.258155 0.079243 0.386869 0.347298
H17   H     H_    0.147474 0.995453 0.889316 0.191491
H18   H     H_    0.192514 0.907542 0.014614 0.158743
H19   H     H_    0.309428 0.006365 0.930504 0.160588
H20   H     H_    0.923642 0.321837 0.029675 0.442133
H21   H     H_    0.340223 0.070313 0.724839 0.342906
H22   H     H_    0.698695 0.825783 0.769853 0.115930
H23   H     H_    0.932947 0.680913 0.377780 0.113335
H24   H     H_    0.694335 0.669358 0.745297 0.222133
H25   H     H_    0.772395 0.747889 0.888920 0.195080
H26   H     H_    0.044077 0.494381 0.903581 0.382458
H27   H     H_    0.226093 0.904052 0.610731 0.139613
H28   H     H_    0.115094 0.842784 0.722565 0.203651
H29   H     H_    0.068183 0.867757 0.561834 0.096194
H30   H     H_    0.032459 0.634421 0.215108 0.115632
H31   H     H_    0.979035 0.506576 0.118840 0.186171
H32   H     H_    0.132066 0.593264 0.105605 0.213726
H33   H     H_    0.963210 0.145898 0.415774 0.214219
H34   H     H_    0.506911 0.117407 0.299117 0.258206
H35   H     H_    0.932967 0.259676 0.523099 0.139349
H36   H     H_    0.064488 0.194172 0.542100 0.214551
H37   H     H_    0.631672 0.307550 0.212220 0.410027
H38   H     H_    0.485842 0.914692 0.943426 0.275234
H39   H     H_    0.088917 0.378584 0.636635 0.244555
H40   H     H_    0.882579 0.382000 0.653107 0.190893
H41   H     H_    0.924805 0.716584 0.529749 0.228762
H42   H     H_    0.232813 0.887600 0.397512 0.192807
N1    N     N_R   0.498810 0.498800 0.142780 -0.142345
N2    N     N_R   0.498760 0.498720 0.857170 -0.155703
O1    O     O_R   0.500000 0.316780 0.614690 -0.519783
O2    O     O_3   0.728193 0.177091 0.695577 -0.564198
O3    O     O_2   0.563661 0.136625 0.071331 -0.313382
O4    O     O_2   0.756476 0.078317 0.027685 -0.163635
O5    O     O_3   0.715470 0.284267 0.935294 -0.459310
O6    O     O_3   0.368435 0.771457 0.739993 -0.541377
O7    O     O_2   0.386078 0.751754 0.208322 -0.266394
O8    O     O_2   0.393954 0.960606 0.147298 -0.286931
O9    O     O_3   0.597860 0.892337 0.160751 -0.433921
O10   O     O_3   0.643507 0.682848 0.138525 -0.542045
O11   O     O_2   0.288835 0.295805 0.377098 -0.248883
O12   O     O_R   0.499990 0.316750 0.385360 -0.610083
O13   O     O_2   0.133005 0.211646 0.222159 -0.120951
O14   O     O_3   0.283353 0.088264 0.296997 -0.551499
O15   O     O_3   0.213511 0.085964 0.059058 -0.491993
O16   O     O_2   0.006568 0.289799 0.816221 -0.372748
O17   O     O_2   0.998419 0.110061 0.950882 -0.203156
O18   O     O_3   0.007898 0.316433 0.056890 -0.470115
O19   O     O_2   0.155133 0.144370 0.733505 -0.401317
O20   O     O_2   0.280797 0.285013 0.604935 -0.270936
O21   O     O_3   0.380414 0.151097 0.759684 -0.635056
O22   O     O_3   0.584416 0.710269 0.883227 -0.621533
O23   O     O_R   0.314800 0.499990 0.614670 -0.589526
O24   O     O_2   0.912755 0.693643 0.739596 -0.383501
O25   O     O_2   0.808520 0.506315 0.841230 -0.308082
O26   O     O_3   0.039943 0.578479 0.878401 -0.604170
O27   O     O_3   0.158652 0.717464 0.599143 -0.575390
O28   O     O_3   0.109146 0.478381 0.261302 -0.520362
O29   O     O_3   0.073760 0.318287 0.396411 -0.511262
O30   O     O_2   0.868776 0.226883 0.240896 -0.157854
O31   O     O_2   0.737519 0.241320 0.415438 -0.397278
O32   O     O_3   0.712366 0.360791 0.201654 -0.518124
O33   O     O_R   0.314790 0.499970 0.385330 -0.491702
O34   O     O_R   0.500010 0.683250 0.614640 -0.582179
O35   O     O_R   0.500000 0.683220 0.385310 -0.548481
O36   O     O_R   0.685210 0.500030 0.614670 -0.603642
O37   O     O_R   0.685200 0.500010 0.385330 -0.591904
O38   O     O_3   0.167848 0.706572 0.375925 -0.647640
S1    S     S_3+6 0.657306 0.138566 0.973653 0.116672
S2    S     S_3+6 0.460545 0.879459 0.223102 0.042687
S3    S     S_3+6 0.266383 0.228387 0.257984 0.118110
S4    S     S_3+6 0.054484 0.243596 0.937757 0.108277
S5    S     S_3+6 0.275460 0.233649 0.734875 -0.026885
S6    S     S_3+6 0.920607 0.565196 0.773157 0.009707
S7    S     S_3+6 0.806572 0.311373 0.310465 0.037509
Zn1   Zn    Zn3+2 0.500010 0.500020 0.653130 1.077962
Zn2   Zn    Zn3+2 0.499990 0.499980 0.346870 1.118145

loop_
_geom_bond_atom_site_label_1
_geom_bond_atom_site_label_2
_ccdc_geom_bond_type
C2    C35   A    
C27   H9    S    
C31   H27   S    
C9    O15   S    
C32   O28   S    
C30   H25   S    
O23   Zn1   S    
C35   O2    S    
O7    S2    D    
C19   C20   S    
C21   O27   S    
C26   H5    S    
O16   S4    D    
O30   S7    D    
C1    O1    A    
C31   H28   S    
C38   O6    S    
C34   H12   S    
C29   O15   S    
O37   Zn2   S    
C36   C37   A    
N2    Zn1   S    
O14   S3    S    
C17   O22   S    
C38   C39   A    
C4    C24   S    
O1    Zn1   S    
H37   O32   S    
O20   S5    D    
C26   H6    S    
C2    C39   A    
C33   H36   S    
C23   H23   S    
C35   C36   A    
C8    C9    A    
O3    S1    D    
O12   Zn2   S    
O18   S4    S    
C27   O6    S    
C23   H41   S    
C15   N1    A    
C10   S4    S    
O34   Zn1   S    
C9    C10   A    
C33   H33   S    
O8    S2    D    
C13   C14   A    
C25   H42   S    
H16   O14   S    
C6    S2    S    
O26   S6    S    
C26   H4    S    
C32   H32   S    
H7    O5    S    
C31   H29   S    
C22   C34   S    
O13   S3    D    
O17   S4    D    
H20   O18   S    
C11   S5    S    
C20   S6    S    
O5    S1    S    
C19   H1    S    
O9    S2    S    
C25   H2    S    
C28   H15   S    
C8    S3    S    
C32   H31   S    
O19   S5    D    
C37   H38   S    
O32   S7    S    
C28   O10   S    
C17   N2    A    
C19   H39   S    
C36   S1    S    
C37   C38   A    
O35   Zn2   S    
C16   O35   A    
O31   S7    D    
C12   C23   S    
C1    O12   A    
C12   C20   S    
O21   S5    S    
C33   O29   S    
H26   O26   S    
C6    C7    A    
H11   O9    S    
C7    C16   S    
C29   H18   S    
C22   O29   S    
C21   C23   S    
C30   O22   S    
C22   C24   S    
C21   C24   S    
N1    Zn2   S    
C14   N1    A    
C12   C34   S    
C18   O37   A    
C27   H8    S    
C15   C17   A    
C8    C14   A    
C20   H40   S    
C4    O33   A    
C5    H34   S    
C3    C5    A    
C25   H3    S    
C15   O10   S    
O4    S1    D    
C28   H14   S    
C32   H30   S    
C28   H13   S    
C29   H17   S    
C13   N2    A    
C19   C24   S    
O24   S6    D    
H21   O21   S    
C16   O34   A    
C11   C13   A    
C5    C6    A    
C4    O23   A    
C26   O2    S    
O36   Zn1   S    
C31   O27   S    
C2    C3    A    
O25   S6    D    
C21   O38   S    
C10   C11   A    
C33   H35   S    
O33   Zn2   S    
C29   H19   S    
C34   S7    S    
C22   O28   S    
C30   H22   S    
C12   C18   S    
C7    C39   A    
C1    C3    S    
C30   H24   S    
C25   O38   S    
C18   O36   A    
C27   H10   S    
O11   S3    D    
