data_mof_unit_24614.cif
_audit_creation_date              2012-12-10T16:50:13-0500
_audit_creation_method            fapswitch 2.2
_symmetry_space_group_name_H-M    P1
_symmetry_Int_Tables_number       1
_space_group_crystal_system       triclinic
_cell_length_a                    23.4665
_cell_length_b                    8.683641
_cell_length_c                    7.440989
_cell_angle_alpha                 103.065241
_cell_angle_beta                  93.970749
_cell_angle_gamma                 92.319644
_cell_volume                      1471.02793478

loop_
_atom_site_label
_atom_site_type_symbol
_atom_type_description
_atom_site_fract_x
_atom_site_fract_y
_atom_site_fract_z
_atom_type_partial_charge
C1    C     C_R   0.498281 0.199657 0.453169 0.888654
C2    C     C_R   0.501719 0.800343 0.546831 0.888654
C3    C     C_R   0.235976 0.545496 0.371491 -0.090532
C4    C     C_R   0.764021 0.454463 0.628495 -0.090551
C5    C     C_R   0.295129 0.544787 0.366996 -0.203303
C6    C     C_R   0.704868 0.455175 0.632985 -0.203311
C7    C     C_R   0.328722 0.501487 0.509073 -0.045892
C8    C     C_R   0.671277 0.498512 0.490927 -0.045884
C9    C     C_R   0.302305 0.457860 0.655329 -0.248578
C10   C     C_R   0.697697 0.542170 0.344693 -0.248580
C11   C     C_R   0.242746 0.455164 0.658024 0.020892
C12   C     C_R   0.757256 0.544872 0.342012 0.020880
C13   C     C_R   0.209492 0.500003 0.515630 0.310276
C14   C     C_R   0.790508 0.500001 0.484390 0.310282
C15   C     C_2   0.497459 0.031711 0.426849 -0.363474
C16   C     C_2   0.502541 0.968289 0.573151 -0.363474
C17   C     C_R   0.391057 0.500201 0.502867 0.803616
C18   C     C_R   0.608943 0.499800 0.497133 0.803611
C19   C     C_R   0.883783 0.623632 0.602367 0.552674
C20   C     C_R   0.116216 0.376366 0.397687 0.552676
C21   C     C_R   0.876354 0.379375 0.373963 0.545279
C22   C     C_R   0.123647 0.620645 0.626054 0.545287
C23   C     C_R   0.936096 0.376345 0.376888 -0.012969
C24   C     C_R   0.063904 0.623669 0.623146 -0.012970
C25   C     C_R   0.969907 0.500490 0.496857 -0.017186
C26   C     C_R   0.030093 0.499518 0.503189 -0.017188
C27   C     C_R   0.943673 0.625511 0.610671 -0.015539
C28   C     C_R   0.056327 0.374493 0.389381 -0.015541
C29   C     C_R   0.962698 0.252284 0.263995 -0.156606
C30   C     C_R   0.037302 0.747728 0.736043 -0.156600
C31   C     C_R   0.022223 0.251369 0.270169 -0.159208
C32   C     C_R   0.977777 0.748635 0.729882 -0.159210
Cu1   Cu    Cu3+1 0.506340 0.517380 0.684380 0.957897
Cu2   Cu    Cu3+1 0.493660 0.482620 0.315620 0.957897
H1    H     H_    0.937651 0.155526 0.170653 0.193079
H2    H     H_    0.062349 0.844491 0.829379 0.193077
H3    H     H_    0.041378 0.154015 0.181249 0.185761
H4    H     H_    0.958622 0.845987 0.818806 0.185758
H5    H     H_    0.210477 0.580973 0.262439 0.162840
H6    H     H_    0.789518 0.418949 0.737522 0.162823
H7    H     H_    0.314633 0.579644 0.253404 0.163148
H8    H     H_    0.685361 0.420290 0.746554 0.163148
H9    H     H_    0.327879 0.422605 0.764703 0.153431
H10   H     H_    0.672125 0.577445 0.235331 0.153429
H11   H     H_    0.492671 0.959926 0.285930 0.180728
H12   H     H_    0.507329 0.040074 0.714069 0.180728
H13   H     H_    0.454903 0.379454 0.948914 0.225114
H14   H     H_    0.545097 0.620546 0.051086 0.225114
N1    N     N_R   0.851618 0.501721 0.485619 -0.473196
N2    N     N_R   0.148382 0.498288 0.514411 -0.473195
N3    N     N_2   0.484110 0.456420 0.038520 -0.216435
N4    N     N_2   0.515890 0.543580 0.961480 -0.216434
O1    O     O_R   0.504120 0.286130 0.619770 -0.584856
O2    O     O_R   0.495880 0.713870 0.380230 -0.584856
O3    O     O_R   0.493410 0.256770 0.308360 -0.581520
O4    O     O_R   0.506590 0.743230 0.691640 -0.581520
O5    O     O_R   0.423230 0.514630 0.655730 -0.588993
O6    O     O_R   0.576770 0.485370 0.344270 -0.588991
O7    O     O_R   0.412530 0.485280 0.344320 -0.581841
O8    O     O_R   0.587470 0.514720 0.655680 -0.581839
O9    O     O_2   0.857795 0.742511 0.709713 -0.510218
O10   O     O_2   0.142203 0.257470 0.290363 -0.510219
O11   O     O_2   0.843175 0.260817 0.261570 -0.523334
O12   O     O_2   0.156826 0.739218 0.738415 -0.523327
C33   C     C_1   0.216110 0.402072 0.804001 0.262069
N5    N     N_1   0.194588 0.358926 0.920481 -0.231797
C34   C     C_1   0.783898 0.597998 0.196067 0.262071
N6    N     N_1   0.805426 0.641167 0.079614 -0.231727

loop_
_geom_bond_atom_site_label_1
_geom_bond_atom_site_label_2
_ccdc_geom_bond_type
C17   O5    A    
C11   C33   S    
H13   N3    S    
C5    H7    S    
C20   O10   S    
C4    H6    S    
C1    C15   S    
C32   H4    S    
C2    C16   S    
C30   C32   A    
C19   C27   A    
Cu1   O5    S    
C29   H1    S    
C26   C28   A    
C3    C13   A    
C10   H10   S    
C30   H2    S    
C22   N2    A    
Cu1   O4    S    
C21   N1    A    
Cu1   Cu2   S    
C1    O3    A    
C3    H5    S    
Cu2   O3    S    
C29   C31   A    
Cu2   O6    S    
C2    O4    A    
Cu1   N4    S    
C4    C14   A    
C9    C11   A    
Cu2   N3    S    
C10   C12   A    
C17   O7    A    
C27   C32   A    
C6    C8    A    
C23   C29   A    
C18   O8    A    
C12   C14   A    
Cu2   O2    S    
Cu1   O8    S    
C24   C30   A    
C21   C23   A    
C31   H3    S    
Cu1   O1    S    
Cu2   O7    S    
C19   O9    S    
C12   C34   S    
C22   C24   A    
C19   N1    A    
C9    H9    S    
C14   N1    S    
C21   O11   S    
C15   C16   D    
C15   H11   S    
C22   O12   S    
C34   N6    T    
C7    C9    A    
C11   C13   A    
C23   C25   A    
N3    N4    D    
C4    C6    A    
C33   N5    T    
C2    O2    A    
C16   H12   S    
C28   C31   A    
C5    C7    A    
C1    O1    A    
C20   N2    A    
C20   C28   A    
C7    C17   S    
C25   C26   A    
H14   N4    S    
C6    H8    S    
C18   O6    A    
C8    C10   A    
C8    C18   S    
C13   N2    S    
C24   C26   A    
C3    C5    A    
C25   C27   A    
