data_mof_unit_9384.cif
_audit_creation_date              2013-03-05T16:40:05-0500
_audit_creation_method            fapswitch 2.2
_symmetry_space_group_name_H-M    P1
_symmetry_Int_Tables_number       1
_space_group_crystal_system       triclinic
_cell_length_a                    19.228625
_cell_length_b                    18.534866
_cell_length_c                    10.676271
_cell_angle_alpha                 90.356945
_cell_angle_beta                  90.487698
_cell_angle_gamma                 90.274345
_cell_volume                      3804.76658278

loop_
_atom_site_label
_atom_site_type_symbol
_atom_site_description
_atom_site_fract_x
_atom_site_fract_y
_atom_site_fract_z
_atom_type_partial_charge
O1    O     O_R   0.398180 0.560840 0.499970 -0.537970
O2    O     O_R   0.601820 0.560840 0.500030 -0.613385
O3    O     O_R   0.398180 0.439210 0.499910 -0.619366
O4    O     O_R   0.601820 0.439210 0.500090 -0.558326
C1    C     C_R   0.365644 0.499594 0.500554 1.011272
C2    C     C_R   0.634461 0.500098 0.497734 0.979972
O5    O     O_R   0.499990 0.560820 0.316770 -0.567605
O6    O     O_R   0.500010 0.560820 0.683230 -0.597781
O7    O     O_R   0.499990 0.439200 0.316710 -0.616954
O8    O     O_R   0.500010 0.439200 0.683290 -0.606592
C3    C     C_R   0.503688 0.499986 0.260120 1.009944
C4    C     C_R   0.503858 0.500394 0.739976 0.970967
Zn1   Zn    Zn3+2 0.500000 0.581210 0.500000 1.086813
Zn2   Zn    Zn3+2 0.500000 0.418790 0.500000 1.025862
C5    C     C_R   0.495502 0.562066 0.063465 -0.036445
C6    C     C_R   0.498896 0.564227 0.937625 -0.071398
C7    C     C_R   0.516409 0.501615 0.129185 -0.238300
C8    C     C_R   0.516996 0.502644 0.871212 -0.242500
C9    C     C_R   0.554706 0.447528 0.066343 0.207311
C10   C     C_R   0.552500 0.446614 0.934142 0.209404
C11   C     C_3   0.443380 0.620681 0.926857 0.581561
C12   C     C_3   0.436138 0.613877 0.072119 0.563319
C13   C     C_R   0.750628 0.440507 0.513299 0.423608
C14   C     C_R   0.252167 0.441009 0.448396 0.426784
C15   C     C_R   0.822921 0.444549 0.498817 0.495821
C16   C     C_R   0.179365 0.443102 0.448777 0.490581
C17   C     C_R   0.852997 0.509571 0.456499 0.094682
C18   C     C_R   0.145981 0.504132 0.500308 0.089602
C19   C     C_R   0.811590 0.566970 0.418693 -0.200949
C20   C     C_R   0.184364 0.558199 0.561103 -0.185578
H1    H     H_    0.834498 0.616914 0.386742 0.181226
H2    H     H_    0.158848 0.604406 0.602715 0.192189
C21   C     C_R   0.740315 0.562120 0.429263 -0.249187
C22   C     C_R   0.255949 0.554442 0.565002 -0.313656
H3    H     H_    0.709361 0.607445 0.399021 0.250905
H4    H     H_    0.284735 0.596743 0.612611 0.226250
C23   C     C_R   0.709591 0.500687 0.481409 -0.199744
C24   C     C_R   0.290196 0.498154 0.504305 -0.196696
C25   C     C_R   0.967875 0.526115 0.357725 0.312315
C26   C     C_R   0.040554 0.518215 0.367838 0.394800
C27   C     C_R   0.071151 0.513746 0.488009 -0.216503
C28   C     C_R   0.927665 0.520697 0.466345 -0.229761
C29   C     C_R   0.030612 0.516866 0.596965 0.326621
C30   C     C_R   0.958629 0.521610 0.585816 0.418128
C31   C     C_R   0.561465 0.727669 0.491832 0.445737
C32   C     C_R   0.438674 0.727402 0.510123 0.553497
C33   C     C_R   0.562141 0.803502 0.472268 0.164047
C34   C     C_R   0.439126 0.804320 0.515368 0.118441
C35   C     C_R   0.500183 0.842665 0.487378 -0.164597
N1    N     N_R   0.500000 0.689440 0.500000 -0.184676
C36   C     C_R   0.473851 0.962279 0.385053 0.555691
C37   C     C_R   0.527362 0.962287 0.592603 0.468757
C38   C     C_R   0.470799 0.038558 0.390485 -0.246710
C39   C     C_R   0.528138 0.038470 0.592352 -0.223519
H5    H     H_    0.445316 0.067475 0.315753 0.163293
H6    H     H_    0.551893 0.067155 0.670436 0.177642
C40   C     C_R   0.498971 0.077494 0.492532 0.096846
C41   C     C_R   0.500519 0.923755 0.488346 0.056371
C42   C     C_R   0.472261 0.197018 0.598948 0.383400
C43   C     C_R   0.524321 0.198581 0.392384 0.386634
C44   C     C_R   0.472028 0.273507 0.597217 -0.096003
C45   C     C_R   0.526448 0.274702 0.399744 -0.150552
H7    H     H_    0.448627 0.303562 0.672833 0.170795
H8    H     H_    0.549415 0.305394 0.324986 0.208680
N2    N     N_R   0.500000 0.310560 0.500000 -0.138721
C46   C     C_R   0.498419 0.158773 0.494574 -0.055393
N3    N     N_R   0.599874 0.399830 0.134818 0.209257
O9    O     O_R   0.637610 0.425338 0.226695 -0.443792
O10   O     O_R   0.611543 0.334516 0.095585 -0.362086
N4    N     N_R   0.589018 0.392598 0.864837 0.260522
O11   O     O_R   0.563424 0.327739 0.854724 -0.392805
O12   O     O_R   0.642245 0.410870 0.797571 -0.326680
O13   O     O_3   0.623946 0.692963 0.506087 -0.579101
C47   C     C_3   0.639650 0.690556 0.635648 -0.118420
H9    H     H_    0.644250 0.745581 0.677398 0.189514
H10   H     H_    0.690498 0.663430 0.648474 0.164336
H11   H     H_    0.600121 0.658879 0.687590 0.184021
O14   O     O_3   0.377474 0.690201 0.532017 -0.565963
C48   C     C_3   0.323484 0.711066 0.448655 -0.173950
H12   H     H_    0.340037 0.746623 0.370822 0.134219
H13   H     H_    0.281958 0.738453 0.502227 0.195774
H14   H     H_    0.299848 0.662235 0.405790 0.214622
N5    N     N_R   0.625783 0.840407 0.439895 0.260473
O15   O     O_R   0.685688 0.819070 0.482914 -0.333901
O16   O     O_R   0.624658 0.892840 0.359443 -0.386330
N6    N     N_R   0.378783 0.842350 0.558534 0.212485
O17   O     O_R   0.349687 0.891568 0.489723 -0.379967
O18   O     O_R   0.350300 0.824727 0.664204 -0.375047
O19   O     O_3   0.445960 0.923733 0.284460 -0.590214
C49   C     C_3   0.475205 0.947232 0.170818 -0.268260
H15   H     H_    0.532561 0.955333 0.178185 0.202892
H16   H     H_    0.449505 0.997227 0.137730 0.151053
H17   H     H_    0.465762 0.904995 0.098492 0.188141
O20   O     O_3   0.557126 0.925015 0.691113 -0.584201
C50   C     C_3   0.512794 0.929335 0.795412 -0.219375
H18   H     H_    0.459513 0.909322 0.772176 0.202581
H19   H     H_    0.510612 0.985281 0.833414 0.139417
H20   H     H_    0.533933 0.894345 0.870429 0.213693
O21   O     O_3   0.440410 0.158810 0.694237 -0.602715
C51   C     C_3   0.469076 0.178556 0.811755 -0.269381
H21   H     H_    0.446339 0.229925 0.845902 0.191343
H22   H     H_    0.526927 0.182147 0.809760 0.192802
H23   H     H_    0.455402 0.136211 0.880400 0.169470
O22   O     O_3   0.552985 0.162552 0.291256 -0.575293
C52   C     C_3   0.514858 0.178586 0.181297 -0.269087
H24   H     H_    0.527337 0.233397 0.147110 0.221401
H25   H     H_    0.457681 0.173289 0.194774 0.126838
H26   H     H_    0.529771 0.139646 0.107024 0.186236
N7    N     N_R   0.474830 0.688485 0.882321 0.172700
O23   O     O_R   0.532082 0.713104 0.933201 -0.399639
O24   O     O_R   0.450207 0.720988 0.784269 -0.393985
N8    N     N_R   0.373488 0.576188 0.117427 0.164197
O25   O     O_R   0.348983 0.520162 0.057169 -0.379822
O26   O     O_R   0.352108 0.587646 0.230936 -0.409483
O27   O     O_3   0.386429 0.595273 0.852746 -0.611368
C53   C     C_3   0.328053 0.641181 0.860813 -0.138919
H27   H     H_    0.327257 0.679040 0.780858 0.230298
H28   H     H_    0.324864 0.672160 0.949638 0.110375
H29   H     H_    0.280305 0.607537 0.853699 0.184670
O28   O     O_3   0.456278 0.674820 0.145617 -0.577151
C54   C     C_3   0.407782 0.731583 0.135747 -0.235365
H30   H     H_    0.422007 0.773512 0.206072 0.209018
H31   H     H_    0.353768 0.714020 0.155371 0.160577
H32   H     H_    0.409740 0.757865 0.042988 0.181828
O29   O     O_3   0.721084 0.382021 0.573384 -0.529270
C55   C     C_3   0.714823 0.323295 0.489147 -0.111002
H33   H     H_    0.700412 0.339772 0.392198 0.169071
H34   H     H_    0.672863 0.287156 0.522716 0.188967
H35   H     H_    0.763453 0.291436 0.488416 0.169549
O30   O     O_3   0.286122 0.388180 0.380270 -0.552962
C56   C     C_3   0.290315 0.324427 0.451644 -0.198238
H36   H     H_    0.299913 0.334724 0.553419 0.123072
H37   H     H_    0.334693 0.292135 0.416924 0.181296
H38   H     H_    0.242693 0.291264 0.438035 0.182457
O31   O     O_3   0.863685 0.388062 0.540869 -0.567019
C57   C     C_3   0.893100 0.352069 0.437134 -0.331371
H39   H     H_    0.939948 0.380903 0.403698 0.165349
H40   H     H_    0.855411 0.344191 0.358233 0.161439
H41   H     H_    0.910069 0.297794 0.467659 0.200390
O32   O     O_3   0.142602 0.389358 0.386015 -0.583813
C58   C     C_3   0.108146 0.345110 0.473168 -0.396175
H42   H     H_    0.059667 0.370814 0.506276 0.170147
H43   H     H_    0.141969 0.330478 0.554269 0.144244
H44   H     H_    0.092845 0.294119 0.425282 0.211096
O33   O     O_3   0.935065 0.532074 0.242341 -0.589420
C59   C     C_3   0.945550 0.602545 0.196380 -0.239205
H45   H     H_    0.999722 0.610258 0.163683 0.196335
H46   H     H_    0.932892 0.644766 0.267130 0.139656
H47   H     H_    0.910525 0.610524 0.114591 0.191015
O34   O     O_3   0.083296 0.519180 0.263449 -0.591461
C60   C     C_3   0.065235 0.463245 0.178182 -0.087433
H48   H     H_    0.031587 0.484473 0.102126 0.172630
H49   H     H_    0.039526 0.415938 0.222736 0.156434
H50   H     H_    0.113540 0.443382 0.133873 0.188371
O35   O     O_3   0.061370 0.519208 0.714695 -0.588075
C61   C     C_3   0.064515 0.448722 0.763164 -0.211157
H51   H     H_    0.105046 0.416908 0.714581 0.133154
H52   H     H_    0.013390 0.420243 0.757988 0.197577
H53   H     H_    0.079788 0.452281 0.863464 0.175630
O36   O     O_3   0.918155 0.520913 0.692323 -0.551054
C62   C     C_3   0.906162 0.592846 0.729492 -0.229843
H54   H     H_    0.877233 0.623035 0.656010 0.145131
H55   H     H_    0.955721 0.621174 0.753584 0.176609
H56   H     H_    0.873641 0.592475 0.814809 0.194530

loop_
_geom_bond_atom_site_label_1
_geom_bond_atom_site_label_2
_geom_bond_distance
_ccdc_geom_bond_type
C6    C11   1.502596 S    
C17   C19   1.391636 A    
C42   O21   1.388178 S    
O13   C47   1.414311 S    
C50   H18   1.113401 S    
C40   C46   1.506590 S    
C11   O27   1.422214 S    
C56   H38   1.108461 S    
N8    O26   1.299547 A    
C62   H54   1.113098 S    
C50   H20   1.109375 S    
O31   C57   1.413013 S    
C33   C35   1.407966 A    
C12   O28   1.421681 S    
C52   H25   1.113976 S    
O6    Zn1   1.994694 S    
C47   H10   1.109413 S    
O1    C1    1.293614 A    
C31   O13   1.373265 S    
C61   H51   1.109772 S    
C14   C16   1.400649 A    
C16   O32   1.384871 S    
C58   H43   1.114112 S    
C42   C46   1.414323 A    
N6    O18   1.301078 A    
C5    C6    1.346480 A    
C19   C21   1.378662 A    
C18   C27   1.455641 S    
C53   H27   1.108451 S    
C43   C45   1.412965 A    
C60   H50   1.109329 S    
C44   H7    1.080509 S    
O2    Zn1   1.995701 S    
O22   C52   1.412703 S    
C54   H32   1.107219 S    
C45   H8    1.079310 S    
C21   H3    1.081271 S    
C61   H52   1.114363 S    
C5    C12   1.498303 S    
C3    C7    1.421669 S    
C9    C10   1.411684 A    
C47   H11   1.112171 S    
C14   C24   1.410730 A    
C60   H48   1.109161 S    
C37   O20   1.383303 S    
N4    O11   1.300324 A    
C33   N5    1.444651 S    
C8    C10   1.415493 A    
C13   O29   1.385040 S    
C31   C33   1.422298 A    
C43   C46   1.413698 A    
C22   C24   1.395512 A    
C11   C12   1.564101 S    
C27   C29   1.406815 A    
C10   N4    1.431520 S    
O2    C2    1.291803 A    
C28   C30   1.402991 A    
C57   H41   1.109099 S    
C29   O35   1.384895 S    
N8    O25   1.302337 A    
C62   H55   1.113240 S    
C37   C39   1.412069 A    
O33   C59   1.412327 S    
C25   C28   1.403087 A    
C59   H46   1.113449 S    
C38   H5    1.079416 S    
C37   C41   1.411463 A    
C52   H26   1.109364 S    
C39   H6    1.082564 S    
C42   C44   1.417968 A    
C47   H9    1.113310 S    
C20   C22   1.378862 A    
N3    O9    1.300396 A    
C53   H29   1.109198 S    
O32   C58   1.411430 S    
C57   H40   1.114972 S    
O8    Zn2   1.990768 S    
C58   H44   1.109014 S    
C25   C26   1.409178 A    
C48   H13   1.109247 S    
C38   C40   1.406275 A    
O14   C48   1.418377 S    
C55   H35   1.108390 S    
O3    C1    1.284831 A    
C13   C23   1.411163 A    
C51   H23   1.109382 S    
C21   C23   1.400920 A    
C35   C41   1.502940 S    
Zn1   N1    2.006027 S    
N3    O10   1.299688 A    
O5    C3    1.278759 A    
O7    Zn2   1.995396 S    
C14   O30   1.385424 S    
C59   H47   1.109269 S    
C49   H16   1.110487 S    
N5    O15   1.300702 A    
O6    C4    1.278807 A    
C25   O33   1.384498 S    
C51   H22   1.114464 S    
C2    C23   1.456576 S    
C26   O34   1.390520 S    
C36   C41   1.411618 A    
C9    N3    1.440481 S    
O7    C3    1.283704 A    
C54   H30   1.108909 S    
O3    Zn2   1.995880 S    
O8    C4    1.283783 A    
O4    C2    1.289202 A    
C26   C27   1.409959 A    
N5    O16   1.301152 A    
C12   N8    1.476232 S    
C29   C30   1.391494 A    
O29   C55   1.411655 S    
C30   O36   1.383470 S    
C34   N6    1.438210 S    
O1    Zn1   1.992153 S    
C4    C8    1.421903 S    
C56   H36   1.115715 S    
C62   H56   1.109274 S    
O28   C54   1.413041 S    
C49   H17   1.109423 S    
C32   O14   1.383408 S    
C59   H45   1.110297 S    
C5    C7    1.385145 A    
C34   C35   1.404786 A    
C55   H34   1.109437 S    
C45   N2    1.360023 A    
N6    O17   1.300434 A    
C61   H53   1.109440 S    
C57   H39   1.108034 S    
C56   H37   1.109645 S    
C48   H14   1.105671 S    
C11   N7    1.475206 S    
C50   H19   1.112254 S    
C15   C17   1.412661 A    
C52   H24   1.107541 S    
C32   N1    1.380757 A    
C16   C18   1.414060 A    
O21   C51   1.411561 S    
O36   C62   1.409320 S    
N7    O24   1.298110 A    
O30   C56   1.412292 S    
C19   H1    1.081621 S    
C43   O22   1.385684 S    
C58   H42   1.108460 S    
C36   O19   1.388667 S    
C20   H2    1.083767 S    
C17   C28   1.452357 S    
C49   H15   1.114387 S    
C31   N1    1.378788 A    
C55   H33   1.114109 S    
C18   C20   1.395317 A    
C51   H21   1.110367 S    
C7    C9    1.415801 A    
Zn2   N2    2.006027 S    
C53   H28   1.107836 S    
C22   H4    1.079595 S    
C60   H49   1.115583 S    
O4    Zn2   1.992315 S    
O20   C50   1.410216 S    
C15   O31   1.385581 S    
C54   H31   1.109010 S    
C48   H12   1.111527 S    
C32   C34   1.426416 A    
C44   N2    1.361284 A    
O5    Zn1   1.990071 S    
C13   C15   1.401665 A    
C6    C8    1.387322 A    
N7    O23   1.302750 A    
O35   C61   1.409583 S    
O34   C60   1.415471 S    
N4    O12   1.300066 A    
C36   C38   1.416170 A    
O19   C49   1.412031 S    
C1    C24   1.451775 S    
O27   C53   1.414677 S    
C39   C40   1.405971 A    
