data_mof_unit_7021.cif
_audit_creation_date              2012-12-10T18:47:07-0500
_audit_creation_method            fapswitch 2.2
_symmetry_space_group_name_H-M    P1
_symmetry_Int_Tables_number       1
_space_group_crystal_system       triclinic
_cell_length_a                    10.695639
_cell_length_b                    9.969828
_cell_length_c                    14.953182
_cell_angle_alpha                 90.027371
_cell_angle_beta                  91.70301
_cell_angle_gamma                 89.964107
_cell_volume                      1593.80806523

loop_
_atom_site_label
_atom_site_type_symbol
_atom_type_description
_atom_site_fract_x
_atom_site_fract_y
_atom_site_fract_z
_atom_type_partial_charge
C1    C     C_R   0.260287 0.500078 0.499041 0.903913
C2    C     C_R   0.127622 0.500232 0.498997 -0.013877
C3    C     C_R   0.588170 0.070951 0.549013 0.408323
C4    C     C_R   0.411816 0.929084 0.451023 0.398229
C5    C     C_R   0.411882 0.070981 0.450958 0.412867
C6    C     C_R   0.588121 0.929030 0.549058 0.401966
C7    C     C_R   0.501947 0.499748 0.327555 0.896558
C8    C     C_R   0.498362 0.499860 0.672370 0.905281
C9    C     C_R   0.611758 0.492618 0.815736 -0.094609
C10   C     C_R   0.388886 0.521298 0.184338 -0.102170
C11   C     C_R   0.497147 0.497398 0.767907 -0.166242
C12   C     C_R   0.739718 0.499961 0.500508 0.890606
C13   C     C_R   0.501722 0.496927 0.231846 -0.166282
C14   C     C_R   0.381789 0.494182 0.810309 -0.037778
C15   C     C_R   0.612986 0.464887 0.188937 -0.035312
C16   C     C_R   0.381690 0.490600 0.903951 0.054857
C17   C     C_R   0.611323 0.459560 0.095341 0.058680
C18   C     C_R   0.496466 0.477223 0.952765 0.030519
C19   C     C_R   0.496821 0.477113 0.046747 0.032465
C20   C     C_R   0.610976 0.464320 0.907801 0.108628
C21   C     C_R   0.382939 0.495370 0.091798 0.100957
C22   C     C_R   0.268902 0.489663 0.949548 -0.287972
C23   C     C_R   0.267966 0.486024 0.042291 0.032987
C24   C     C_R   0.719963 0.426927 0.049525 -0.297236
C25   C     C_2   0.728365 0.532791 0.770114 0.507163
C26   C     C_2   0.283813 0.586722 0.231293 0.516598
C27   C     C_2   0.262206 0.500048 0.756816 0.396383
C28   C     C_2   0.732438 0.446415 0.241452 0.395206
C29   C     C_2   0.145893 0.455621 0.082472 0.469539
C30   C     C_2   0.828698 0.356729 0.915817 0.505470
C31   C     C_R   0.719604 0.422519 0.956785 0.009335
C32   C     C_R   0.063184 0.381459 0.479540 -0.137999
C33   C     C_R   0.936857 0.618536 0.520330 -0.169233
C34   C     C_R   0.935211 0.381164 0.480600 -0.087412
C35   C     C_R   0.064864 0.618765 0.519454 -0.137119
C36   C     C_R   0.872399 0.499826 0.500672 -0.044173
H1    H     H_    0.179771 0.485432 0.913407 0.140064
H2    H     H_    0.815410 0.501511 0.223315 0.084096
H3    H     H_    0.060000 0.493367 0.051242 0.047300
H4    H     H_    0.920057 0.361167 0.949208 0.044960
H5    H     H_    0.653779 0.226013 0.611052 0.376789
H6    H     H_    0.346204 0.774063 0.389191 0.375913
H7    H     H_    0.346524 0.226009 0.388783 0.373850
H8    H     H_    0.653508 0.773982 0.611218 0.374630
H9    H     H_    0.805028 0.397817 0.085519 0.146487
H10   H     H_    0.111204 0.289353 0.463173 0.202135
H11   H     H_    0.888833 0.710601 0.536793 0.206656
H12   H     H_    0.885849 0.288831 0.464914 0.208364
H13   H     H_    0.114288 0.710947 0.535465 0.189449
H14   H     H_    0.740847 0.509044 0.700153 0.033459
H15   H     H_    0.262548 0.558370 0.299206 0.032262
H16   H     H_    0.191239 0.573392 0.772737 0.084208
N1    N     N_R   0.500000 0.857200 0.500000 -0.273017
N2    N     N_R   0.500000 0.142800 0.500000 -0.269642
O1    O     O_R   0.316770 0.614620 0.499990 -0.645778
O2    O     O_2   0.223423 0.676870 0.195446 -0.535961
O3    O     O_2   0.240865 0.419968 0.696580 -0.541888
O4    O     O_2   0.740008 0.366203 0.302951 -0.544815
O5    O     O_2   0.139521 0.382072 0.147459 -0.563487
O6    O     O_2   0.816282 0.290118 0.847573 -0.535059
O7    O     O_3   0.679247 0.132923 0.601090 -0.668190
O8    O     O_3   0.320713 0.867148 0.398992 -0.670879
O9    O     O_3   0.321052 0.132950 0.398652 -0.682976
O10   O     O_3   0.678943 0.867060 0.601377 -0.686010
O11   O     O_R   0.683230 0.385380 0.500010 -0.611221
O12   O     O_R   0.683230 0.614620 0.500010 -0.639535
O13   O     O_R   0.316770 0.385380 0.499990 -0.611986
O14   O     O_R   0.499980 0.614680 0.367850 -0.652562
O15   O     O_R   0.500020 0.385320 0.632150 -0.604481
O16   O     O_R   0.500020 0.614680 0.632150 -0.651786
O17   O     O_R   0.499980 0.385320 0.367850 -0.594371
O18   O     O_2   0.809300 0.598093 0.809587 -0.560586
Zn1   Zn    Zn3+2 0.500000 0.653120 0.500000 0.956044
Zn2   Zn    Zn3+2 0.500000 0.346880 0.500000 1.008449

loop_
_geom_bond_atom_site_label_1
_geom_bond_atom_site_label_2
_ccdc_geom_bond_type
C2    C35   A    
C35   H13   S    
O17   Zn2   S    
C25   H14   S    
C28   O4    D    
C14   C27   S    
C12   C36   S    
C12   O11   A    
H6    O8    S    
C9    C20   A    
C8    O16   A    
H5    O7    S    
O1    Zn1   S    
O12   Zn1   S    
C3    C6    A    
C32   H10   S    
C29   H3    S    
O16   Zn1   S    
C13   C15   A    
C17   C24   A    
C1    O1    A    
C24   C31   A    
C9    C25   S    
O15   Zn2   S    
O13   Zn2   S    
C26   H15   S    
H8    O10   S    
C9    C11   A    
C10   C26   S    
C15   C28   S    
C25   O18   D    
C8    C11   S    
C24   H9    S    
C23   C29   S    
C16   C18   A    
C7    O14   A    
C33   C35   A    
C1    C2    S    
C34   C36   A    
C3    O7    S    
C10   C21   A    
C7    O17   A    
C30   C31   S    
C33   H11   S    
C3    N2    A    
C14   C16   A    
C4    N1    A    
C34   H12   S    
C6    N1    A    
H7    O9    S    
O14   Zn1   S    
C4    O8    S    
C5    N2    A    
C30   H4    S    
C33   C36   A    
C30   O6    D    
C27   H16   S    
C5    O9    S    
C18   C20   A    
C2    C32   A    
C18   C19   A    
C27   O3    D    
C6    O10   S    
C11   C14   A    
C15   C17   A    
C8    O15   A    
C22   C23   A    
C17   C19   A    
C16   C22   A    
C7    C13   S    
C1    O13   A    
C28   H2    S    
N2    Zn2   S    
C22   H1    S    
C12   O12   A    
C21   C23   A    
C10   C13   A    
N1    Zn1   S    
O11   Zn2   S    
C29   O5    D    
C26   O2    D    
C4    C5    A    
C19   C21   A    
C20   C31   A    
C32   C34   A    
