data_mof_unit_64696.cif
_audit_creation_date              2012-12-10T20:43:38-0500
_audit_creation_method            fapswitch 2.2
_symmetry_space_group_name_H-M    P1
_symmetry_Int_Tables_number       1
_space_group_crystal_system       triclinic
_cell_length_a                    10.820956
_cell_length_b                    19.238514
_cell_length_c                    19.242368
_cell_angle_alpha                 95.017905
_cell_angle_beta                  91.981694
_cell_angle_gamma                 96.330678
_cell_volume                      3962.21384877

loop_
_atom_site_label
_atom_site_type_symbol
_atom_type_description
_atom_site_fract_x
_atom_site_fract_y
_atom_site_fract_z
_atom_type_partial_charge
C1    C     C_R   0.512628 0.690063 0.508375 0.814744
C2    C     C_R   0.514767 0.766691 0.512332 -0.002615
C3    C     C_R   0.465434 0.802056 0.570034 -0.213461
C4    C     C_R   0.486465 0.309843 0.492143 0.802850
C5    C     C_R   0.462036 0.874307 0.573402 -0.193097
C6    C     C_R   0.483429 0.510394 0.765509 0.001610
C7    C     C_R   0.542503 0.462490 0.802210 -0.229130
C8    C     C_R   0.541927 0.466256 0.874760 -0.169439
C9    C     C_R   0.482084 0.518420 0.912063 0.324874
C10   C     C_R   0.423541 0.566171 0.875313 -0.191879
C11   C     C_R   0.423333 0.562069 0.802577 -0.214667
C12   C     C_R   0.510931 0.199234 0.548929 0.188229
C13   C     C_R   0.518983 0.548759 0.126995 -0.202521
C14   C     C_R   0.515392 0.554281 0.200006 -0.067249
C15   C     C_R   0.515322 0.482670 0.088521 0.297154
C16   C     C_R   0.511265 0.493574 0.311196 0.848494
C17   C     C_R   0.511528 0.492168 0.234938 -0.073307
C18   C     C_R   0.509314 0.426767 0.196247 -0.228447
C19   C     C_R   0.512250 0.422243 0.123806 -0.179569
C20   C     C_R   0.486974 0.507009 0.689024 0.789707
C21   C     C_R   0.835025 0.515407 0.515498 0.852731
C22   C     C_R   0.163881 0.485132 0.485138 0.899449
C23   C     C_R   0.518032 0.126860 0.542553 -0.243184
C24   C     C_2   0.029081 0.479459 0.479350 -0.340990
C25   C     C_2   0.968273 0.521142 0.521481 -0.290068
C26   C     C_R   0.482931 0.232990 0.488863 -0.029009
C27   C     C_3   0.420918 0.254276 0.649666 -0.752098
C28   C     C_2   0.509665 0.625065 0.236841 0.921468
C29   C     C_R   0.494793 0.087017 0.477391 0.297844
C30   C     C_R   0.465270 0.120796 0.418647 -0.193577
C31   C     C_R   0.458430 0.193025 0.424280 -0.269430
C32   C     C_R   0.556615 0.877221 0.461133 -0.167579
C33   C     C_R   0.561889 0.804820 0.458253 -0.203642
C34   C     C_R   0.505087 0.912275 0.518781 0.319672
H1    H     H_    0.978961 0.441121 0.440536 0.148136
H2    H     H_    0.600359 0.778512 0.413271 0.175381
H3    H     H_    0.593004 0.905566 0.418694 0.153255
H4    H     H_    0.447682 0.090951 0.368223 0.152296
H5    H     H_    0.437356 0.218015 0.377656 0.172998
H6    H     H_    0.429541 0.773841 0.612713 0.163135
H7    H     H_    0.541656 0.101999 0.588839 0.150412
H8    H     H_    0.423770 0.900816 0.618340 0.142834
H9    H     H_    0.592456 0.216294 0.648876 0.220080
H10   H     H_    0.364089 0.205316 0.661406 0.229266
H11   H     H_    0.364602 0.284090 0.616054 0.231528
H12   H     H_    0.522154 0.595994 0.100009 0.188781
H13   H     H_    0.446716 0.287359 0.699364 0.233999
H14   H     H_    0.555466 0.729749 0.237974 0.343018
H15   H     H_    0.377776 0.606714 0.903267 0.146973
H16   H     H_    0.377569 0.599844 0.775486 0.165548
H17   H     H_    0.506776 0.378981 0.222354 0.155397
H18   H     H_    0.589349 0.428829 0.901381 0.152192
H19   H     H_    0.510629 0.371247 0.094848 0.144043
H20   H     H_    0.589432 0.422062 0.774880 0.169288
H21   H     H_    0.016001 0.559779 0.560746 0.160753
N1    N     N_2   0.501619 0.013404 0.469030 -0.190744
N2    N     N_2   0.497498 0.985570 0.525172 -0.200608
N3    N     N_2   0.480827 0.525677 0.986095 -0.195809
N4    N     N_2   0.515396 0.474828 0.014512 -0.197753
N5    N     N_2   0.532677 0.237531 0.615839 -0.281354
O1    O     O_3   0.500000 0.500000 0.500000 -0.490256
O2    O     O_R   0.783160 0.551820 0.473170 -0.633587
O3    O     O_R   0.222430 0.530340 0.530340 -0.638735
O4    O     O_R   0.771990 0.472690 0.551320 -0.635858
O5    O     O_R   0.222420 0.445150 0.445160 -0.640058
O6    O     O_2   0.452274 0.631910 0.290197 -0.634882
O7    O     O_R   0.566564 0.684556 0.208778 -0.807476
O8    O     O_R   0.435070 0.449940 0.339290 -0.643545
O9    O     O_R   0.419380 0.543640 0.654290 -0.651568
O10   O     O_R   0.586230 0.658380 0.469080 -0.625537
O11   O     O_R   0.559310 0.348040 0.537340 -0.611167
O12   O     O_R   0.435110 0.654980 0.544320 -0.649339
O13   O     O_R   0.419350 0.338590 0.449260 -0.655052
O14   O     O_R   0.586210 0.538520 0.349230 -0.616330
O15   O     O_R   0.559330 0.467910 0.657200 -0.641561
Zn1   Zn    Zn3+2 0.396020 0.434560 0.434560 0.981398
Zn2   Zn    Zn3+2 0.611960 0.561120 0.448760 1.008910
Zn3   Zn    Zn3+2 0.595990 0.448060 0.560420 0.973947
Zn4   Zn    Zn3+2 0.396040 0.556260 0.556260 0.973788

loop_
_geom_bond_atom_site_label_1
_geom_bond_atom_site_label_2
_ccdc_geom_bond_type
C5    H8    S    
O2    Zn2   S    
C7    C8    A    
O3    Zn4   S    
C15   C19   A    
C12   C23   A    
O5    Zn1   S    
C16   O14   A    
C23   C29   A    
C18   C19   A    
O12   Zn4   S    
C27   N5    S    
C13   H12   S    
C33   H2    S    
N1    N2    D    
C30   H4    S    
C1    C2    S    
C21   O4    A    
C22   O3    A    
C27   H10   S    
O1    Zn2   S    
C8    C9    A    
O14   Zn2   S    
C34   N2    S    
C16   O8    A    
C9    C10   A    
C8    H18   S    
C19   H19   S    
C26   C31   A    
C13   C14   A    
O10   Zn2   S    
C14   C17   A    
O4    Zn3   S    
C18   H17   S    
O1    Zn1   S    
C1    O12   A    
C24   H1    S    
C28   O7    S    
C24   C25   D    
C6    C11   A    
C16   C17   S    
N3    N4    D    
C20   O15   A    
C12   C26   A    
C32   C34   A    
C28   O6    D    
C22   O5    A    
C29   C30   A    
O1    Zn3   S    
C5    C34   A    
C17   C18   A    
C21   O2    A    
C32   H3    S    
C4    O13   A    
H9    N5    S    
C2    C33   A    
C3    H6    S    
C13   C15   A    
O13   Zn1   S    
C22   C24   S    
C20   O9    A    
O9    Zn4   S    
C27   H13   S    
C21   C25   S    
C9    N3    S    
C15   N4    S    
C25   H21   S    
C3    C5    A    
C4    C26   S    
C6    C7    A    
C29   N1    S    
O8    Zn1   S    
C6    C20   S    
C1    O10   A    
C23   H7    S    
C32   C33   A    
C2    C3    A    
C11   H16   S    
C27   H11   S    
C30   C31   A    
O1    Zn4   S    
C31   H5    S    
O11   Zn3   S    
H14   O7    S    
O15   Zn3   S    
C10   C11   A    
C12   N5    S    
C7    H20   S    
C14   C28   S    
C10   H15   S    
C4    O11   A    
