data_mof_unit_25245.cif
_audit_creation_date              2012-12-10T18:49:53-0500
_audit_creation_method            fapswitch 2.2
_symmetry_space_group_name_H-M    P1
_symmetry_Int_Tables_number       1
_space_group_crystal_system       triclinic
_cell_length_a                    10.711541
_cell_length_b                    9.925911
_cell_length_c                    10.627648
_cell_angle_alpha                 89.885953
_cell_angle_beta                  92.134275
_cell_angle_gamma                 89.96301
_cell_volume                      1129.16431013

loop_
_atom_site_label
_atom_site_type_symbol
_atom_type_description
_atom_site_fract_x
_atom_site_fract_y
_atom_site_fract_z
_atom_type_partial_charge
C1    C     C_R   0.260107 0.500029 0.499329 0.886081
C2    C     C_3   0.620352 0.528821 0.933587 -0.748350
C3    C     C_R   0.064778 0.379253 0.520030 -0.138384
C4    C     C_R   0.062999 0.620659 0.476479 -0.179579
C5    C     C_R   0.936944 0.379242 0.520136 -0.175995
C6    C     C_R   0.935090 0.620701 0.476934 -0.142165
C7    C     C_R   0.872400 0.499998 0.499023 -0.000868
C8    C     C_R   0.127505 0.500006 0.498515 -0.001738
C9    C     C_R   0.579008 0.071731 0.581224 0.274825
C10   C     C_R   0.579183 0.927775 0.581061 0.261103
C11   C     C_R   0.422007 0.928670 0.419838 -0.113743
C12   C     C_R   0.422062 0.071778 0.419790 -0.117965
C13   C     C_R   0.490937 0.499975 0.258189 0.983562
C14   C     C_R   0.739820 0.499987 0.499863 0.898930
C15   C     C_R   0.494583 0.499714 0.741669 0.994984
C16   C     C_3   0.403237 0.620348 0.066301 -0.163245
C17   C     C_3   0.434250 0.359824 0.068994 -0.150986
C18   C     C_3   0.394855 0.608633 0.921242 0.521234
C19   C     C_3   0.445593 0.357636 0.924963 0.554316
C20   C     C_3   0.620654 0.518824 0.077714 1.068930
C21   C     C_3   0.483648 0.499488 0.121299 -0.194142
C22   C     C_3   0.487990 0.498714 0.877845 -0.255041
H1    H     H_    0.456680 0.714289 0.088213 0.179294
H2    H     H_    0.498265 0.279654 0.106906 0.186661
H3    H     H_    0.359278 0.875192 0.355361 0.139407
H4    H     H_    0.359362 0.125614 0.355305 0.141073
H5    H     H_    0.419296 0.708628 0.881371 0.088249
H6    H     H_    0.517699 0.281470 0.901996 0.073827
H7    H     H_    0.649809 0.631632 0.904830 0.221449
H8    H     H_    0.689369 0.456622 0.896080 0.221430
H9    H     H_    0.114048 0.285310 0.537613 0.171579
H10   H     H_    0.110915 0.714494 0.458566 0.158043
H11   H     H_    0.889202 0.285277 0.537469 0.160416
H12   H     H_    0.885736 0.714622 0.459485 0.171741
N1    N     N_R   0.499970 0.857200 0.499970 -0.095977
N2    N     N_R   0.499970 0.142800 0.499970 -0.094197
O1    O     O_R   0.316750 0.614620 0.499990 -0.632073
O2    O     O_R   0.316750 0.385380 0.499990 -0.623713
O3    O     O_R   0.499970 0.614670 0.314790 -0.593750
O4    O     O_R   0.499970 0.385330 0.314790 -0.613491
O5    O     O_R   0.683220 0.614710 0.500010 -0.629678
O6    O     O_R   0.683220 0.385290 0.500010 -0.632019
O7    O     O_R   0.500010 0.614660 0.685200 -0.649159
O8    O     O_R   0.500010 0.385340 0.685200 -0.607863
Zn1   Zn    Zn3+2 0.499980 0.653120 0.500000 0.971296
Zn2   Zn    Zn3+2 0.499980 0.346880 0.500000 0.982495
C23   C     C_3   0.274801 0.645563 0.124030 -0.745591
H13   H     H_    0.281863 0.649306 0.228201 0.208725
H14   H     H_    0.238372 0.744845 0.091044 0.240591
H15   H     H_    0.203880 0.569878 0.096096 0.286238
C24   C     C_3   0.303038 0.317398 0.110768 -0.703180
H16   H     H_    0.293872 0.206157 0.103616 0.225637
H17   H     H_    0.287013 0.345720 0.209729 0.205365
H18   H     H_    0.227260 0.361089 0.049957 0.307192
F1    F     F_    0.274625 0.578286 0.876842 -0.608166
F2    F     F_    0.335302 0.317865 0.862699 -0.605379
F3    F     F_    0.673545 0.635192 0.128743 -0.655336
F4    F     F_    0.695009 0.411016 0.117285 -0.665840
C25   C     C_3   0.667911 0.142406 0.673504 -0.843364
H19   H     H_    0.667068 0.251237 0.669222 0.279024
H20   H     H_    0.645168 0.115578 0.771411 0.221884
H21   H     H_    0.765636 0.112920 0.656158 0.213222
C26   C     C_3   0.669143 0.856523 0.672325 -0.844593
H22   H     H_    0.667321 0.747740 0.669035 0.285402
H23   H     H_    0.766723 0.884742 0.652736 0.220210
H24   H     H_    0.648332 0.883678 0.770590 0.221155

loop_
_geom_bond_atom_site_label_1
_geom_bond_atom_site_label_2
_ccdc_geom_bond_type
C19   F2    S    
C2    C22   S    
C9    N2    A    
O4    Zn2   S    
C11   C12   A    
C26   H23   S    
N2    Zn2   S    
C16   C21   S    
C12   N2    A    
C1    C8    S    
C9    C10   A    
C23   H13   S    
C1    O1    A    
C23   H15   S    
O3    Zn1   S    
C24   H18   S    
C17   C24   S    
C10   C26   S    
C11   N1    A    
C26   H24   S    
C13   C21   S    
C25   H19   S    
C23   H14   S    
C4    H10   S    
C14   O6    A    
O2    Zn2   S    
C3    H9    S    
C19   H6    S    
O7    Zn1   S    
C6    C7    A    
C18   F1    S    
C14   O5    A    
C1    O2    A    
C16   C23   S    
C4    C6    A    
C17   C19   S    
O8    Zn2   S    
C15   O8    A    
C16   H1    S    
C2    H7    S    
C10   N1    A    
C17   C21   S    
C13   O3    A    
C17   H2    S    
C25   H20   S    
C2    H8    S    
C11   H3    S    
C24   H17   S    
C20   F4    S    
C24   H16   S    
N1    Zn1   S    
C19   C22   S    
C20   C21   S    
C15   O7    A    
C16   C18   S    
C3    C8    A    
O6    Zn2   S    
C4    C8    A    
C5    C7    A    
C2    C20   S    
O5    Zn1   S    
C13   O4    A    
C25   H21   S    
C3    C5    A    
C20   F3    S    
C18   C22   S    
O1    Zn1   S    
C15   C22   S    
C7    C14   S    
C18   H5    S    
C6    H12   S    
C12   H4    S    
C26   H22   S    
C9    C25   S    
C5    H11   S    
