data_mof_unit_8024.cif
_audit_creation_date              2012-12-10T17:55:49-0500
_audit_creation_method            fapswitch 2.2
_symmetry_space_group_name_H-M    P1
_symmetry_Int_Tables_number       1
_space_group_crystal_system       triclinic
_cell_length_a                    11.15965
_cell_length_b                    10.769896
_cell_length_c                    9.607829
_cell_angle_alpha                 88.42326
_cell_angle_beta                  101.702568
_cell_angle_gamma                 92.931231
_cell_volume                      1129.09245729

loop_
_atom_site_label
_atom_site_type_symbol
_atom_type_description
_atom_site_fract_x
_atom_site_fract_y
_atom_site_fract_z
_atom_type_partial_charge
C1    C     C_R   0.499675 0.262409 0.501115 0.791597
C2    C     C_R   0.500208 0.737583 0.498856 0.805779
C3    C     C_R   0.264669 0.496561 0.443141 0.906172
C4    C     C_R   0.736506 0.497352 0.556082 0.815916
C5    C     C_R   0.435825 0.410938 0.065038 -0.142711
C6    C     C_R   0.564352 0.588994 0.935092 -0.146325
C7    C     C_R   0.434034 0.408860 0.917319 0.497917
C8    C     C_R   0.565769 0.591329 0.082771 0.480445
C9    C     C_2   0.134602 0.468361 0.414161 0.024946
C10   C     C_2   0.871167 0.501791 0.581658 -0.056406
C11   C     C_2   0.063426 0.525085 0.489426 0.175466
C12   C     C_2   0.931310 0.490838 0.472260 0.174007
C13   C     C_R   0.433410 0.064054 0.383476 -0.155980
C14   C     C_R   0.566559 0.935944 0.616434 -0.158928
C15   C     C_R   0.434069 0.935534 0.381902 -0.089700
C16   C     C_R   0.565965 0.064464 0.617969 -0.095592
C17   C     C_R   0.501168 0.871576 0.498004 -0.039751
C18   C     C_R   0.498773 0.128419 0.501929 -0.040835
Cu1   Cu    Cu3+1 0.500000 0.500020 0.640660 1.025342
Cu2   Cu    Cu3+1 0.500000 0.499980 0.359340 1.018925
H1    H     H_    0.386956 0.339720 0.115722 0.206085
H2    H     H_    0.613297 0.660261 0.884546 0.201695
H3    H     H_    0.380858 0.113121 0.293272 0.172410
H4    H     H_    0.619088 0.886880 0.706655 0.166805
H5    H     H_    0.380671 0.886079 0.291708 0.178685
H6    H     H_    0.619410 0.113915 0.708143 0.175529
N1    N     N_R   0.500030 0.500030 0.852080 -0.256182
N2    N     N_R   0.499970 0.499970 0.147920 -0.257489
O1    O     O_R   0.499990 0.319660 0.618740 -0.511465
O2    O     O_R   0.500010 0.680340 0.381260 -0.505014
O3    O     O_R   0.499990 0.319630 0.381170 -0.604469
O4    O     O_R   0.500010 0.680370 0.618830 -0.597646
O5    O     O_R   0.320690 0.500020 0.575130 -0.525424
O6    O     O_R   0.679310 0.499980 0.424870 -0.545974
O7    O     O_R   0.320680 0.499990 0.337560 -0.586975
O8    O     O_R   0.679320 0.500010 0.662440 -0.594921
N3    N     N_3   0.869555 0.450176 0.333218 -0.621499
H7    H     H_    0.820950 0.521347 0.275324 0.297484
H8    H     H_    0.816081 0.368422 0.339962 0.232960
N4    N     N_3   0.114458 0.631391 0.573239 -0.595006
H9    H     H_    0.137772 0.603967 0.680025 0.274721
H10   H     H_    0.049421 0.699435 0.561866 0.234745
N5    N     N_3   0.938266 0.520921 0.724129 -0.597087
H11   H     H_    0.911292 0.603794 0.760107 0.233618
H12   H     H_    0.913369 0.448198 0.788418 0.247421
N6    N     N_3   0.092568 0.367015 0.319377 -0.593198
H13   H     H_    0.039067 0.400354 0.225058 0.265033
H14   H     H_    0.044263 0.299248 0.368813 0.245992
S1    S     S_3+6 0.354491 0.272383 0.836108 0.026412
O9    O     O_2   0.446843 0.174989 0.840700 -0.299786
O10   O     O_2   0.263258 0.224119 0.922620 -0.311317
O11   O     O_3   0.276170 0.289439 0.669056 -0.516733
H15   H     H_    0.250486 0.203895 0.636463 0.359967
S2    S     S_3+6 0.643771 0.728773 0.163670 0.005590
O12   O     O_2   0.737020 0.775678 0.079200 -0.326091
O13   O     O_2   0.550665 0.826067 0.154459 -0.290673
O14   O     O_3   0.718969 0.714650 0.332649 -0.538827
H16   H     H_    0.746991 0.800443 0.362278 0.360344

loop_
_geom_bond_atom_site_label_1
_geom_bond_atom_site_label_2
_ccdc_geom_bond_type
N5    H11   S    
C4    O8    A    
S2    O13   D    
N3    H7    S    
C3    C9    S    
C5    N2    A    
Cu1   N1    S    
S2    O12   D    
C6    N1    A    
C13   C15   A    
C3    O7    A    
C11   C12   S    
S1    O11   S    
Cu2   O6    S    
N4    H10   S    
C1    C18   S    
C5    H1    S    
C9    N6    S    
N3    H8    S    
C16   C18   A    
Cu2   O2    S    
C2    C17   S    
N5    H12   S    
C14   C17   A    
C13   H3    S    
O14   H16   S    
C10   C12   D    
C13   C18   A    
Cu1   O4    S    
C1    O1    A    
N4    H9    S    
C4    O6    A    
Cu1   O8    S    
C9    C11   D    
C16   H6    S    
C11   N4    S    
C8    N2    A    
C14   C16   A    
C15   H5    S    
C2    O2    A    
C3    O5    A    
C8    S2    S    
C6    H2    S    
N6    H14   S    
C1    O3    A    
C7    N1    A    
O11   H15   S    
C7    S1    S    
C2    O4    A    
S1    O9    D    
Cu1   O5    S    
C14   H4    S    
C12   N3    S    
C15   C17   A    
C5    C7    A    
C6    C8    A    
Cu2   N2    S    
C10   N5    S    
N6    H13   S    
Cu2   O7    S    
C4    C10   S    
Cu2   O3    S    
Cu1   Cu2   S    
S1    O10   D    
S2    O14   S    
Cu1   O1    S    
