data_mof_unit_28247.cif
_audit_creation_date              2012-12-10T17:03:41-0500
_audit_creation_method            fapswitch 2.2
_symmetry_space_group_name_H-M    P1
_symmetry_Int_Tables_number       1
_space_group_crystal_system       triclinic
_cell_length_a                    10.026706
_cell_length_b                    10.725512
_cell_length_c                    13.153959
_cell_angle_alpha                 89.972739
_cell_angle_beta                  70.193941
_cell_angle_gamma                 89.427666
_cell_volume                      1330.84387073

loop_
_atom_site_label
_atom_site_type_symbol
_atom_type_description
_atom_site_fract_x
_atom_site_fract_y
_atom_site_fract_z
_atom_type_partial_charge
C1    C     C_R   0.501862 0.737171 0.494515 0.902430
C2    C     C_R   0.432425 0.522560 0.984206 0.090259
C3    C     C_R   0.460348 0.557811 0.875965 0.091098
C4    C     C_R   0.540096 0.539429 0.029768 0.079275
C5    C     C_R   0.663206 0.608544 0.973898 0.175500
C6    C     C_R   0.678507 0.658806 0.873029 -0.260008
C7    C     C_R   0.578234 0.634093 0.824594 -0.199879
C8    C     C_R   0.529582 0.487346 0.128939 -0.252937
C9    C     C_R   0.747837 0.584809 0.124945 -0.210929
C10   C     C_R   0.370426 0.514037 0.821537 -0.115901
C11   C     C_2   0.614480 0.066507 0.472985 -0.285060
C12   C     C_R   0.421371 0.506164 0.703923 0.843753
C13   C     C_2   0.495025 0.131334 0.522590 0.381138
C14   C     C_2   0.618611 0.932785 0.479608 -0.154565
C15   C     C_2   0.507949 0.867862 0.476063 -0.248544
C16   C     C_2   0.094765 0.411958 0.456656 -0.257249
C17   C     C_2   0.948900 0.419120 0.445576 0.553316
C18   C     C_R   0.498774 0.262886 0.504667 0.802652
C19   C     C_R   0.578655 0.500373 0.295955 0.865878
C20   C     C_R   0.767835 0.628309 0.020958 -0.198666
C21   C     C_R   0.625722 0.517590 0.179842 -0.060584
C22   C     C_R   0.239149 0.461796 0.879947 -0.201490
C23   C     C_R   0.201336 0.445216 0.990682 -0.157422
C24   C     C_R   0.297935 0.472166 0.042403 -0.198744
H1    H     H_    0.823295 0.608926 0.164127 0.153226
H2    H     H_    0.712678 0.888646 0.487387 0.172427
H3    H     H_    0.419738 0.911544 0.458775 0.194334
H4    H     H_    0.159464 0.329896 0.424772 0.191170
H5    H     H_    0.091752 0.580391 0.521479 0.153779
H6    H     H_    0.874955 0.557664 0.552228 0.102640
H7    H     H_    0.769158 0.715607 0.830732 0.148212
H8    H     H_    0.861735 0.681611 0.979272 0.141429
H9    H     H_    0.443533 0.426387 0.170885 0.145390
H10   H     H_    0.167669 0.430219 0.839561 0.155528
H11   H     H_    0.263428 0.455957 0.128225 0.123583
H12   H     H_    0.099188 0.406312 0.035768 0.137247
H13   H     H_    0.593200 0.676701 0.747001 0.170893
H14   H     H_    0.712698 0.112608 0.427447 0.178716
N1    N     N_2   0.148270 0.498670 0.498870 -0.209542
N2    N     N_2   0.852610 0.498640 0.498840 -0.218943
O1    O     O_R   0.386950 0.680940 0.500020 -0.608875
O2    O     O_R   0.613110 0.680900 0.499980 -0.628990
O3    O     O_R   0.330780 0.500000 0.653640 -0.609077
O4    O     O_R   0.556930 0.499960 0.653610 -0.609873
O5    O     O_R   0.386890 0.319100 0.500020 -0.599694
O6    O     O_R   0.613050 0.319060 0.499980 -0.580817
O7    O     O_R   0.443070 0.500040 0.346390 -0.607673
O8    O     O_R   0.669220 0.500000 0.346360 -0.589701
Zn1   Zn    Zn3+2 0.349000 0.500030 0.500020 0.943358
Zn2   Zn    Zn3+2 0.651000 0.499970 0.499980 0.969927
O9    O     O_3   0.371921 0.074248 0.588673 -0.607327
C25   C     C_3   0.324815 0.130664 0.691940 -0.293631
H15   H     H_    0.272394 0.221993 0.690154 0.177253
H16   H     H_    0.412657 0.141768 0.725083 0.149177
H17   H     H_    0.244668 0.069457 0.748115 0.188740
O10   O     O_3   0.910684 0.329568 0.385152 -0.572441
C26   C     C_3   0.995536 0.341633 0.275750 -0.337151
H18   H     H_    0.105528 0.308088 0.261808 0.149119
H19   H     H_    0.995416 0.439307 0.246807 0.155112
H20   H     H_    0.950666 0.282299 0.226509 0.189153

loop_
_geom_bond_atom_site_label_1
_geom_bond_atom_site_label_2
_ccdc_geom_bond_type
C16   H4    S    
C11   H14   S    
C2    C4    A    
C23   C24   A    
C6    C7    A    
C1    C15   S    
O6    Zn2   S    
C9    C20   A    
C15   H3    S    
C25   H17   S    
O5    Zn1   S    
C4    C8    A    
H5    N1    S    
O8    Zn2   S    
C6    H7    S    
C7    H13   S    
H6    N2    S    
O7    Zn1   S    
C3    C10   A    
C13   O9    S    
C25   H15   S    
C10   C22   A    
C11   C13   D    
C17   O10   S    
C9    C21   A    
C26   H18   S    
C16   C17   S    
C10   C12   S    
C13   C18   S    
O2    Zn2   S    
N2    Zn2   S    
C18   O6    A    
O1    Zn1   S    
N1    Zn1   S    
C25   H16   S    
C2    C3    A    
C12   O3    A    
C3    C7    A    
C8    H9    S    
C2    C24   A    
C5    C6    A    
C22   H10   S    
C11   C14   S    
C19   O7    A    
C26   H19   S    
C24   H11   S    
C16   N1    D    
C9    H1    S    
O9    C25   S    
C18   O5    A    
C1    O2    A    
O10   C26   S    
C12   O4    A    
C23   H12   S    
C20   H8    S    
O4    Zn2   S    
C5    C20   A    
C22   C23   A    
O3    Zn1   S    
C26   H20   S    
C19   O8    A    
C19   C21   S    
C14   C15   D    
C14   H2    S    
C1    O1    A    
C4    C5    A    
C17   N2    D    
C8    C21   A    
