data_mof_unit_9740.cif
_audit_creation_date              2012-12-10T18:27:21-0500
_audit_creation_method            fapswitch 2.2
_symmetry_space_group_name_H-M    P1
_symmetry_Int_Tables_number       1
_space_group_crystal_system       triclinic
_cell_length_a                    14.955134
_cell_length_b                    14.176142
_cell_length_c                    27.415863
_cell_angle_alpha                 90.006653
_cell_angle_beta                  87.081762
_cell_angle_gamma                 89.996926
_cell_volume                      5804.79281421

loop_
_atom_site_label
_atom_site_type_symbol
_atom_type_description
_atom_site_fract_x
_atom_site_fract_y
_atom_site_fract_z
_atom_type_partial_charge
C1    C     C_R   0.327275 0.500026 0.500863 0.929232
C2    C     C_R   0.672724 0.500020 0.499145 0.929561
C3    C     C_R   0.486458 0.408894 0.102188 -0.105055
C4    C     C_R   0.512508 0.408932 0.897855 -0.105071
C5    C     C_R   0.404124 0.436040 0.125420 -0.049728
C6    C     C_R   0.595126 0.435141 0.874636 -0.049895
C7    C     C_R   0.329119 0.451044 0.097852 -0.209976
C8    C     C_R   0.670284 0.449171 0.902212 -0.210040
C9    C     C_R   0.563470 0.396299 0.129610 -0.216837
C10   C     C_R   0.435387 0.397295 0.870423 -0.216730
C11   C     C_R   0.480625 0.495239 0.353126 -0.301275
C12   C     C_R   0.519267 0.495256 0.646892 -0.301344
C13   C     C_R   0.422365 0.385654 0.973145 -0.091517
C14   C     C_R   0.576317 0.384638 0.026887 -0.091477
C15   C     C_R   0.584447 0.403554 0.976134 0.102102
C16   C     C_R   0.414447 0.404556 0.023908 0.102038
C17   C     C_R   0.506562 0.398670 0.948925 -0.031406
C18   C     C_R   0.492275 0.398649 0.051115 -0.031477
C19   C     C_R   0.349611 0.356609 0.945914 0.381368
C20   C     C_R   0.648735 0.354593 0.054099 0.381446
C21   C     C_R   0.351743 0.374635 0.895239 0.352367
C22   C     C_R   0.646841 0.372573 0.104778 0.352124
C23   C     C_R   0.497009 0.499660 0.405805 0.951390
C24   C     C_R   0.502986 0.499669 0.594198 0.951320
C25   C     C_R   0.333849 0.437539 0.047165 0.474010
C26   C     C_R   0.665409 0.435581 0.952892 0.473925
C27   C     C_R   0.818883 0.490190 0.453949 0.427321
C28   C     C_R   0.181122 0.490036 0.546070 0.427490
C29   C     C_R   0.768284 0.500033 0.498275 -0.200261
C30   C     C_R   0.231710 0.500057 0.501750 -0.200254
C31   C     C_R   0.808252 0.514641 0.542287 0.420343
C32   C     C_R   0.191728 0.514846 0.457758 0.420245
C33   C     C_R   0.901041 0.503477 0.544097 -0.143513
C34   C     C_R   0.098942 0.503691 0.455937 -0.143462
C35   C     C_R   0.953292 0.503971 0.499510 -0.094185
C36   C     C_R   0.046697 0.503972 0.500529 -0.094181
C37   C     C_R   0.911932 0.503357 0.453915 -0.076586
C38   C     C_R   0.088057 0.503151 0.546124 -0.076581
C39   C     C_R   0.942385 0.493379 0.589027 0.303163
C40   C     C_R   0.057592 0.493818 0.410994 0.303178
C41   C     C_R   0.034664 0.508220 0.590308 0.356329
C42   C     C_R   0.965312 0.508661 0.409739 0.356275
C43   C     C_R   0.571624 0.798993 0.479166 0.530309
C44   C     C_R   0.430494 0.201412 0.523172 0.525418
C45   C     C_R   0.428373 0.799012 0.520829 0.530430
C46   C     C_R   0.569504 0.201395 0.476825 0.525429
C47   C     C_R   0.399951 0.453417 0.175589 0.645498
C48   C     C_R   0.599482 0.452579 0.824472 0.645958
C49   C     C_R   0.425401 0.899441 0.519877 -0.050221
C50   C     C_R   0.573246 0.100987 0.478357 -0.052178
C51   C     C_R   0.574597 0.899423 0.480118 -0.050240
C52   C     C_R   0.426751 0.101004 0.521639 -0.052217
C53   C     C_R   0.499999 0.949885 0.499998 -0.183732
C54   C     C_R   0.499999 0.050588 0.499998 -0.179071
C55   C     C_R   0.349801 0.950179 0.538944 0.386201
C56   C     C_R   0.647300 0.050071 0.457430 0.372288
C57   C     C_R   0.650195 0.950144 0.461049 0.386191
C58   C     C_R   0.352695 0.050106 0.542564 0.372277
C59   C     C_R   0.551999 0.405009 0.180940 0.645148
C60   C     C_R   0.446984 0.405826 0.819095 0.644664
C61   C     C_R   0.518987 0.536710 0.268872 -0.257968
C62   C     C_R   0.480804 0.536838 0.731125 -0.257650
C63   C     C_R   0.526181 0.554578 0.318478 0.310800
C64   C     C_R   0.473749 0.554705 0.681512 0.310822
C65   C     C_R   0.423508 0.422484 0.336467 0.286482
C66   C     C_R   0.576195 0.422372 0.663593 0.286166
C67   C     C_R   0.420760 0.403477 0.286161 0.499661
C68   C     C_R   0.578711 0.403303 0.713902 0.499837
C69   C     C_R   0.469563 0.460438 0.252925 0.104081
C70   C     C_R   0.529971 0.460408 0.747112 0.103711
H1    H     H_    0.267120 0.476197 0.115445 0.203779
H2    H     H_    0.732554 0.473602 0.884631 0.203791
H3    H     H_    0.444839 0.580041 0.758137 0.221565
H4    H     H_    0.554992 0.579804 0.241835 0.221355
N1    N     N_R   0.473376 0.438344 0.201954 -0.329551
N2    N     N_R   0.525934 0.438317 0.798087 -0.329607
N3    N     N_R   0.500000 0.750030 0.500000 -0.259711
N4    N     N_R   0.500000 0.249970 0.500000 -0.242982
O1    O     O_R   0.367850 0.580280 0.500010 -0.594269
O2    O     O_R   0.632150 0.419720 0.499990 -0.624400
O3    O     O_R   0.632150 0.580280 0.499990 -0.594305
O4    O     O_R   0.367850 0.419720 0.500010 -0.624411
O5    O     O_R   0.500010 0.580260 0.428760 -0.584912
O6    O     O_R   0.499990 0.419740 0.571240 -0.644683
O7    O     O_R   0.499990 0.580260 0.571240 -0.584833
O8    O     O_R   0.500010 0.419740 0.428760 -0.644691
O9    O     O_2   0.323493 0.485790 0.197969 -0.511041
O10   O     O_2   0.676246 0.484211 0.802121 -0.510743
O11   O     O_2   0.382113 0.378912 0.789755 -0.427164
O12   O     O_2   0.616640 0.377476 0.210279 -0.427351
Zn1   Zn    Zn3+2 0.500000 0.607200 0.500000 1.044577
Zn2   Zn    Zn3+2 0.500000 0.392800 0.500000 0.994924
O13   O     O_3   0.371588 0.367399 0.368341 -0.693110
H5    H     H_    0.353503 0.405585 0.397378 0.396051
O14   O     O_3   0.628151 0.367223 0.631757 -0.693280
H6    H     H_    0.646375 0.405393 0.602742 0.396217
O15   O     O_3   0.755347 0.544083 0.582129 -0.738688
H7    H     H_    0.790728 0.590069 0.600366 0.382268
O16   O     O_3   0.244620 0.544444 0.417948 -0.738495
H8    H     H_    0.209240 0.590538 0.399782 0.382295
S1    S     S_3+6 0.886009 0.434104 0.639296 0.122536
O17   O     O_2   0.820307 0.364883 0.620100 -0.246186
O18   O     O_2   0.952140 0.380649 0.668153 -0.189189
O19   O     O_3   0.831078 0.511202 0.676615 -0.481871
H9    H     H_    0.791608 0.471919 0.698463 0.407552
S2    S     S_3+6 0.113952 0.434779 0.360636 0.122509
O20   O     O_2   0.179638 0.365428 0.379728 -0.246281
O21   O     O_2   0.047810 0.381501 0.331701 -0.189057
O22   O     O_3   0.168891 0.512042 0.323429 -0.481816
H10   H     H_    0.208321 0.472850 0.301507 0.407548
S3    S     S_3+6 0.077145 0.554894 0.644963 0.168280
O23   O     O_2   0.117700 0.477319 0.674004 -0.149759
O24   O     O_2   0.147140 0.628083 0.632187 -0.181301
O25   O     O_3   0.994591 0.606544 0.679257 -0.481185
H11   H     H_    0.022947 0.626663 0.709429 0.405466
S4    S     S_3+6 0.922802 0.555642 0.355167 0.168379
O26   O     O_2   0.882267 0.478232 0.325998 -0.149367
O27   O     O_2   0.852783 0.628749 0.368071 -0.181332
O28   O     O_3   0.005337 0.607493 0.320956 -0.481255
H12   H     H_    0.976964 0.627813 0.290826 0.405433
O29   O     O_3   0.640925 0.751244 0.455698 -0.605185
H13   H     H_    0.615128 0.693990 0.442098 0.410368
O30   O     O_3   0.362843 0.249679 0.548078 -0.645437
H14   H     H_    0.389311 0.306324 0.562170 0.366982
O31   O     O_3   0.359068 0.751282 0.544292 -0.605235
H15   H     H_    0.384864 0.694021 0.557880 0.410370
O32   O     O_3   0.637150 0.249645 0.451917 -0.645553
H16   H     H_    0.610682 0.306297 0.437835 0.366954
O33   O     O_3   0.272662 0.901448 0.552978 -0.647427
H17   H     H_    0.220083 0.941853 0.547415 0.354731
O34   O     O_3   0.716626 0.098587 0.433481 -0.658286
H18   H     H_    0.742819 0.058494 0.406803 0.363816
O35   O     O_3   0.727334 0.901399 0.447014 -0.647395
H19   H     H_    0.779913 0.941803 0.452572 0.354733
O36   O     O_3   0.283366 0.098640 0.566510 -0.658225
H20   H     H_    0.257169 0.058561 0.593187 0.363861
O37   O     O_3   0.372029 0.329548 0.268006 -0.696141
H21   H     H_    0.341131 0.294484 0.295131 0.405043
O38   O     O_3   0.627140 0.329169 0.732079 -0.696020
H22   H     H_    0.657961 0.293983 0.704968 0.404889
S5    S     S_3+6 0.402463 0.647636 0.665141 0.105000
O39   O     O_2   0.334672 0.609610 0.631772 -0.216112
O40   O     O_2   0.353908 0.689551 0.709368 -0.209411
O41   O     O_3   0.463446 0.732511 0.636417 -0.528015
H23   H     H_    0.509978 0.749431 0.659331 0.362755
S6    S     S_3+6 0.597619 0.647407 0.334810 0.105008
O42   O     O_2   0.665332 0.609343 0.368210 -0.215963
O43   O     O_2   0.646256 0.689130 0.290565 -0.209629
O44   O     O_3   0.536759 0.732456 0.363482 -0.527861
H24   H     H_    0.490267 0.749416 0.340552 0.362783
S7    S     S_3+6 0.247488 0.384607 0.866536 0.161954
O45   O     O_2   0.170613 0.393955 0.903636 -0.190876
O46   O     O_2   0.248554 0.470865 0.834577 -0.228192
O47   O     O_3   0.231790 0.288109 0.832316 -0.429518
H25   H     H_    0.175865 0.300602 0.815556 0.405169
S8    S     S_3+6 0.751224 0.381018 0.133473 0.162323
O48   O     O_2   0.828233 0.389105 0.096375 -0.190186
O49   O     O_2   0.751332 0.467357 0.165357 -0.227859
O50   O     O_3   0.765590 0.284363 0.167775 -0.429719
H26   H     H_    0.821686 0.296025 0.184521 0.405085
S9    S     S_3+6 0.276615 0.267213 0.970939 0.129072
O51   O     O_2   0.320214 0.217896 0.012078 -0.270528
O52   O     O_2   0.188818 0.307893 0.989911 -0.176061
O53   O     O_3   0.256948 0.187628 0.927273 -0.471060
H27   H     H_    0.215811 0.141005 0.943304 0.402969
S10   S     S_3+6 0.720627 0.264257 0.029035 0.128828
O54   O     O_2   0.676333 0.215536 0.987939 -0.271210
O55   O     O_2   0.808847 0.303787 0.009986 -0.175826
O56   O     O_3   0.739485 0.184404 0.072691 -0.471143
H28   H     H_    0.779314 0.136751 0.056502 0.402749
O57   O     O_3   0.264406 0.466556 0.019359 -0.705492
H29   H     H_    0.214005 0.489426 0.041126 0.369367
O58   O     O_3   0.735177 0.463632 0.980712 -0.705516
H30   H     H_    0.785833 0.485914 0.958956 0.369461
O59   O     O_3   0.780504 0.464006 0.411065 -0.639410
H31   H     H_    0.716641 0.447753 0.416881 0.339738
O60   O     O_3   0.219527 0.463727 0.588925 -0.639409
H32   H     H_    0.283465 0.447788 0.583123 0.339724

loop_
_geom_bond_atom_site_label_1
_geom_bond_atom_site_label_2
_ccdc_geom_bond_type
C66   C68   A    
O57   H29   S    
S1    O17   D    
C27   C29   A    
C8    C26   A    
O56   H28   S    
C14   C18   A    
S3    O23   D    
C43   C51   A    
O25   H11   S    
O7    Zn1   S    
O30   H14   S    
C39   C41   A    
C22   S8    S    
O58   H30   S    
C56   C57   A    
C5    C47   A    
C33   C39   A    
C23   O5    A    
C68   O38   S    
C2    C29   S    
C34   C40   A    
C40   S2    S    
O53   H27   S    
C35   C37   A    
S6    O42   D    
C11   C63   A    
S5    O40   D    
O50   H26   S    
C7    H1    S    
C12   C64   A    
C9    C22   A    
C64   S5    S    
O15   H7    S    
O4    Zn2   S    
S4    O26   D    
C62   C70   A    
C3    C18   A    
C19   S9    S    
S7    O47   S    
C11   C23   S    
C37   C42   A    
C61   C63   A    
C48   N2    A    
C1    C30   S    
C62   C64   A    
O14   H6    S    
C45   O31   S    
C65   C67   A    
C23   O8    A    
S7    O45   D    
C48   O10   S    
C62   H3    S    
C51   C57   A    
C45   C49   A    
C28   O60   S    
C43   O29   S    
C63   S6    S    
O1    Zn1   S    
C44   C52   A    
C21   S7    S    
S1    O18   D    
S10   O55   D    
C57   O35   S    
S10   O54   D    
O19   H9    S    
S9    O52   D    
C52   C54   A    
C39   S1    S    
S6    O43   D    
C10   C21   A    
C8    H2    S    
C13   C19   A    
C14   C20   A    
C46   O32   S    
O36   H20   S    
C38   C41   A    
C4    C6    A    
S5    O41   S    
C27   O59   S    
C5    C7    A    
C15   C26   A    
C6    C8    A    
C41   S3    S    
C26   O58   S    
N4    Zn2   S    
C1    O4    A    
C60   O11   S    
C12   C66   A    
C60   N2    A    
C50   C56   A    
C67   C69   A    
C35   C36   A    
C47   O9    S    
O2    Zn2   S    
C10   C60   A    
C44   N4    A    
C3    C9    A    
S6    O44   S    
C55   O33   S    
O16   H8    S    
C28   C38   A    
O38   H22   S    
C31   C33   A    
O29   H13   S    
S3    O24   D    
O13   H5    S    
C50   C54   A    
O47   H25   S    
C6    C48   A    
C52   C58   A    
C4    C17   A    
C42   S4    S    
C20   C22   A    
S1    O19   S    
C70   N2    S    
O31   H15   S    
C1    O1    A    
C13   C16   A    
C4    C10   A    
O34   H18   S    
C59   N1    A    
S9    O53   S    
C20   S10   S    
S2    O21   D    
C46   N4    A    
O33   H17   S    
C24   O7    A    
C61   C69   A    
C16   C25   A    
C15   C17   A    
C46   C50   A    
N3    Zn1   S    
C19   C21   A    
S8    O50   S    
O41   H23   S    
C3    C5    A    
C45   N3    A    
O28   H12   S    
C32   O16   S    
C53   C54   A    
O32   H16   S    
C31   O15   S    
C58   O36   S    
C43   N3    A    
O5    Zn1   S    
O37   H21   S    
C12   C24   S    
C44   O30   S    
C7    C25   A    
S4    O28   S    
C13   C17   A    
C16   C18   A    
S8    O49   D    
C24   O6    A    
C47   N1    A    
C28   C30   A    
C29   C31   A    
O59   H31   S    
C49   C55   A    
O44   H24   S    
C36   C38   A    
C30   C32   A    
C25   O57   S    
O35   H19   S    
S9    O51   D    
C27   C37   A    
C49   C53   A    
C40   C42   A    
C65   O13   S    
C33   C35   A    
S4    O27   D    
C69   N1    S    
S3    O25   S    
C34   C36   A    
S7    O46   D    
C67   O37   S    
C56   O34   S    
C2    O2    A    
C51   C53   A    
O3    Zn1   S    
S8    O48   D    
S10   O56   S    
C68   C70   A    
O60   H32   S    
S2    O20   D    
C55   C58   A    
O22   H10   S    
C14   C15   A    
C2    O3    A    
O8    Zn2   S    
O6    Zn2   S    
C9    C59   A    
S5    O39   D    
C59   O12   S    
C11   C65   A    
C61   H4    S    
C32   C34   A    
C66   O14   S    
S2    O22   S    
