data_mof_unit_42745.cif
_audit_creation_date              2013-03-05T15:42:55-0500
_audit_creation_method            fapswitch 2.2
_symmetry_space_group_name_H-M    P1
_symmetry_Int_Tables_number       1
_space_group_crystal_system       triclinic
_cell_length_a                    14.975481
_cell_length_b                    10.913496
_cell_length_c                    9.669151
_cell_angle_alpha                 89.847695
_cell_angle_beta                  90.20474
_cell_angle_gamma                 91.490239
_cell_volume                      1579.72647836

loop_
_atom_site_label
_atom_site_type_symbol
_atom_site_description
_atom_site_fract_x
_atom_site_fract_y
_atom_site_fract_z
_atom_type_partial_charge
O1    O     O_R   0.500020 0.321960 0.617040 -0.584465
O2    O     O_R   0.499980 0.321920 0.382900 -0.530950
C1    C     C_R   0.500310 0.265298 0.500199 0.943339
O3    O     O_R   0.370270 0.499990 0.617090 -0.571425
O4    O     O_R   0.370240 0.499950 0.382940 -0.538108
C2    C     C_R   0.329041 0.497221 0.499886 0.887462
Cu1   Cu    Cu3+1 0.500020 0.500020 0.638630 0.962188
Cu2   Cu    Cu3+1 0.499980 0.499980 0.361370 1.002155
O5    O     O_R   0.500020 0.678080 0.617100 -0.592610
O6    O     O_R   0.499980 0.678040 0.382960 -0.537257
O7    O     O_R   0.629760 0.500050 0.617060 -0.559950
O8    O     O_R   0.629730 0.500010 0.382910 -0.608766
C3    C     C_R   0.496508 0.734825 0.499563 0.855549
C4    C     C_R   0.671050 0.504408 0.500185 0.820782
C5    C     C_R   0.817048 0.616591 0.513907 0.412999
C6    C     C_R   0.767550 0.505959 0.500965 -0.150833
C7    C     C_R   0.809549 0.394103 0.495527 -0.284238
C8    C     C_R   0.902253 0.388607 0.507628 -0.043415
C9    C     C_R   0.953412 0.498578 0.517459 -0.049809
C10   C     C_R   0.910603 0.612658 0.524996 0.005746
C11   C     C_R   0.944327 0.274778 0.510415 0.371200
C12   C     C_R   0.037683 0.270464 0.503053 0.363871
C13   C     C_R   0.090490 0.380472 0.510530 -0.158514
C14   C     C_R   0.047216 0.494874 0.518474 -0.072322
C15   C     C_R   0.097711 0.606414 0.524655 0.058964
C16   C     C_R   0.054900 0.718425 0.548241 0.417254
C17   C     C_R   0.961983 0.720433 0.544672 -0.267014
C18   C     C_R   0.185079 0.380953 0.509330 0.324966
C19   C     C_R   0.232647 0.493171 0.500486 -0.180744
C20   C     C_R   0.189603 0.603882 0.505378 -0.309120
H1    H     H_    0.768822 0.311137 0.483845 0.171277
H2    H     H_    0.229113 0.687895 0.496363 0.166648
H3    H     H_    0.930163 0.807342 0.557041 0.185591
C21   C     C_2   0.478511 0.934251 0.383728 0.454634
C22   C     C_2   0.488296 0.867120 0.500022 -0.399833
H4    H     H_    0.488360 0.908768 0.601551 0.125213
C23   C     C_2   0.470745 0.068574 0.394393 -0.195969
C24   C     C_2   0.504124 0.133424 0.500846 -0.376189
H5    H     H_    0.439243 0.115854 0.308946 0.211600
H6    H     H_    0.537104 0.091762 0.588322 0.134191
C25   C     C_2   0.467848 0.409827 0.922925 -0.207446
N1    N     N_2   0.499020 0.498660 0.846910 -0.298722
H7    H     H_    0.450127 0.324516 0.871886 0.182389
H8    H     H_    0.509691 0.582246 0.893836 0.189896
C26   C     C_2   0.453086 0.420201 0.078721 0.534889
N2    N     N_2   0.499000 0.498630 0.153040 -0.303926
H9    H     H_    0.547037 0.552083 0.104495 0.144630
O9    O     O_3   0.774071 0.727083 0.527207 -0.633625
C27   C     C_3   0.743845 0.768532 0.396460 0.041847
H10   H     H_    0.678875 0.812954 0.412820 0.169341
H11   H     H_    0.731442 0.693934 0.319546 0.138166
C28   C     C_3   0.809918 0.863510 0.336044 -0.368413
H12   H     H_    0.826175 0.934471 0.415010 0.252236
H13   H     H_    0.872382 0.817617 0.306677 0.215719
C29   C     C_3   0.771538 0.925760 0.208372 -0.911661
H14   H     H_    0.753571 0.856746 0.128030 0.254125
H15   H     H_    0.821973 0.991315 0.164995 0.267310
H16   H     H_    0.711388 0.977316 0.236657 0.248670
O10   O     O_3   0.397221 0.337208 0.149181 -0.561901
C30   C     C_3   0.317287 0.306682 0.076631 0.044686
H17   H     H_    0.281977 0.233697 0.137210 0.182175
H18   H     H_    0.329483 0.264703 0.974341 0.136082
C31   C     C_3   0.254876 0.415906 0.065221 -0.342307
H19   H     H_    0.239620 0.450056 0.170566 0.239462
H20   H     H_    0.287721 0.491635 0.005657 0.209354
C32   C     C_3   0.167685 0.379044 0.992322 -0.901888
H21   H     H_    0.181306 0.347175 0.885531 0.287977
H22   H     H_    0.123726 0.459334 0.986224 0.254118
H23   H     H_    0.132296 0.304551 0.050425 0.243839
O11   O     O_3   0.894827 0.165689 0.508231 -0.626971
C33   C     C_3   0.856799 0.141487 0.639786 0.034134
H24   H     H_    0.794830 0.085276 0.622618 0.168208
H25   H     H_    0.836386 0.225298 0.695964 0.136883
C34   C     C_3   0.920658 0.069138 0.730370 -0.319240
H26   H     H_    0.946459 0.991293 0.670458 0.244866
H27   H     H_    0.978162 0.129398 0.761613 0.219455
C35   C     C_3   0.873710 0.020156 0.859757 -0.945140
H28   H     H_    0.849886 0.097232 0.923433 0.260081
H29   H     H_    0.920868 0.966244 0.922276 0.257763
H30   H     H_    0.816036 0.959233 0.831085 0.271369
O12   O     O_3   0.076017 0.156650 0.495305 -0.572845
C36   C     C_3   0.092390 0.125723 0.355546 0.164989
H31   H     H_    0.157441 0.079165 0.352831 0.210640
H32   H     H_    0.099004 0.206471 0.284722 0.088586
C37   C     C_3   0.019941 0.036144 0.302192 -0.333321
H33   H     H_    0.007112 0.963362 0.380613 0.263857
H34   H     H_    0.957233 0.085775 0.284116 0.238659
C38   C     C_3   0.047327 0.976579 0.166930 -0.968560
H35   H     H_    0.054798 0.047248 0.084653 0.261824
H36   H     H_    0.995120 0.908318 0.134899 0.263259
H37   H     H_    0.111232 0.928390 0.180172 0.275035
N3    N     N_R   0.233712 0.270083 0.523187 0.120595
O13   O     O_R   0.288946 0.238421 0.426969 -0.416501
O14   O     O_R   0.234763 0.213353 0.641609 -0.381806
O15   O     O_3   0.101535 0.828936 0.566627 -0.615603
C39   C     C_3   0.153832 0.827903 0.689525 0.061995
H38   H     H_    0.225393 0.832471 0.659618 0.170144
H39   H     H_    0.142947 0.744788 0.755762 0.121495
C40   C     C_3   0.134525 0.940999 0.776302 -0.302542
H40   H     H_    0.129873 0.022407 0.708020 0.300454
H41   H     H_    0.069676 0.926570 0.829781 0.199535
C41   C     C_3   0.207581 0.965787 0.884033 -0.904208
H42   H     H_    0.212233 0.886890 0.956285 0.248122
H43   H     H_    0.192029 0.049137 0.943984 0.256146
H44   H     H_    0.273074 0.981770 0.832624 0.274025
O16   O     O_3   0.463087 0.875217 0.257753 -0.585696
C42   C     C_3   0.509446 0.932464 0.146419 0.054906
H45   H     H_    0.552034 0.862629 0.098113 0.156971
H46   H     H_    0.555508 0.009702 0.176874 0.124374
C43   C     C_3   0.442278 0.975801 0.038232 -0.335444
H47   H     H_    0.402272 0.895663 0.999665 0.224349
H48   H     H_    0.395816 0.040961 0.086039 0.220131
C44   C     C_3   0.489165 0.038729 0.916342 -0.934185
H49   H     H_    0.528325 0.120506 0.952258 0.260239
H50   H     H_    0.438688 0.068879 0.839923 0.263594
H51   H     H_    0.534587 0.974377 0.864737 0.254262

loop_
_geom_bond_atom_site_label_1
_geom_bond_atom_site_label_2
_geom_bond_distance
_ccdc_geom_bond_type
C32   H22   1.110901 S    
C29   H14   1.110962 S    
C31   H20   1.111325 S    
C21   C23   1.477466 S    
C42   H46   1.114766 S    
C25   N1    1.293499 D    
O15   C39   1.421033 S    
O12   C36   1.417490 S    
Cu1   Cu2   2.680869 S    
C37   H33   1.110272 S    
C17   H3    1.079592 S    
Cu1   O7    1.954815 S    
C16   C17   1.392525 A    
C19   C20   1.385153 A    
C34   H27   1.111341 S    
C30   C31   1.537247 S    
C18   C19   1.403246 A    
C24   H6    1.082924 S    
C3    C22   1.452225 S    
O4    C2    1.289978 A    
O7    C4    1.290299 A    
C35   H30   1.110990 S    
C32   H23   1.111179 S    
O16   C42   1.417877 S    
C5    C6    1.405878 A    
C8    C11   1.407611 A    
C39   C40   1.528674 S    
C15   C20   1.390347 A    
C41   H44   1.110668 S    
C30   H18   1.108841 S    
C21   C22   1.350061 D    
Cu1   N1    2.014011 S    
O5    C3    1.294373 A    
C43   H47   1.111651 S    
C22   H4    1.082907 S    
C1    C24   1.441825 S    
C6    C7    1.388913 A    
C27   H11   1.115677 S    
C34   C35   1.525913 S    
C39   H39   1.117817 S    
C42   H45   1.111350 S    
O11   C33   1.416930 S    
C28   C29   1.525327 S    
C35   H28   1.110804 S    
C44   H51   1.110882 S    
C35   H29   1.107704 S    
C32   H21   1.111708 S    
C31   C32   1.526825 S    
O10   C30   1.417933 S    
C11   C12   1.402127 A    
C25   H7    1.081422 S    
N1    H8    1.028422 S    
C5    O9    1.388026 S    
O3    Cu1   1.953449 S    
C28   H13   1.110641 S    
Cu2   N2    2.014465 S    
C37   H34   1.109318 S    
C5    C10   1.406510 A    
C34   H26   1.108115 S    
C21   O16   1.395183 S    
C12   O12   1.384155 S    
C14   C15   1.417523 A    
O3    C2    1.288652 A    
C33   H25   1.115126 S    
C8    C9    1.410194 A    
C15   C16   1.414439 A    
C26   N2    1.300349 D    
C30   H17   1.111304 S    
O1    C1    1.289432 A    
C23   C24   1.338662 D    
O4    Cu2   1.954813 S    
C40   H40   1.108998 S    
C38   H37   1.110762 S    
Cu2   O8    1.953451 S    
C27   C28   1.530456 S    
C39   H38   1.110823 S    
C2    C19   1.443106 S    
N3    O14   1.300497 A    
C7    C8    1.395624 A    
C18   N3    1.434115 S    
C13   C18   1.416481 A    
C41   H43   1.110171 S    
C43   C44   1.526503 S    
O9    C27   1.418194 S    
C40   H41   1.109281 S    
C38   H36   1.109649 S    
C27   H10   1.110296 S    
C36   H32   1.117181 S    
C29   H15   1.109413 S    
C7    H1    1.084395 S    
C42   C43   1.531126 S    
C4    C6    1.444781 S    
C28   H12   1.110851 S    
C44   H49   1.110854 S    
C37   C38   1.524311 S    
C16   O15   1.389376 S    
Cu1   O5    1.953825 S    
N2    H9    1.028231 S    
C26   O10   1.394925 S    
O1    Cu1   1.954990 S    
O2    Cu2   1.953825 S    
O8    C4    1.290262 A    
O6    C3    1.289857 A    
C33   C34   1.527985 S    
C10   C17   1.401695 A    
C36   C37   1.530533 S    
C11   O11   1.386166 S    
C9    C10   1.417282 A    
O2    C1    1.290210 A    
C33   H24   1.111282 S    
C23   H5    1.085827 S    
C20   H2    1.081707 S    
N3    O13   1.300465 A    
C9    C14   1.406398 A    
C41   H42   1.110800 S    
C43   H48   1.110531 S    
C13   C14   1.423948 A    
C31   H19   1.112093 S    
C40   C41   1.527468 S    
C38   H35   1.110459 S    
Cu2   O6    1.954990 S    
C36   H31   1.110806 S    
C29   H16   1.109828 S    
C25   C26   1.528261 S    
C12   C13   1.422208 A    
C44   H50   1.110540 S    
