data_mof_unit_56458.cif
_audit_creation_date              2012-12-11T16:22:20-0500
_audit_creation_method            fapswitch 2.2
_symmetry_space_group_name_H-M    P1
_symmetry_Int_Tables_number       1
_space_group_crystal_system       triclinic
_cell_length_a                    13.493752
_cell_length_b                    14.006758
_cell_length_c                    30.045326
_cell_angle_alpha                 97.781631
_cell_angle_beta                  90.543999
_cell_angle_gamma                 118.650905
_cell_volume                      4919.35936318

loop_
_atom_site_label
_atom_site_type_symbol
_atom_type_description
_atom_site_fract_x
_atom_site_fract_y
_atom_site_fract_z
_atom_type_partial_charge
C1    C     C_R   0.720688 0.098778 0.569377 0.559888
C2    C     C_1   0.356646 0.687387 0.768174 0.052405
C3    C     C_2   0.512945 0.620610 0.277597 0.601158
C4    C     C_1   0.284421 0.454064 0.211720 0.236963
C5    C     C_1   0.159698 0.010068 0.064562 0.256574
C6    C     C_1   0.178580 0.965011 0.152472 0.255460
C7    C     C_2   0.155473 0.948484 0.295756 0.590180
C8    C     C_1   0.175440 0.950014 0.390900 0.285797
C9    C     C_1   0.503424 0.330993 0.408643 0.277150
C10   C     C_2   0.531526 0.332637 0.190681 0.599137
C11   C     C_1   0.928971 0.409553 0.107563 0.243481
C12   C     C_1   0.850730 0.374021 0.193522 0.247898
C13   C     C_1   0.358137 0.690314 0.728468 0.031338
C14   C     C_1   0.806902 0.338845 0.326670 0.294133
C15   C     C_2   0.822894 0.327049 0.422576 0.600568
C16   C     C_2   0.153241 0.647063 0.584619 0.610287
C17   C     C_1   0.731816 0.978106 0.155424 0.269537
C18   C     C_2   0.790658 0.004588 0.064007 0.609566
C19   C     C_1   0.769157 0.965910 0.289741 0.231451
C20   C     C_1   0.568304 0.758771 0.593447 0.254272
C21   C     C_1   0.546452 0.713934 0.824850 0.254491
C22   C     C_1   0.502893 0.643980 0.911059 0.251784
C23   C     C_1   0.562023 0.740492 0.685947 0.223058
C24   C     C_R   0.383933 0.786894 0.550841 0.556930
C25   C     C_2   0.088277 0.044235 0.760815 0.599635
C26   C     C_R   0.306202 0.616570 0.901038 -0.032787
C27   C     C_3   0.267529 0.205181 0.726852 0.028533
C28   C     C_3   0.210983 0.104989 0.752178 0.043530
C29   C     C_1   0.296899 0.196125 0.876901 0.051677
C30   C     C_1   0.364200 0.136085 0.613264 0.056009
C31   C     C_3   0.368521 0.262118 0.763354 -0.044823
C32   C     C_3   0.312464 0.162056 0.788617 -0.042519
C33   C     C_R   0.360666 0.694154 0.680997 -0.018114
C34   C     C_3   0.430518 0.208245 0.736386 0.026785
C35   C     C_3   0.329167 0.150918 0.700083 -0.034698
C36   C     C_3   0.374431 0.108295 0.761530 -0.054154
C37   C     C_R   0.397210 0.118994 0.569328 0.548856
C38   C     C_3   0.273378 0.051029 0.725169 -0.048929
C39   C     C_1   0.304898 0.175760 0.837380 0.031165
C40   C     C_1   0.343894 0.144380 0.651918 0.041490
C41   C     C_3   0.842830 0.268730 0.737686 -0.097723
C42   C     C_3   0.749907 0.199824 0.767742 -0.082323
C43   C     C_1   0.890126 0.201785 0.879468 0.044369
C44   C     C_R   0.261525 0.669076 0.655750 -0.109267
C45   C     C_1   0.766396 0.130053 0.615320 0.032842
C46   C     C_3   0.927967 0.246402 0.762749 0.077483
C47   C     C_3   0.835944 0.178390 0.792195 0.010638
C48   C     C_3   0.896015 0.141482 0.728653 -0.084213
C49   C     C_R   0.719650 0.095089 0.442482 0.571048
C50   C     C_3   0.809913 0.162767 0.704189 0.005683
C51   C     C_3   0.802994 0.072826 0.758509 -0.108623
C52   C     C_3   0.716375 0.093800 0.733312 -0.078863
C53   C     C_1   0.858654 0.189133 0.840608 0.006171
C54   C     C_1   0.791402 0.148534 0.655241 -0.008228
C55   C     C_R   0.263179 0.683639 0.610447 0.036923
C56   C     C_3   0.250750 0.611347 0.258050 -0.050360
C57   C     C_3   0.275500 0.701546 0.228584 -0.110022
C58   C     C_1   0.311689 0.609288 0.110933 0.031711
C59   C     C_1   0.366835 0.736498 0.378409 0.072262
C60   C     C_3   0.320067 0.570074 0.229139 -0.022955
C61   C     C_R   0.381978 0.784050 0.424560 0.561821
C62   C     C_3   0.346270 0.660442 0.200031 -0.008661
C63   C     C_3   0.427685 0.649491 0.260463 0.036937
C64   C     C_3   0.357863 0.690244 0.289426 -0.013637
C65   C     C_3   0.455282 0.740197 0.230740 -0.119812
C66   C     C_R   0.249772 0.663566 0.833471 -0.088384
C67   C     C_3   0.384327 0.780292 0.259935 0.053314
C68   C     C_1   0.332479 0.638355 0.150919 0.004377
C69   C     C_1   0.360949 0.710014 0.338431 0.060417
C70   C     C_R   0.354230 0.131878 0.399709 -0.038905
C71   C     C_R   0.421760 0.228936 0.381283 -0.039548
C72   C     C_R   0.410640 0.228120 0.335099 -0.136464
C73   C     C_R   0.394905 0.114791 0.442898 0.535847
C74   C     C_R   0.329836 0.134253 0.306942 -0.012291
C75   C     C_R   0.248564 0.044018 0.325375 0.053136
C76   C     C_R   0.259489 0.043555 0.372176 -0.050732
C77   C     C_R   0.229124 0.637854 0.876815 0.043016
C78   C     C_R   0.258864 0.070926 0.140783 -0.034832
C79   C     C_R   0.247559 0.094701 0.097607 -0.040939
C80   C     C_R   0.414412 0.274702 0.117707 -0.124422
C81   C     C_R   0.429319 0.250698 0.160204 0.045884
C82   C     C_R   0.345276 0.151493 0.172877 -0.003894
C83   C     C_1   0.338066 0.139252 0.219712 0.100566
C84   C     C_1   0.332187 0.134516 0.259253 0.103325
C85   C     C_R   0.368365 0.729030 0.590769 -0.029349
C86   C     C_R   0.320500 0.201093 0.087398 -0.030677
C87   C     C_R   0.769703 0.127006 0.399664 -0.017429
C88   C     C_R   0.414123 0.646548 0.884537 -0.055252
C89   C     C_R   0.766782 0.043626 0.367050 -0.126536
C90   C     C_R   0.775301 0.055713 0.321861 -0.013511
C91   C     C_R   0.784635 0.151644 0.308343 -0.012624
C92   C     C_R   0.796130 0.239761 0.340933 -0.040579
C93   C     C_R   0.794872 0.230029 0.387241 0.020137
C94   C     C_R   0.844879 0.282792 0.162029 -0.029249
C95   C     C_R   0.883671 0.299620 0.119031 -0.064284
C96   C     C_R   0.820253 0.102253 0.099146 0.022962
C97   C     C_R   0.464706 0.736471 0.614650 -0.058601
C98   C     C_R   0.785753 0.087317 0.143037 -0.038788
C99   C     C_R   0.436028 0.679896 0.841734 -0.010537
C100  C     C_R   0.803838 0.178601 0.174907 -0.019382
C101  C     C_1   0.790244 0.167712 0.221774 0.038323
C102  C     C_1   0.785671 0.160376 0.261116 0.034273
C103  C     C_R   0.880497 0.210774 0.088577 -0.030995
C104  C     C_R   0.283944 0.232216 0.922155 0.549042
C105  C     C_R   0.267620 0.551134 0.938960 0.551141
C106  C     C_R   0.943828 0.221554 0.923296 0.563191
C107  C     C_R   0.293749 0.241876 0.048418 0.541807
C108  C     C_R   0.275805 0.559114 0.065016 0.551675
C109  C     C_R   0.461196 0.722405 0.660167 -0.025057
C110  C     C_R   0.349343 0.678942 0.815175 0.000219
C111  C     C_R   0.950821 0.231906 0.049199 0.560998
C112  C     C_2   0.126740 0.635962 0.895236 0.613745
C113  C     C_2   0.212372 0.259783 0.704858 0.588241
C114  C     C_1   0.220551 0.935328 0.703680 0.261523
C115  C     C_1   0.431539 0.054418 0.780548 0.208245
C116  C     C_2   0.551041 0.265580 0.724701 0.568955
C117  C     C_1   0.421511 0.376978 0.785770 0.306890
C118  C     C_2   0.046401 0.331808 0.780400 0.606538
C119  C     C_1   0.140290 0.539535 0.273421 0.230890
C120  C     C_2   0.424056 0.900250 0.275728 0.610359
Cr1   Cr    Cr6+3 0.583430 0.162610 0.509470 1.103158
Cr2   Cr    Cr6+3 0.584210 0.916680 0.495400 1.089691
Cr3   Cr    Cr6+3 0.332380 0.920740 0.495100 1.106892
Cr4   Cr    Cr6+3 0.086810 0.177030 0.983130 1.107117
Cr5   Cr    Cr6+3 0.337180 0.419300 0.994610 1.088435
Cr6   Cr    Cr6+3 0.084840 0.422330 0.995830 1.102086
H1    H     H_    0.690263 0.223150 0.784755 0.170297
H2    H     H_    0.473877 0.353846 0.108917 0.195662
H3    H     H_    0.467477 0.300420 0.320749 0.170754
H4    H     H_    0.750556 0.965455 0.376246 0.168797
H5    H     H_    0.060028 0.686722 0.946945 0.354224
H6    H     H_    0.207178 0.399601 0.700216 0.353693
H7    H     H_    0.665765 0.263008 0.682997 0.340430
H8    H     H_    0.192038 0.366915 0.814721 0.345999
H9    H     H_    0.471758 0.024175 0.328022 0.336264
H10   H     H_    0.592146 0.605048 0.331131 0.359327
H11   H     H_    0.110691 0.826499 0.243180 0.357901
H12   H     H_    0.860178 0.349262 0.728622 0.167635
H13   H     H_    0.667081 0.485389 0.202532 0.388754
H14   H     H_    0.809882 0.463554 0.442975 0.361737
H15   H     H_    0.992649 0.620810 0.585753 0.357841
H16   H     H_    0.729169 0.929830 0.000023 0.352401
H17   H     H_    0.970447 0.011818 0.805682 0.344329
H18   H     H_    0.628597 0.030376 0.720296 0.159588
H19   H     H_    0.785788 0.992306 0.767530 0.163872
H20   H     H_    0.954930 0.118059 0.711452 0.210808
H21   H     H_    0.187156 0.671299 0.813569 0.174447
H22   H     H_    0.213072 0.722706 0.214954 0.167622
H23   H     H_    0.539531 0.793900 0.219709 0.179031
H24   H     H_    0.182635 0.638886 0.671750 0.183134
N1    N     N_1   0.178369 0.844087 0.686781 -0.224703
N2    N     N_1   0.964630 0.497421 0.098721 -0.226432
N3    N     N_1   0.855391 0.447215 0.218254 -0.216178
N4    N     N_1   0.814539 0.417862 0.315542 -0.166336
N5    N     N_1   0.689046 0.890525 0.164875 -0.235034
N6    N     N_1   0.764548 0.893858 0.264245 -0.207937
N7    N     N_1   0.651026 0.776180 0.576745 -0.224894
N8    N     N_1   0.634718 0.741315 0.811501 -0.220943
N9    N     N_1   0.573969 0.642103 0.932162 -0.237673
N10   N     N_1   0.642522 0.755103 0.706388 -0.218442
N11   N     N_1   0.476235 0.011692 0.795545 -0.307295
N12   N     N_1   0.463595 0.467359 0.803643 -0.242553
N13   N     N_1   0.053573 0.482513 0.285743 -0.249412
N14   N     N_1   0.256304 0.362751 0.197988 -0.290541
N15   N     N_1   0.089598 0.942406 0.038282 -0.220998
N16   N     N_1   0.113966 0.880118 0.161224 -0.229705
N17   N     N_1   0.108153 0.875287 0.405701 -0.215043
N18   N     N_1   0.568277 0.413060 0.430528 -0.226148
O1    O     O_R   0.493980 0.188910 0.559650 -0.491617
O2    O     O_R   0.170560 0.527890 0.952050 -0.466478
O3    O     O_R   0.987620 0.318470 0.945550 -0.489076
O4    O     O_R   0.678640 0.153520 0.554450 -0.484984
O5    O     O_R   0.976400 0.159270 0.031530 -0.473021
O6    O     O_R   0.194000 0.188570 0.028560 -0.489458
O7    O     O_R   0.365260 0.335720 0.039020 -0.504967
O8    O     O_R   0.330440 0.515580 0.044910 -0.487577
O9    O     O_R   0.177310 0.536200 0.050190 -0.481756
O10   O     O_R   0.993870 0.326170 0.036530 -0.496815
O11   O     O_3   0.169610 0.339550 0.991190 -0.278747
O12   O     O_R   0.480180 0.824400 0.444640 -0.489825
O13   O     O_R   0.698130 0.004030 0.549500 -0.486140
O14   O     O_R   0.481060 0.827210 0.535360 -0.499994
O15   O     O_R   0.309260 0.811560 0.537660 -0.463656
O16   O     O_R   0.341620 0.023400 0.546290 -0.494496
O17   O     O_R   0.493030 0.185890 0.461780 -0.491469
O18   O     O_R   0.677760 0.150720 0.463730 -0.470546
O19   O     O_R   0.697180 0.001010 0.451640 -0.507296
O20   O     O_2   0.036153 0.588164 0.872159 -0.479658
O21   O     O_R   0.135139 0.693017 0.938305 -0.658453
O22   O     O_2   0.138037 0.206629 0.674149 -0.514352
O23   O     O_R   0.308310 0.808540 0.439800 -0.480482
O24   O     O_R   0.249242 0.371901 0.718233 -0.671701
O25   O     O_2   0.616572 0.358832 0.743623 -0.484582
O26   O     O_R   0.586366 0.212876 0.690877 -0.714392
O27   O     O_2   0.082712 0.426968 0.774265 -0.511426
O28   O     O_R   0.114252 0.302162 0.804138 -0.673801
O29   O     O_2   0.441771 0.961670 0.247978 -0.490064
O30   O     O_R   0.442477 0.941709 0.321790 -0.711374
O31   O     O_2   0.564972 0.592034 0.250866 -0.460379
O32   O     O_R   0.532841 0.626731 0.323872 -0.691595
O33   O     O_2   0.056952 0.916284 0.304110 -0.474888
O34   O     O_R   0.340740 0.020600 0.455570 -0.492160
O35   O     O_R   0.180799 0.894022 0.258999 -0.677029
O36   O     O_2   0.559167 0.307772 0.224336 -0.501785
O37   O     O_R   0.598985 0.437993 0.179922 -0.653946
O38   O     O_2   0.880531 0.341931 0.457130 -0.476921
O39   O     O_R   0.784342 0.401302 0.416565 -0.668573
O40   O     O_2   0.139368 0.610815 0.544330 -0.465726
O41   O     O_R   0.063502 0.649188 0.606800 -0.663714
O42   O     O_2   0.806659 0.929691 0.072294 -0.467311
O43   O     O_R   0.745303 0.999484 0.021146 -0.678533
O44   O     O_2   0.017757 0.982764 0.729855 -0.491198
O45   O     O_3   0.500010 0.000010 0.499990 -0.281543
O46   O     O_R   0.055281 0.057071 0.804165 -0.661117
O47   O     O_R   0.969650 0.150960 0.933380 -0.484297
O48   O     O_R   0.187740 0.180870 0.937580 -0.478854
O49   O     O_R   0.358510 0.327410 0.940870 -0.497318
O50   O     O_R   0.324180 0.507870 0.953930 -0.490709

loop_
_geom_bond_atom_site_label_1
_geom_bond_atom_site_label_2
_ccdc_geom_bond_type
Cr1   O1    S    
C6    N16   T    
C17   N5    T    
C115  N11   T    
C101  C102  T    
C25   O44   D    
C18   C96   S    
C41   C42   S    
C49   C87   S    
C86   C107  S    
C4    N14   T    
C12   N3    T    
H9    O30   S    
C63   C65   S    
C81   C82   A    
C90   C91   A    
C72   H3    S    
C25   C28   S    
Cr2   O12   S    
C113  O22   D    
C52   H18   S    
C60   C63   S    
C32   C36   S    
C103  C111  S    
C16   O41   S    
C18   O42   D    
C10   O37   S    
C37   O1    A    
C38   C114  S    
C6    C78   S    
Cr4   O6    S    
C22   N9    T    
C51   H19   S    
C34   C116  S    
C108  O8    A    
C8    C76   S    
C56   C57   S    
C46   C118  S    
Cr6   O9    S    
C60   C62   S    
C34   C35   S    
C21   N8    T    
C32   C39   S    
H14   O39   S    
C66   C77   A    
C2    C13   T    
C31   C117  S    
Cr4   O11   S    
Cr3   O15   S    
Cr6   O3    S    
H13   O37   S    
Cr1   O18   S    
C43   C53   T    
C48   C51   S    
C49   O18   A    
C83   C84   T    
H7    O26   S    
C65   C67   S    
C48   H20   S    
Cr5   O11   S    
C111  O10   A    
C50   C52   S    
C41   C46   S    
C56   C64   S    
Cr6   O10   S    
C70   C71   A    
C22   C88   S    
C5    C79   S    
C118  O28   S    
C17   C98   S    
H6    O24   S    
C7    O35   S    
Cr3   O34   S    
C47   C53   S    
C116  O26   S    
Cr5   O50   S    
C48   C50   S    
C112  O21   S    
Cr4   O48   S    
C14   N4    T    
C24   O15   A    
C19   N6    T    
C12   C94   S    
H16   O43   S    
C57   C67   S    
C26   C105  S    
C73   O17   A    
C95   C103  A    
C3    O32   S    
C120  O30   S    
H5    O21   S    
C23   C109  S    
C46   C48   S    
C59   C61   S    
C26   C77   A    
C74   C75   A    
C20   C97   S    
C24   O14   A    
C51   C52   S    
C88   C99   A    
C64   C67   S    
C28   C32   S    
C35   C38   S    
C104  O48   A    
C72   C74   A    
C105  O2    A    
C119  N13   T    
C91   C92   A    
C1    O13   A    
C78   C79   A    
C24   C85   S    
C7    C75   S    
Cr4   O5    S    
C80   H2    S    
C57   C62   S    
C37   O16   A    
C27   C31   S    
C44   H24   S    
C89   H4    S    
C56   C60   S    
C30   C37   S    
C96   C98   A    
Cr2   O13   S    
C43   C106  S    
Cr1   O45   S    
C55   C85   A    
C77   C112  S    
C75   C76   A    
C112  O20   D    
Cr3   O16   S    
Cr6   O2    S    
C8    N17   T    
C114  N1    T    
C97   C109  A    
C94   C100  A    
C78   C82   A    
C3    O31   D    
C31   C32   S    
C49   O19   A    
C28   C38   S    
C23   N10   T    
C29   C39   T    
C70   C73   S    
C106  O47   A    
C120  O29   D    
C66   H21   S    
C31   C34   S    
C30   C40   T    
Cr6   O11   S    
C50   C54   S    
C64   C69   S    
C66   C110  A    
C118  O27   D    
C14   C92   S    
C41   H12   S    
C42   H1    S    
C59   C69   T    
H17   O46   S    
C116  O25   D    
C27   C113  S    
C58   C68   T    
C45   C54   T    
C82   C83   S    
C5    N15   T    
C20   N7    T    
C87   C89   A    
Cr3   O45   S    
C70   C76   A    
C56   C119  S    
C57   H22   S    
C33   C109  A    
C91   C102  S    
Cr3   O23   S    
Cr5   O7    S    
C106  O3    A    
H15   O41   S    
C41   C50   S    
C67   C120  S    
C11   C95   S    
C113  O24   S    
C46   C47   S    
C2    C110  S    
C10   C81   S    
C62   C65   S    
C111  O5    A    
C33   C44   A    
C9    N18   T    
C9    C71   S    
C74   C84   S    
C80   C81   A    
C4    C60   S    
C15   C93   S    
C47   C51   S    
C13   C33   S    
C25   O46   S    
C107  O6    A    
C3    C63   S    
C117  N12   T    
H11   O35   S    
C73   O34   A    
C1    O4    A    
C80   C86   A    
Cr2   O45   S    
C62   C68   S    
C27   C35   S    
C58   C108  S    
C36   C38   S    
C35   C40   S    
C16   C55   S    
C71   C72   A    
C7    O33   D    
C19   C90   S    
C99   C110  A    
C44   C55   A    
C1    C45   S    
Cr2   O19   S    
C107  O7    A    
C21   C99   S    
C87   C93   A    
H8    O28   S    
C92   C93   A    
Cr5   O8    S    
C108  O9    A    
C18   O43   S    
C34   C36   S    
C42   C47   S    
C65   H23   S    
C94   C95   A    
C98   C100  A    
C104  O49   A    
H10   O32   S    
C15   O38   D    
C85   C97   A    
Cr1   O17   S    
C63   C64   S    
C11   N2    T    
Cr2   O14   S    
Cr1   O4    S    
C29   C104  S    
C61   O12   A    
C26   C88   A    
C105  O50   A    
C96   C103  A    
C27   C28   S    
C61   O23   A    
C16   O40   D    
C100  C101  S    
C89   C90   A    
C36   C115  S    
C10   O36   D    
C79   C86   A    
C15   O39   S    
C42   C52   S    
Cr4   O47   S    
Cr5   O49   S    
