data_mof_unit_36015.cif
_audit_creation_date              2012-10-26T18:28:58-0400
_audit_creation_method            fapswitch 2.2
_symmetry_space_group_name_H-M    P1
_symmetry_Int_Tables_number       1
_space_group_crystal_system       triclinic
_cell_length_a                    11.667108
_cell_length_b                    13.003112
_cell_length_c                    15.891564
_cell_angle_alpha                 92.131196
_cell_angle_beta                  74.173689
_cell_angle_gamma                 99.890929
_cell_volume                      2284.90436202

loop_
_atom_site_label
_atom_site_type_symbol
_atom_type_description
_atom_site_fract_x
_atom_site_fract_y
_atom_site_fract_z
_atom_type_partial_charge
C1    C     C_R   0.520825 0.700870 0.501275 0.551918
C2    C     C_R   0.347577 0.015180 0.492550 -0.135888
C3    C     C_R   0.641542 0.876716 0.507121 -0.135515
C4    C     C_R   0.358492 0.123293 0.492814 -0.135328
C5    C     C_R   0.434988 0.860704 0.497212 -0.127852
C6    C     C_R   0.565052 0.139305 0.502714 -0.127794
C7    C     C_R   0.445220 0.968737 0.497411 0.048209
C8    C     C_R   0.554826 0.031273 0.502504 0.048188
C9    C     C_R   0.940287 0.597011 0.582262 0.090652
C10   C     C_R   0.058820 0.401395 0.419062 0.091180
C11   C     C_R   0.822263 0.588059 0.573049 0.048263
C12   C     C_R   0.479183 0.299132 0.498711 0.552489
C13   C     C_R   0.177291 0.411148 0.427611 0.048116
C14   C     C_R   0.858275 0.456882 0.466330 0.037064
C15   C     C_R   0.141423 0.542638 0.534104 0.036479
C16   C     C_R   0.427054 0.495281 0.668043 0.550260
C17   C     C_R   0.573002 0.504661 0.331951 0.550106
C18   C     C_R   0.979004 0.463999 0.470904 0.005241
C19   C     C_R   0.020543 0.535196 0.529775 0.004774
C20   C     C_R   0.384072 0.491204 0.763957 -0.002108
C21   C     C_R   0.615562 0.503486 0.236032 -0.002488
C22   C     C_R   0.224273 0.481431 0.898710 -0.132381
C23   C     C_R   0.353133 0.486984 0.086750 -0.138142
C24   C     C_R   0.770997 0.490222 0.101766 -0.132312
C25   C     C_R   0.261398 0.484407 0.807656 -0.136428
C26   C     C_R   0.735598 0.496493 0.192645 -0.135863
C27   C     C_R   0.468715 0.493924 0.812108 -0.134046
C28   C     C_R   0.532080 0.505436 0.187704 -0.134896
C29   C     C_R   0.433417 0.487337 0.903841 0.031755
C30   C     C_R   0.563976 0.494953 0.096319 0.031796
C31   C     C_R   0.309142 0.483559 0.946961 0.054461
C32   C     C_R   0.686308 0.488946 0.053458 0.054279
C33   C     C_R   0.518176 0.486361 0.953689 0.033784
C34   C     C_R   0.640980 0.479300 0.913856 -0.140786
C35   C     C_R   0.478101 0.490325 0.046616 0.034420
C36   C     C_3   0.965422 0.620705 0.727472 -0.322439
C37   C     C_3   0.028481 0.370778 0.275599 -0.323981
C38   C     C_R   0.270601 0.482503 0.037773 -0.135022
C39   C     C_R   0.722940 0.480628 0.962941 -0.135964
C40   C     C_R   0.467158 0.185708 0.498002 0.000587
C41   C     C_R   0.532869 0.814299 0.501948 0.000437
C42   C     C_R   0.652467 0.984830 0.507364 -0.135958
Cu1   Cu    Cu3+1 0.386820 0.492450 0.493500 0.928859
Cu2   Cu    Cu3+1 0.613180 0.507550 0.506500 0.928946
H1    H     H_    0.175706 0.479192 0.071460 0.097568
H2    H     H_    0.864418 0.485022 0.069225 0.097311
H3    H     H_    0.314696 0.485301 0.156366 0.095014
H4    H     H_    0.676826 0.469403 0.844665 0.098731
H5    H     H_    0.649344 0.187007 0.506601 0.126902
H6    H     H_    0.350695 0.813003 0.493326 0.126567
H7    H     H_    0.281921 0.157889 0.489058 0.128450
H8    H     H_    0.718109 0.842119 0.510887 0.128726
H9    H     H_    0.736960 0.031976 0.511315 0.107938
H10   H     H_    0.263087 0.968034 0.488595 0.107689
H11   H     H_    0.176109 0.597382 0.577790 0.158817
H12   H     H_    0.815946 0.474714 0.929588 0.098762
H13   H     H_    0.823382 0.402022 0.422828 0.158117
H14   H     H_    0.938373 0.734690 0.651206 0.245068
H15   H     H_    0.868706 0.592105 0.760573 0.136565
H16   H     H_    0.002772 0.679492 0.769749 0.148988
H17   H     H_    0.016328 0.554537 0.718865 0.146430
H18   H     H_    0.059403 0.261025 0.353872 0.245115
H19   H     H_    0.124522 0.397351 0.240019 0.135022
H20   H     H_    0.978807 0.437641 0.283110 0.145419
H21   H     H_    0.987982 0.310087 0.236286 0.148175
H22   H     H_    0.238604 0.363057 0.388511 0.124554
H23   H     H_    0.760682 0.635655 0.612551 0.123671
H24   H     H_    0.442533 0.516095 0.223388 0.123777
H25   H     H_    0.562457 0.503689 0.776301 0.121731
H26   H     H_    0.801668 0.495049 0.228830 0.119821
H27   H     H_    0.194501 0.482435 0.771643 0.121079
H28   H     H_    0.129076 0.477692 0.931518 0.097469
N1    N     N_R   0.216750 0.481110 0.483710 -0.260132
N2    N     N_R   0.783250 0.518890 0.516290 -0.259963
N3    N     N_2   0.977010 0.668098 0.643959 -0.546017
N4    N     N_2   0.020401 0.327340 0.359914 -0.545675
O1    O     O_R   0.419950 0.645670 0.495380 -0.508561
O2    O     O_R   0.580050 0.354330 0.504620 -0.508452
O3    O     O_R   0.611110 0.658410 0.506370 -0.507931
O4    O     O_R   0.388890 0.341590 0.493630 -0.508007
O5    O     O_R   0.350820 0.490050 0.621260 -0.503918
O6    O     O_R   0.649180 0.509950 0.378740 -0.503630
O7    O     O_R   0.541970 0.502800 0.632250 -0.509383
O8    O     O_R   0.458030 0.497200 0.367750 -0.508878

loop_
_geom_bond_atom_site_label_1
_geom_bond_atom_site_label_2
_ccdc_geom_bond_type
Cu1   N1    S    
C21   C26   A    
C3    C42   A    
C27   C29   A    
C1    O1    A    
C14   C18   A    
C2    C7    A    
C36   H15   S    
C7    C8    A    
C15   C19   A    
C30   C35   A    
C14   N2    A    
C28   H24   S    
C24   C26   A    
C18   C19   A    
Cu2   O6    S    
C42   H9    S    
C20   C25   A    
C29   C33   A    
C17   O6    A    
C32   C39   A    
C38   H1    S    
C10   N4    S    
C9    C19   A    
C4    C40   A    
C22   C25   A    
C37   H21   S    
C25   H27   S    
C27   H25   S    
Cu2   O7    S    
Cu1   O8    S    
H18   N4    S    
C22   H28   S    
C37   H19   S    
C11   H23   S    
H14   N3    S    
C13   H22   S    
C23   H3    S    
C22   C31   A    
C4    H7    S    
C34   C39   A    
C2    H10   S    
C5    C7    A    
C6    C8    A    
Cu1   O4    S    
C11   N2    A    
C16   O7    A    
C17   C21   S    
C12   O2    A    
C15   H11   S    
C12   C40   S    
C2    C4    A    
Cu1   Cu2   S    
C24   C32   A    
C36   N3    S    
C39   H12   S    
C16   C20   S    
C33   C34   A    
Cu2   N2    S    
C9    C11   A    
C1    C41   S    
C15   N1    A    
C37   N4    S    
C13   N1    A    
C23   C35   A    
Cu1   O5    S    
C6    C40   A    
C5    H6    S    
C34   H4    S    
C36   H17   S    
C37   H20   S    
C1    O3    A    
C14   H13   S    
C5    C41   A    
C3    C41   A    
C21   C28   A    
Cu2   O3    S    
C8    C42   A    
C36   H16   S    
C10   C13   A    
C3    H8    S    
C20   C27   A    
Cu1   O1    S    
C23   C38   A    
C31   C38   A    
C17   O8    A    
C24   H2    S    
Cu2   O2    S    
C29   C31   A    
C30   C32   A    
C10   C18   A    
C26   H26   S    
C12   O4    A    
C28   C30   A    
C16   O5    A    
C33   C35   A    
C6    H5    S    
C9    N3    S    
