data_mof_unit_25314.cif
_audit_creation_date              2012-12-10T18:16:25-0500
_audit_creation_method            fapswitch 2.2
_symmetry_space_group_name_H-M    P1
_symmetry_Int_Tables_number       1
_space_group_crystal_system       triclinic
_cell_length_a                    12.596944
_cell_length_b                    13.043673
_cell_length_c                    27.676571
_cell_angle_alpha                 91.086823
_cell_angle_beta                  103.269193
_cell_angle_gamma                 82.402478
_cell_volume                      4386.97931826

loop_
_atom_site_label
_atom_site_type_symbol
_atom_type_description
_atom_site_fract_x
_atom_site_fract_y
_atom_site_fract_z
_atom_type_partial_charge
C1    C     C_R   0.438705 0.691438 0.491565 0.891257
C2    C     C_R   0.416294 0.478591 0.714328 -0.161166
C3    C     C_R   0.512295 0.495640 0.748778 0.295517
C4    C     C_R   0.489415 0.501629 0.897726 -0.053622
C5    C     C_R   0.501651 0.592588 0.874174 -0.028146
C6    C     C_R   0.506883 0.684372 0.900709 -0.158873
C7    C     C_R   0.495612 0.407168 0.872450 -0.018458
C8    C     C_R   0.505357 0.499377 0.647248 -0.067574
C9    C     C_R   0.492794 0.501222 0.352642 -0.037726
C10   C     C_R   0.451720 0.603927 0.021042 0.017928
C11   C     C_R   0.444289 0.414970 0.018895 0.018533
C12   C     C_R   0.501506 0.500180 0.594014 0.889230
C13   C     C_R   0.449624 0.509367 0.045347 -0.007801
C14   C     C_R   0.434299 0.698191 0.046997 0.188295
C15   C     C_R   0.444946 0.695530 0.098296 -0.209512
C16   C     C_R   0.457133 0.601721 0.123551 -0.041917
C17   C     C_R   0.452030 0.509275 0.096669 -0.059767
C18   C     C_R   0.449674 0.416628 0.121296 -0.040532
C19   C     C_R   0.460819 0.416680 0.172750 0.514795
C20   C     C_R   0.467534 0.598641 0.174986 0.516851
C21   C     C_R   0.387924 0.486480 0.268409 -0.105270
C22   C     C_R   0.394766 0.484229 0.319103 -0.213431
C23   C     C_R   0.561137 0.308149 0.505519 0.887055
C24   C     C_R   0.583970 0.520414 0.334647 -0.233030
C25   C     C_R   0.576840 0.522471 0.283719 -0.104087
C26   C     C_R   0.478809 0.505357 0.250651 0.315551
C27   C     C_R   0.469932 0.600360 0.972194 0.041871
C28   C     C_R   0.472823 0.504823 0.946738 0.061305
C29   C     C_R   0.463150 0.411803 0.970232 0.041585
C30   C     C_R   0.495490 0.687179 0.949379 -0.187821
C31   C     C_R   0.494759 0.315375 0.897221 -0.159178
C32   C     C_R   0.419250 0.327780 0.042600 0.187834
C33   C     C_R   0.429989 0.327584 0.093888 -0.210276
C34   C     C_R   0.498329 0.499988 0.405985 0.851821
C35   C     C_R   0.482835 0.317402 0.945776 -0.188857
C36   C     C_R   0.713965 0.059837 0.472903 0.233603
C37   C     C_R   0.597371 0.198497 0.501568 -0.089660
C38   C     C_R   0.290380 0.838366 0.482630 -0.270045
C39   C     C_R   0.251826 0.943159 0.475220 0.263714
C40   C     C_R   0.328369 0.014403 0.476643 0.150683
C41   C     C_R   0.440847 0.975108 0.476266 -0.009267
C42   C     C_R   0.466784 0.868585 0.469337 0.015445
C43   C     C_R   0.528965 0.035257 0.481782 0.014448
C44   C     C_R   0.628406 0.996239 0.467226 0.069353
C45   C     C_R   0.511290 0.588784 0.824786 0.540752
C46   C     C_R   0.638334 0.895736 0.447599 0.174084
C47   C     C_R   0.558666 0.832505 0.449938 -0.220974
C48   C     C_R   0.523571 0.130705 0.504612 -0.249914
C49   C     C_R   0.694532 0.162836 0.487085 -0.279893
C50   C     C_R   0.398203 0.800744 0.480711 -0.155125
C51   C     C_R   0.082210 0.356888 0.425607 -0.305353
C52   C     C_R   0.801586 0.628300 0.560073 0.006694
C53   C     C_R   0.907236 0.655685 0.573122 -0.272109
C54   C     C_R   0.987893 0.607305 0.550333 -0.200039
C55   C     C_R   0.963206 0.530115 0.514479 0.019956
C56   C     C_R   0.505965 0.406561 0.823216 0.485412
C57   C     C_R   0.854234 0.504561 0.502744 0.234691
C58   C     C_R   0.041562 0.478007 0.489633 -0.011332
C59   C     C_R   0.008176 0.404877 0.452375 0.185227
C60   C     C_R   0.901491 0.379767 0.442370 -0.302556
C61   C     C_R   0.826427 0.427618 0.467854 -0.223734
C62   C     C_R   0.152389 0.495045 0.500101 -0.062987
C63   C     C_R   0.189656 0.379096 0.436956 0.018219
C64   C     C_R   0.606285 0.514243 0.732692 0.274938
C65   C     C_R   0.601764 0.516915 0.681790 -0.289590
C66   C     C_R   0.412734 0.480153 0.663910 -0.220387
H1    H     H_    0.337301 0.466629 0.638065 0.168336
H2    H     H_    0.647288 0.536970 0.269898 0.140198
H3    H     H_    0.755509 0.214160 0.487171 0.155894
H4    H     H_    0.343922 0.464843 0.726823 0.151865
H5    H     H_    0.234010 0.785727 0.487749 0.177900
H6    H     H_    0.566396 0.755723 0.434602 0.176947
H7    H     H_    0.247990 0.343253 0.416490 0.132308
H8    H     H_    0.738460 0.665975 0.577491 0.144312
H9    H     H_    0.522945 0.753976 0.884433 0.191102
H10   H     H_    0.068001 0.632464 0.561196 0.140659
H11   H     H_    0.746977 0.402651 0.459453 0.213285
H12   H     H_    0.323101 0.469459 0.331903 0.161963
H13   H     H_    0.311961 0.473631 0.242787 0.139919
H14   H     H_    0.437397 0.767832 0.117942 0.187290
H15   H     H_    0.512036 0.757557 0.968890 0.181695
H16   H     H_    0.673995 0.531675 0.669423 0.162345
N1    N     N_R   0.511686 0.496846 0.800301 -0.346592
N2    N     N_R   0.470974 0.506669 0.198438 -0.356552
N3    N     N_R   0.222180 0.444690 0.474320 -0.104397
N4    N     N_R   0.776980 0.554780 0.525420 -0.129396
O1    O     O_R   0.366730 0.627160 0.487740 -0.614892
O2    O     O_2   0.473073 0.686711 0.201335 -0.564124
O3    O     O_2   0.510234 0.316678 0.798297 -0.563383
O4    O     O_2   0.461974 0.327605 0.197045 -0.564613
O5    O     O_R   0.544830 0.662520 0.504140 -0.615944
O6    O     O_R   0.410970 0.482310 0.563040 -0.625459
O7    O     O_R   0.589070 0.517670 0.579450 -0.618304
O8    O     O_R   0.455170 0.337480 0.495860 -0.620082
O9    O     O_R   0.633270 0.372840 0.512260 -0.629223
O10   O     O_R   0.410930 0.482330 0.420550 -0.619142
O11   O     O_R   0.589030 0.517690 0.436960 -0.649477
O12   O     O_2   0.518393 0.676293 0.801120 -0.559722
Zn1   Zn    Zn3+2 0.381080 0.476390 0.489050 0.931406
Zn2   Zn    Zn3+2 0.618920 0.523610 0.510950 0.924503
N5    N     N_2   0.704151 0.532420 0.767443 -0.291211
H17   H     H_    0.750133 0.580106 0.753969 0.229504
C67   C     C_3   0.770867 0.439830 0.790682 -0.765601
H18   H     H_    0.843151 0.461403 0.818308 0.239096
H19   H     H_    0.800521 0.389547 0.762330 0.238830
H20   H     H_    0.723383 0.396213 0.810385 0.263595
H21   H     H_    0.506195 0.241097 0.879623 0.192020
N6    N     N_2   0.372539 0.244489 0.015265 -0.328167
H22   H     H_    0.383651 0.176200 0.035113 0.223106
C68   C     C_3   0.260234 0.270995 0.987476 -0.763692
H23   H     H_    0.232564 0.203275 0.965589 0.238685
H24   H     H_    0.253891 0.336134 0.961258 0.254925
H25   H     H_    0.205271 0.292819 0.013234 0.241461
H26   H     H_    0.660382 0.533849 0.359770 0.163857
H27   H     H_    0.416668 0.258815 0.111844 0.186373
H28   H     H_    0.494297 0.243215 0.963961 0.181166
N7    N     N_2   0.723399 0.860909 0.422624 -0.283623
H29   H     H_    0.696663 0.864962 0.384517 0.229959
C69   C     C_3   0.790562 0.764058 0.439948 -0.727953
H30   H     H_    0.864258 0.754772 0.423875 0.236947
H31   H     H_    0.744167 0.697665 0.428195 0.226560
H32   H     H_    0.818719 0.763671 0.480924 0.257843
N8    N     N_2   0.820747 0.020187 0.466917 -0.286285
H33   H     H_    0.857930 0.072738 0.451321 0.213356
C70   C     C_3   0.892125 0.973303 0.511797 -0.746694
H34   H     H_    0.967148 0.930159 0.503048 0.261408
H35   H     H_    0.850368 0.917836 0.528386 0.243441
H36   H     H_    0.916437 0.033947 0.539363 0.229775
H37   H     H_    0.460463 0.155028 0.524136 0.189698
N9    N     N_2   0.287278 0.121942 0.470764 -0.326061
H38   H     H_    0.322609 0.166393 0.450034 0.237894
C71   C     C_3   0.248499 0.172742 0.511955 -0.816245
H39   H     H_    0.294283 0.238774 0.525176 0.258009
H40   H     H_    0.258013 0.118589 0.543678 0.244870
H41   H     H_    0.160461 0.204333 0.499531 0.249660
N10   N     N_2   0.135727 0.974471 0.464493 -0.316863
H42   H     H_    0.109797 0.051511 0.468369 0.255420
C72   C     C_3   0.075644 0.933847 0.418690 -0.801841
H43   H     H_    0.986733 0.962665 0.412852 0.248997
H44   H     H_    0.084887 0.848049 0.420108 0.250143
H45   H     H_    0.105522 0.959530 0.386697 0.249556
H46   H     H_    0.876012 0.322135 0.414909 0.156237
H47   H     H_    0.057491 0.302182 0.396557 0.152064
H48   H     H_    0.185746 0.547506 0.528288 0.127756
H49   H     H_    0.926349 0.714882 0.600507 0.157801
N11   N     N_2   0.394950 0.794965 0.021887 -0.328936
H50   H     H_    0.411998 0.858994 0.043299 0.223231
C73   C     C_3   0.281651 0.804409 0.994231 -0.763436
H51   H     H_    0.259805 0.879774 0.974046 0.238529
H52   H     H_    0.226117 0.800838 0.019923 0.242170
H53   H     H_    0.269422 0.741814 0.966522 0.255402

loop_
_geom_bond_atom_site_label_1
_geom_bond_atom_site_label_2
_ccdc_geom_bond_type
C10   C27   A    
C58   C62   A    
C21   C26   A    
C24   H26   S    
N5    H17   S    
C41   C42   A    
C73   H53   S    
N8    H33   S    
C3    C64   A    
C57   N4    A    
C8    C66   A    
C23   O9    A    
C28   C29   A    
C34   O10   A    
C52   H8    S    
C45   O12   S    
N7    C69   S    
C5    C6    A    
C9    C22   A    
N8    C70   S    
C15   C16   A    
O10   Zn1   S    
C34   O11   A    
N6    H22   S    
C18   C19   A    
C1    O1    A    
C68   H23   S    
C60   H46   S    
C46   C47   A    
C61   H11   S    
C71   H39   S    
C70   H36   S    
O5    Zn2   S    
N4    Zn2   S    
C43   C48   A    
O1    Zn1   S    
C8    C12   S    
C66   H1    S    
C59   C60   A    
N5    C67   S    
C49   H3    S    
C21   C22   A    
C63   N3    A    
C27   C30   A    
C41   C43   A    
C45   N1    A    
C25   H2    S    
C7    C56   A    
C4    C7    A    
C4    C28   A    
C44   C46   A    
N11   C73   S    
C39   N10   S    
C69   H31   S    
C64   N5    S    
C62   N3    A    
C33   H27   S    
C7    C31   A    
C6    H9    S    
C36   N8    S    
C51   C63   A    
C73   H51   S    
C22   H12   S    
N10   C72   S    
C10   C14   A    
C62   H48   S    
C39   C40   A    
O9    Zn2   S    
C16   C17   A    
C63   H7    S    
C58   C59   A    
C23   C37   S    
C5    C45   A    
C10   C13   A    
C46   N7    S    
C60   C61   A    
N9    C71   S    
C43   C44   A    
N3    Zn1   S    
C37   C49   A    
C8    C65   A    
C15   H14   S    
O7    Zn2   S    
C16   C20   A    
C21   H13   S    
C53   H49   S    
C17   C18   A    
C35   H28   S    
C67   H19   S    
C24   C25   A    
C37   C48   A    
C57   C61   A    
C68   H25   S    
C72   H44   S    
C42   C50   A    
C54   H10   S    
C71   H40   S    
C56   O3    S    
C6    C30   A    
C11   C32   A    
C55   C57   A    
C3    N1    S    
C70   H34   S    
C31   C35   A    
C48   H37   S    
C36   C44   A    
C51   C59   A    
C19   N2    A    
C67   H18   S    
O11   Zn2   S    
C52   C53   A    
C56   N1    A    
N11   H50   S    
C1    C50   S    
C69   H32   S    
C40   N9    S    
C54   C55   A    
C40   C41   A    
C26   N2    S    
C31   H21   S    
C12   O6    A    
C73   H52   S    
N10   H42   S    
C2    C66   A    
C72   H45   S    
C69   H30   S    
C9    C24   A    
C53   C54   A    
C38   C50   A    
C51   H47   S    
C29   C35   A    
C14   N11   S    
C23   O8    A    
C13   C17   A    
C64   C65   A    
C30   H15   S    
C20   N2    A    
C2    C3    A    
C25   C26   A    
C19   O4    S    
N7    H29   S    
C32   C33   A    
C11   C13   A    
C65   H16   S    
C38   C39   A    
O8    Zn1   S    
C71   H41   S    
C20   O2    S    
C52   N4    A    
N6    C68   S    
C9    C34   S    
N9    H38   S    
C67   H20   S    
C42   C47   A    
C12   O7    A    
C18   C33   A    
C68   H24   S    
C47   H6    S    
C72   H43   S    
C4    C5    A    
C11   C29   A    
C1    O5    A    
C32   N6    S    
C55   C58   A    
C27   C28   A    
C70   H35   S    
C14   C15   A    
C2    H4    S    
C36   C49   A    
C38   H5    S    
O6    Zn1   S    
