data_mof_unit_68548.cif
_audit_creation_date              2012-12-11T14:31:08-0500
_audit_creation_method            fapswitch 2.2
_symmetry_space_group_name_H-M    P1
_symmetry_Int_Tables_number       1
_space_group_crystal_system       triclinic
_cell_length_a                    6.84775
_cell_length_b                    14.483245
_cell_length_c                    15.940605
_cell_angle_alpha                 89.999852
_cell_angle_beta                  90.000042
_cell_angle_gamma                 90.000077
_cell_volume                      1580.95159919

loop_
_atom_site_label
_atom_site_type_symbol
_atom_type_description
_atom_site_fract_x
_atom_site_fract_y
_atom_site_fract_z
_atom_type_partial_charge
O1    O     O_R   0.469910 0.836130 0.163900 -0.539727
O2    O     O_R   0.530090 0.163870 0.836100 -0.542638
O3    O     O_R   0.530090 0.163870 0.663900 -0.539728
O4    O     O_R   0.469910 0.836130 0.336100 -0.542640
O5    O     O_R   0.969910 0.663870 0.336100 -0.539728
O6    O     O_R   0.030090 0.336130 0.663900 -0.542639
O7    O     O_R   0.030090 0.336130 0.836100 -0.539728
O8    O     O_R   0.969910 0.663870 0.163900 -0.542639
O9    O     O_R   0.140100 0.847470 0.335520 -0.545581
O10   O     O_R   0.859900 0.152530 0.664480 -0.543630
O11   O     O_R   0.859900 0.152530 0.835520 -0.545582
O12   O     O_R   0.140100 0.847470 0.164480 -0.543630
O13   O     O_R   0.640100 0.652530 0.164480 -0.545584
O14   O     O_R   0.359900 0.347470 0.835520 -0.543630
O15   O     O_R   0.359900 0.347470 0.664480 -0.545582
O16   O     O_R   0.640100 0.652530 0.335520 -0.543630
C1    C     C_R   0.312966 0.876175 0.358552 0.763032
C2    C     C_R   0.689200 0.135260 0.631399 0.749259
C3    C     C_R   0.687034 0.123825 0.858553 0.763027
C4    C     C_R   0.310800 0.864741 0.131400 0.749259
C5    C     C_R   0.812966 0.623826 0.141447 0.763030
C6    C     C_R   0.189200 0.364740 0.868600 0.749260
C7    C     C_R   0.187034 0.376175 0.641447 0.763031
C8    C     C_R   0.810800 0.635260 0.368600 0.749262
O17   O     O_3   0.303300 0.689750 0.250000 -0.376248
O18   O     O_3   0.696700 0.310250 0.750000 -0.376247
O19   O     O_3   0.803300 0.810250 0.250000 -0.376248
O20   O     O_3   0.196700 0.189750 0.750000 -0.376246
V1    V     V_3+5 0.028490 0.761170 0.250000 1.354319
V2    V     V_3+5 0.971510 0.238830 0.750000 1.354318
V3    V     V_3+5 0.528490 0.738830 0.250000 1.354316
V4    V     V_3+5 0.471510 0.261170 0.750000 1.354318
C9    C     C_2   0.831167 0.571426 0.441788 -0.369999
C10   C     C_2   0.163147 0.452995 0.579853 -0.403838
C11   C     C_2   0.168833 0.428574 0.941788 -0.369997
C12   C     C_2   0.836853 0.547006 0.079852 -0.403842
C13   C     C_2   0.331166 0.928576 0.058213 -0.369997
C14   C     C_2   0.663145 0.047004 0.920147 -0.403844
C15   C     C_2   0.668833 0.071426 0.558212 -0.369997
C16   C     C_2   0.336854 0.952996 0.420146 -0.403843
C17   C     C_2   0.985652 0.571761 0.497117 0.107766
C18   C     C_2   0.993953 0.502859 0.567595 0.081652
C19   C     C_2   0.014347 0.428240 0.997117 0.107766
C20   C     C_2   0.006047 0.497141 0.067594 0.081654
C21   C     C_2   0.485645 0.928238 0.002880 0.107770
C22   C     C_2   0.493950 0.997141 0.932404 0.081647
C23   C     C_2   0.514348 0.071761 0.502882 0.107765
C24   C     C_2   0.506048 0.002859 0.432405 0.081655
H1    H     H_    0.288529 0.466947 0.540122 0.122447
H2    H     H_    0.714746 0.521462 0.450905 0.112592
H3    H     H_    0.711471 0.533053 0.040121 0.122449
H4    H     H_    0.285254 0.478538 0.950905 0.112592
H5    H     H_    0.788528 0.033049 0.959878 0.122454
H6    H     H_    0.214751 0.978543 0.049099 0.112593
H7    H     H_    0.211471 0.966948 0.459877 0.122447
H8    H     H_    0.785255 0.021463 0.549095 0.112592
C25   C     C_3   0.817868 0.496805 0.626859 -0.277490
C26   C     C_3   0.727185 0.591169 0.647896 -0.367053
C27   C     C_3   0.562651 0.582070 0.712069 -0.763198
H9    H     H_    0.443245 0.538686 0.686584 0.232422
H10   H     H_    0.617848 0.550622 0.771037 0.228054
H11   H     H_    0.502783 0.651484 0.726735 0.213754
H12   H     H_    0.841504 0.636753 0.674963 0.201298
H13   H     H_    0.666027 0.623894 0.590667 0.197996
H14   H     H_    0.705529 0.451111 0.598426 0.166415
H15   H     H_    0.861378 0.468399 0.688463 0.202184
C28   C     C_3   0.143321 0.646292 0.498406 -0.313459
C29   C     C_3   0.061242 0.740955 0.524879 -0.311473
C30   C     C_3   0.214383 0.798571 0.570934 -0.792527
H16   H     H_    0.349693 0.804248 0.532941 0.232341
H17   H     H_    0.155795 0.868711 0.583328 0.214977
H18   H     H_    0.250871 0.765966 0.632055 0.231011
H19   H     H_    0.008881 0.779091 0.469042 0.199051
H20   H     H_    0.934266 0.733018 0.567242 0.182621
H21   H     H_    0.258079 0.626606 0.544349 0.171455
H22   H     H_    0.221565 0.650827 0.437668 0.182213
C31   C     C_3   0.182133 0.503195 0.126858 -0.277484
C32   C     C_3   0.272807 0.408828 0.147897 -0.367039
C33   C     C_3   0.437344 0.417926 0.212070 -0.763157
H23   H     H_    0.556755 0.461310 0.186583 0.232413
H24   H     H_    0.382148 0.449376 0.271040 0.228044
H25   H     H_    0.497210 0.348510 0.226736 0.213748
H26   H     H_    0.158483 0.363246 0.174967 0.201290
H27   H     H_    0.333961 0.376099 0.090670 0.197989
H28   H     H_    0.294477 0.548885 0.098423 0.166409
H29   H     H_    0.138625 0.531603 0.188462 0.202181
C34   C     C_3   0.856680 0.353708 0.998406 -0.313457
C35   C     C_3   0.938762 0.259045 0.024879 -0.311474
C36   C     C_3   0.785623 0.201428 0.070935 -0.792526
H30   H     H_    0.650312 0.195752 0.032943 0.232341
H31   H     H_    0.844212 0.131288 0.083328 0.214978
H32   H     H_    0.749138 0.234032 0.132056 0.231009
H33   H     H_    0.991124 0.220909 0.969043 0.199050
H34   H     H_    0.065738 0.266983 0.067242 0.182620
H35   H     H_    0.741922 0.373394 0.044350 0.171453
H36   H     H_    0.778435 0.349173 0.937669 0.182213
C37   C     C_3   0.317868 0.003197 0.873138 -0.277479
C38   C     C_3   0.227171 0.908833 0.852106 -0.367045
C39   C     C_3   0.062647 0.917933 0.787928 -0.763177
H37   H     H_    0.943247 0.961328 0.813406 0.232421
H38   H     H_    0.117862 0.949370 0.728957 0.228046
H39   H     H_    0.002763 0.848519 0.773269 0.213752
H40   H     H_    0.341486 0.863242 0.825045 0.201300
H41   H     H_    0.166000 0.876115 0.909336 0.197989
H42   H     H_    0.205534 0.048896 0.901568 0.166417
H43   H     H_    0.361389 0.031596 0.811533 0.202176
C40   C     C_3   0.643301 0.853701 0.001588 -0.313462
C41   C     C_3   0.561198 0.759039 0.975124 -0.311472
C42   C     C_3   0.714306 0.701419 0.929054 -0.792540
H44   H     H_    0.849638 0.695740 0.967033 0.232343
H45   H     H_    0.655705 0.631280 0.916668 0.214977
H46   H     H_    0.750761 0.734021 0.867928 0.231014
H47   H     H_    0.508865 0.720904 0.030966 0.199056
H48   H     H_    0.434197 0.766978 0.932775 0.182618
H49   H     H_    0.758051 0.873381 0.955639 0.171459
H50   H     H_    0.721557 0.849166 0.062323 0.182205
C43   C     C_3   0.682135 0.996806 0.373142 -0.277485
C44   C     C_3   0.772807 0.091173 0.352102 -0.367032
C45   C     C_3   0.937346 0.082075 0.287930 -0.763157
H51   H     H_    0.056760 0.038694 0.313419 0.232410
H52   H     H_    0.882152 0.050622 0.228961 0.228045
H53   H     H_    0.997206 0.151493 0.273263 0.213748
H54   H     H_    0.658482 0.136754 0.325031 0.201289
H55   H     H_    0.833960 0.123904 0.409330 0.197987
H56   H     H_    0.794481 0.951117 0.401578 0.166407
H57   H     H_    0.638630 0.968396 0.311538 0.202181
C46   C     C_3   0.356679 0.146292 0.501594 -0.313458
C47   C     C_3   0.438760 0.240956 0.475121 -0.311464
C48   C     C_3   0.285620 0.298571 0.429062 -0.792518
H58   H     H_    0.150305 0.304246 0.467053 0.232337
H59   H     H_    0.344207 0.368711 0.416669 0.214976
H60   H     H_    0.249141 0.265966 0.367940 0.231007
H61   H     H_    0.491115 0.279092 0.530959 0.199048
H62   H     H_    0.565742 0.233019 0.432760 0.182615
H63   H     H_    0.241921 0.126606 0.455650 0.171453
H64   H     H_    0.278434 0.150827 0.562331 0.182211

loop_
_geom_bond_atom_site_label_1
_geom_bond_atom_site_label_2
_ccdc_geom_bond_type
O17   V3    S    
C34   C35   S    
O18   V4    S    
O12   V1    S    
O19   V1    S    
C17   C18   S    
C10   C18   D    
C25   H15   S    
C19   C20   S    
C47   C48   S    
C37   C38   S    
O15   V4    S    
C17   C28   S    
C5    C12   S    
C31   C32   S    
O16   V3    S    
C6    C11   S    
C14   H5    S    
O11   C3    A    
O8    V1    S    
C20   C31   S    
C46   H63   S    
C42   H45   S    
C29   H20   S    
C38   H40   S    
O1    V3    S    
C41   C42   S    
O3    C2    A    
O2    V4    S    
C41   H48   S    
C30   H17   S    
C44   C45   S    
C9    H2    S    
C32   H26   S    
C23   C24   S    
O11   V2    S    
C29   C30   S    
C10   H1    S    
C34   H35   S    
C40   C41   S    
C36   H31   S    
C11   C19   D    
C43   H57   S    
O9    V1    S    
C48   H60   S    
C37   H42   S    
C7    C10   S    
O15   C7    A    
C31   H28   S    
C27   H9    S    
O16   C8    A    
O7    V2    S    
C26   H13   S    
O3    V4    S    
C18   C25   S    
O5    V1    S    
C45   H52   S    
O17   V1    S    
C35   H34   S    
C27   H10   S    
O19   V3    S    
C28   C29   S    
O20   V4    S    
C46   H64   S    
C42   H46   S    
O14   V4    S    
C33   H24   S    
C32   C33   S    
C26   C27   S    
C21   C22   S    
C1    C16   S    
C41   H47   S    
C30   H18   S    
C2    C15   S    
C3    C14   S    
C47   H62   S    
O10   V2    S    
C15   H8    S    
C16   H7    S    
C34   H36   S    
O12   C4    A    
O8    C5    A    
O13   C5    A    
C44   H55   S    
C36   H32   S    
C40   H49   S    
C12   H3    S    
O4    C1    A    
O9    C1    A    
O6    V2    S    
C22   C37   S    
C31   H29   S    
O18   V2    S    
C12   C20   D    
C28   H21   S    
C13   H6    S    
C13   C21   D    
C46   C47   S    
C15   C23   D    
C48   H58   S    
C45   H53   S    
C26   H12   S    
C16   C24   D    
C35   H33   S    
C27   H11   S    
C39   H38   S    
O2    C3    A    
O13   V3    S    
C25   H14   S    
O1    C4    A    
C33   H25   S    
C45   H51   S    
C23   C46   S    
C24   C43   S    
O7    C6    A    
C43   C44   S    
C8    C9    S    
C39   H37   S    
C9    C17   D    
O14   C6    A    
O20   V2    S    
C29   H19   S    
C19   C34   S    
C47   H61   S    
C4    C13   S    
C25   C26   S    
O5    C8    A    
O10   C2    A    
C38   H41   S    
O6    C7    A    
C44   H54   S    
C30   H16   S    
C40   H50   S    
C14   C22   D    
O4    V3    S    
C33   H23   S    
C32   H27   S    
C39   H39   S    
C35   C36   S    
C38   C39   S    
C11   H4    S    
C28   H22   S    
C36   H30   S    
C42   H44   S    
C43   H56   S    
C21   C40   S    
C48   H59   S    
C37   H43   S    
