data_mof_unit_26592.cif
_audit_creation_date              2012-12-10T17:52:04-0500
_audit_creation_method            fapswitch 2.2
_symmetry_space_group_name_H-M    P1
_symmetry_Int_Tables_number       1
_space_group_crystal_system       triclinic
_cell_length_a                    14.697743
_cell_length_b                    14.72642
_cell_length_c                    19.330487
_cell_angle_alpha                 76.638774
_cell_angle_beta                  103.179609
_cell_angle_gamma                 114.743263
_cell_volume                      3655.98293331

loop_
_atom_site_label
_atom_site_type_symbol
_atom_type_description
_atom_site_fract_x
_atom_site_fract_y
_atom_site_fract_z
_atom_type_partial_charge
C1    C     C_R   0.880393 0.312314 0.512054 0.802530
C2    C     C_R   0.119581 0.687640 0.488201 0.801673
C3    C     C_R   0.813035 0.204864 0.519571 -0.053110
C4    C     C_R   0.186983 0.794765 0.485237 -0.053090
C5    C     C_R   0.784676 0.027606 0.538122 -0.198264
C6    C     C_R   0.216723 0.969388 0.483757 -0.197829
C7    C     C_R   0.851047 0.128681 0.533720 -0.193977
C8    C     C_R   0.149713 0.869556 0.480525 -0.194263
C9    C     C_R   0.708594 0.178937 0.511568 -0.254001
C10   C     C_R   0.291218 0.820991 0.491499 -0.248335
C11   C     C_R   0.640144 0.077552 0.517935 0.090467
C12   C     C_R   0.360768 0.920124 0.498207 0.091090
C13   C     C_R   0.679777 0.001596 0.529521 0.165606
C14   C     C_R   0.321639 0.995052 0.493091 0.166012
C15   C     C_R   0.533639 0.049956 0.511185 0.067461
C16   C     C_R   0.467570 0.946686 0.509800 0.066134
C17   C     C_R   0.510567 0.873299 0.521706 -0.223132
C18   C     C_R   0.491191 0.121880 0.507063 -0.221650
C19   C     C_R   0.614543 0.900498 0.531951 -0.236038
C20   C     C_R   0.387343 0.094650 0.498124 -0.236541
C21   C     C_R   0.719454 0.674932 0.385821 -0.301498
C22   C     C_R   0.281930 0.327297 0.616434 -0.303950
C23   C     C_R   0.000353 0.500491 0.632564 0.796797
C24   C     C_R   0.999654 0.499522 0.367433 0.795983
C25   C     C_R   0.798643 0.641738 0.401958 0.052867
C26   C     C_R   0.201824 0.359270 0.598919 0.053783
C27   C     C_R   0.714146 0.508347 0.488970 0.019184
C28   C     C_R   0.286191 0.491770 0.511400 0.018620
C29   C     C_R   0.629414 0.536917 0.474195 -0.052374
C30   C     C_R   0.371995 0.464706 0.527806 -0.051495
C31   C     C_R   0.634844 0.624174 0.422374 0.146814
C32   C     C_R   0.367065 0.378351 0.580436 0.147115
C33   C     C_R   0.541251 0.483333 0.509537 0.042075
C34   C     C_R   0.460742 0.518961 0.493235 0.040466
C35   C     C_R   0.472036 0.608629 0.443761 -0.263825
C36   C     C_R   0.530923 0.394983 0.560343 -0.263406
C37   C     C_R   0.556825 0.660494 0.408318 0.159049
C38   C     C_R   0.446286 0.343472 0.596019 0.156325
C39   C     C_R   0.081428 0.487612 0.760393 -0.223461
C40   C     C_R   0.918685 0.512572 0.239577 -0.223821
C41   C     C_R   0.086336 0.490886 0.832987 0.015808
C42   C     C_R   0.913823 0.509358 0.166977 0.015807
C43   C     C_R   0.009187 0.507447 0.854334 0.018860
C44   C     C_R   0.990947 0.492739 0.145644 0.018765
C45   C     C_R   0.931470 0.523789 0.802185 -0.170557
C46   C     C_R   0.068592 0.476282 0.197811 -0.170444
C47   C     C_R   0.928184 0.521410 0.730068 -0.189536
C48   C     C_R   0.071831 0.478600 0.269932 -0.189305
C49   C     C_R   0.002734 0.502656 0.708663 -0.049791
C50   C     C_R   0.997307 0.497407 0.291327 -0.050093
C51   C     C_R   0.994870 0.496093 0.069704 0.386581
C52   C     C_R   0.005302 0.504122 0.930274 0.386581
Cu1   Cu    Cu3+1 0.081740 0.475680 0.518680 0.935928
Cu2   Cu    Cu3+1 0.918260 0.524320 0.481320 0.935439
H1    H     H_    0.140837 0.475395 0.744189 0.156727
H2    H     H_    0.859299 0.524841 0.255767 0.156738
H3    H     H_    0.280769 0.552430 0.469537 0.121367
H4    H     H_    0.719063 0.446494 0.529779 0.122021
H5    H     H_    0.136087 0.318916 0.626143 0.126579
H6    H     H_    0.864218 0.682149 0.374572 0.127261
H7    H     H_    0.725544 0.740840 0.345274 0.167966
H8    H     H_    0.276191 0.262201 0.657696 0.166541
H9    H     H_    0.416525 0.641902 0.432312 0.123801
H10   H     H_    0.587637 0.363116 0.573415 0.122170
H11   H     H_    0.871706 0.536390 0.817493 0.154981
H12   H     H_    0.128335 0.463633 0.182517 0.155073
H13   H     H_    0.866823 0.533524 0.691211 0.154431
H14   H     H_    0.133136 0.466394 0.308802 0.154662
H15   H     H_    0.644043 0.841741 0.541096 0.147549
H16   H     H_    0.358263 0.152252 0.495247 0.146032
H17   H     H_    0.315901 0.762131 0.490730 0.142746
H18   H     H_    0.682349 0.239749 0.498310 0.149931
H19   H     H_    0.069163 0.850737 0.475464 0.153588
H20   H     H_    0.931699 0.147181 0.540142 0.152610
H21   H     H_    0.815308 0.969685 0.547718 0.133487
H22   H     H_    0.186600 0.026357 0.480202 0.133449
H23   H     H_    0.466452 0.793250 0.525349 0.145475
H24   H     H_    0.535986 0.199969 0.512571 0.140591
N1    N     N_R   0.971660 0.566550 0.949089 -0.238682
N2    N     N_R   0.028517 0.433669 0.050888 -0.238532
N3    N     N_R   0.967035 0.562936 0.017617 -0.219109
N4    N     N_R   0.033145 0.437285 0.982360 -0.219033
N5    N     N_R   0.795420 0.560800 0.453240 -0.175100
N6    N     N_R   0.204580 0.439200 0.546760 -0.174726
O1    O     O_R   0.977910 0.338110 0.524620 -0.588413
O2    O     O_R   0.022090 0.661890 0.475380 -0.588731
O3    O     O_R   0.839850 0.379180 0.493080 -0.589786
O4    O     O_R   0.160150 0.620820 0.506920 -0.588291
O5    O     O_R   0.069040 0.479450 0.615630 -0.583823
O6    O     O_R   0.930960 0.520550 0.384370 -0.583692
O7    O     O_R   0.930990 0.520520 0.584090 -0.584777
O8    O     O_R   0.069010 0.479480 0.415910 -0.584797
N7    N     N_3   0.564772 0.751949 0.358586 -0.601375
H25   H     H_    0.496525 0.762497 0.347567 0.221022
H26   H     H_    0.618575 0.812490 0.383845 0.216202
N8    N     N_3   0.440060 0.254212 0.647907 -0.600540
H27   H     H_    0.508212 0.243548 0.658460 0.221307
H28   H     H_    0.385242 0.191969 0.624953 0.213004
C53   C     C_R   0.175211 0.481433 0.884077 0.112036
C54   C     C_R   0.238036 0.558333 0.925331 -0.114859
C55   C     C_R   0.322012 0.549327 0.973146 -0.124671
C56   C     C_R   0.344368 0.464072 0.979751 -0.114907
C57   C     C_R   0.283043 0.387862 0.938319 -0.124017
C58   C     C_R   0.198910 0.396476 0.890489 -0.136359
H29   H     H_    0.221967 0.625120 0.920409 0.124671
H30   H     H_    0.369843 0.608520 0.005020 0.128200
H31   H     H_    0.409250 0.457104 0.016902 0.123791
H32   H     H_    0.300629 0.322016 0.943331 0.128591
H33   H     H_    0.151804 0.336658 0.858911 0.123639
C59   C     C_R   0.825021 0.518941 0.115861 0.112041
C60   C     C_R   0.801472 0.603994 0.109428 -0.136429
C61   C     C_R   0.717428 0.612747 0.061554 -0.124216
C62   C     C_R   0.656042 0.536582 0.020099 -0.114957
C63   C     C_R   0.678248 0.451232 0.026724 -0.124637
C64   C     C_R   0.762136 0.442087 0.074583 -0.114979
H34   H     H_    0.848631 0.663780 0.141022 0.123687
H35   H     H_    0.699959 0.678669 0.056525 0.128568
H36   H     H_    0.591230 0.543659 0.982913 0.123842
H37   H     H_    0.630371 0.392075 0.994830 0.128338
H38   H     H_    0.778095 0.375234 0.079515 0.124691

loop_
_geom_bond_atom_site_label_1
_geom_bond_atom_site_label_2
_ccdc_geom_bond_type
C1    O3    A    
C15   C18   A    
N7    H25   S    
C28   N6    A    
Cu2   O2    S    
C60   C61   A    
C9    H18   S    
C4    C8    A    
C63   C64   A    
Cu1   O5    S    
C39   C41   A    
C28   H3    S    
C21   C31   A    
C54   H29   S    
C55   C56   A    
Cu2   O3    S    
C22   C32   A    
C54   C55   A    
Cu1   N6    S    
C62   H36   S    
C35   C37   A    
C46   H12   S    
C3    C7    A    
C58   H33   S    
C43   C52   S    
C23   C49   S    
C22   H8    S    
C15   C16   A    
C29   C33   A    
C33   C36   A    
C27   C29   A    
C34   C35   A    
C47   H13   S    
C51   N2    A    
Cu2   N5    S    
C59   C60   A    
C11   C15   A    
C39   H1    S    
C12   C16   A    
C16   C17   A    
C40   H2    S    
N8    H28   S    
C41   C53   S    
C2    O4    A    
C60   H34   S    
C25   H6    S    
C32   C38   A    
C52   N1    A    
C26   H5    S    
C51   N3    A    
C21   H7    S    
C63   H37   S    
C10   H17   S    
C40   C42   A    
C53   C58   A    
N7    H26   S    
C1    O1    A    
C41   C43   A    
C20   H16   S    
C42   C44   A    
C24   O8    A    
C17   H23   S    
C61   C62   A    
C44   C46   A    
C7    H20   S    
C45   C47   A    
C24   C50   S    
C46   C48   A    
C30   C34   A    
C14   C20   A    
N2    N4    A    
N1    N3    A    
C13   C19   A    
C6    C8    A    
Cu1   Cu2   S    
C31   C37   A    
C1    C3    S    
C5    H21   S    
C2    C4    S    
C3    C9    A    
C6    C14   A    
C43   C45   A    
C53   C54   A    
C18   H24   S    
N8    H27   S    
Cu1   O8    S    
C23   O5    A    
C33   C34   A    
C37   N7    S    
C56   H31   S    
C48   H14   S    
C52   N4    A    
C9    C11   A    
C57   H32   S    
C10   C12   A    
Cu2   O6    S    
C44   C51   S    
C39   C49   A    
C12   C14   A    
C45   H11   S    
C23   O7    A    
C19   H15   S    
C4    C10   A    
C5    C7    A    
C62   C63   A    
C55   H30   S    
C21   C25   A    
C26   N6    A    
C5    C13   A    
C27   H4    S    
C24   O6    A    
Cu1   O1    S    
C6    H22   S    
C47   C49   A    
C36   C38   A    
C42   C59   S    
C28   C30   A    
C29   C31   A    
C30   C32   A    
C11   C13   A    
C61   H35   S    
C40   C50   A    
C48   C50   A    
C8    H19   S    
C17   C19   A    
C2    O2    A    
Cu1   O4    S    
C18   C20   A    
C56   C57   A    
C27   N5    A    
Cu2   O7    S    
C64   H38   S    
C22   C26   A    
C38   N8    S    
C57   C58   A    
C25   N5    A    
C35   H9    S    
C36   H10   S    
C59   C64   A    
