data_mof_unit_13470.cif
_audit_creation_date              2012-12-10T19:11:29-0500
_audit_creation_method            fapswitch 2.2
_symmetry_space_group_name_H-M    P1
_symmetry_Int_Tables_number       1
_space_group_crystal_system       triclinic
_cell_length_a                    10.622296
_cell_length_b                    9.780845
_cell_length_c                    10.487388
_cell_angle_alpha                 89.80886
_cell_angle_beta                  89.848143
_cell_angle_gamma                 90.110192
_cell_volume                      1089.5755748

loop_
_atom_site_label
_atom_site_type_symbol
_atom_type_description
_atom_site_fract_x
_atom_site_fract_y
_atom_site_fract_z
_atom_type_partial_charge
C1    C     C_R   0.257846 0.500209 0.499519 0.834261
C2    C     C_3   0.499856 0.501392 0.122354 0.010939
C3    C     C_3   0.071699 0.650648 0.495197 -0.393008
C4    C     C_3   0.071613 0.429823 0.621177 -0.395298
C5    C     C_3   0.928802 0.650813 0.494623 -0.403110
C6    C     C_3   0.927179 0.431000 0.621744 -0.402371
C7    C     C_3   0.072516 0.424385 0.379870 -0.408249
C8    C     C_3   0.121322 0.501213 0.498940 0.184351
C9    C     C_3   0.878693 0.501494 0.498925 0.191637
C10   C     C_3   0.927940 0.423925 0.380208 -0.403912
C11   C     C_3   0.391243 0.080883 0.424207 -0.378002
C12   C     C_3   0.392059 0.919194 0.423150 -0.357081
C13   C     C_3   0.613318 0.081549 0.432638 -0.278688
C14   C     C_3   0.614845 0.920217 0.435390 -0.302917
C15   C     C_3   0.492609 0.082541 0.630748 0.458495
C16   C     C_3   0.492028 0.917234 0.631350 0.386105
C17   C     C_R   0.499930 0.500387 0.257380 0.864766
C18   C     C_R   0.742311 0.500384 0.499356 0.828006
C19   C     C_R   0.500170 0.499593 0.742540 0.884583
C20   C     C_3   0.493539 0.630341 0.039742 -0.110475
C21   C     C_3   0.399659 0.429356 0.042941 -0.202604
C22   C     C_3   0.393344 0.558043 0.957603 -0.173070
C23   C     C_3   0.500103 0.498498 0.877620 0.030259
C24   C     C_3   0.600337 0.570526 0.957087 -0.162082
C25   C     C_3   0.506412 0.369577 0.960300 -0.106330
C26   C     C_3   0.606612 0.441784 0.042449 -0.206577
H1    H     H_    0.306127 0.604232 0.918708 0.147156
H2    H     H_    0.892603 0.473286 0.291453 0.151564
H3    H     H_    0.893485 0.316335 0.380882 0.169728
H4    H     H_    0.393559 0.119793 0.324384 0.188163
H5    H     H_    0.396655 0.882574 0.322897 0.185184
H6    H     H_    0.300294 0.117614 0.463607 0.158574
H7    H     H_    0.300959 0.880322 0.460812 0.159974
H8    H     H_    0.616044 0.117092 0.331704 0.164383
H9    H     H_    0.622806 0.881070 0.336185 0.169403
H10   H     H_    0.701241 0.122928 0.474179 0.152831
H11   H     H_    0.701924 0.885278 0.483413 0.151043
H12   H     H_    0.488234 0.736666 0.076141 0.142205
H13   H     H_    0.318092 0.372160 0.082809 0.134111
H14   H     H_    0.681833 0.627728 0.917081 0.142910
H15   H     H_    0.511732 0.263013 0.924789 0.191353
H16   H     H_    0.693238 0.394728 0.082018 0.130810
H17   H     H_    0.106860 0.704486 0.408307 0.167385
H18   H     H_    0.104779 0.322112 0.624935 0.192736
H19   H     H_    0.105379 0.708370 0.579860 0.190377
H20   H     H_    0.107660 0.482837 0.707548 0.162220
H21   H     H_    0.894128 0.709337 0.578624 0.172665
H22   H     H_    0.892464 0.486363 0.707493 0.157003
H23   H     H_    0.894956 0.703902 0.407058 0.170093
H24   H     H_    0.891578 0.324007 0.627919 0.182013
H25   H     H_    0.107874 0.474833 0.291391 0.153148
H26   H     H_    0.107225 0.317035 0.379508 0.171512
N1    N     N_3   0.499750 0.138610 0.497240 -0.083277
N2    N     N_3   0.499750 0.861390 0.497240 -0.102741
O1    O     O_R   0.314910 0.616040 0.499970 -0.633012
O2    O     O_R   0.314910 0.383960 0.499970 -0.633254
O3    O     O_R   0.500080 0.616020 0.313900 -0.632196
O4    O     O_R   0.500080 0.383980 0.313900 -0.626813
O5    O     O_R   0.685320 0.616040 0.499930 -0.657813
O6    O     O_R   0.685320 0.383960 0.499930 -0.618462
O7    O     O_R   0.500150 0.616060 0.686000 -0.615649
O8    O     O_R   0.500150 0.383940 0.686000 -0.571564
Zn1   Zn    Zn3+2 0.500150 0.654960 0.499940 0.908539
Zn2   Zn    Zn3+2 0.500150 0.345040 0.499940 0.940201
O9    O     O_3   0.593995 0.133950 0.703480 -0.742270
H27   H     H_    0.674269 0.093280 0.674579 0.345567
O10   O     O_3   0.593881 0.872171 0.707332 -0.785474
H28   H     H_    0.641912 0.799721 0.663690 0.362679
C27   C     C_1   0.378432 0.137999 0.694543 0.198586
N3    N     N_1   0.289824 0.180655 0.744955 -0.260660
C28   C     C_1   0.377363 0.861062 0.694481 0.226197
N4    N     N_1   0.288000 0.818035 0.743757 -0.266755

loop_
_geom_bond_atom_site_label_1
_geom_bond_atom_site_label_2
_ccdc_geom_bond_type
C7    C10   S    
C1    C8    S    
C4    C8    S    
C6    C9    S    
C7    C8    S    
C4    H20   S    
C5    H21   S    
C3    H17   S    
C6    H22   S    
C15   N1    S    
C1    O2    A    
C24   C26   S    
C7    H26   S    
N1    Zn2   S    
N2    Zn1   S    
C19   O8    A    
C15   C16   S    
C15   O9    S    
O7    Zn1   S    
O8    Zn2   S    
C20   C24   S    
C11   H4    S    
O1    Zn1   S    
C23   C24   S    
O2    Zn2   S    
C9    C10   S    
C11   N1    S    
C17   O4    A    
C21   C22   S    
C2    C17   S    
C5    H23   S    
C16   C28   S    
O3    Zn1   S    
C13   N1    S    
O4    Zn2   S    
C15   C27   S    
C2    C20   S    
O10   H28   S    
C13   H10   S    
C4    C6    S    
C3    C8    S    
C25   H15   S    
C14   H9    S    
C4    H18   S    
C25   C26   S    
C3    H19   S    
C19   C23   S    
C5    C9    S    
C20   H12   S    
C18   O5    A    
C21   H13   S    
C2    C21   S    
C2    C26   S    
C16   O10   S    
C6    H24   S    
C18   O6    A    
C14   N2    S    
C20   C22   S    
C11   H6    S    
C22   H1    S    
C12   H5    S    
C26   H16   S    
C10   H2    S    
C21   C25   S    
C3    C5    S    
C11   C12   S    
O5    Zn1   S    
O6    Zn2   S    
C1    O1    A    
C7    H25   S    
C28   N4    T    
C14   H11   S    
C10   H3    S    
C19   O7    A    
C24   H14   S    
C23   C25   S    
C27   N3    T    
C16   N2    S    
C9    C18   S    
C13   H8    S    
O9    H27   S    
C22   C23   S    
C12   H7    S    
C13   C14   S    
C12   N2    S    
C17   O3    A    
