data_mof_unit_5146.cif
_audit_creation_date              2012-12-11T18:05:03-0500
_audit_creation_method            fapswitch 2.2
_symmetry_space_group_name_H-M    P1
_symmetry_Int_Tables_number       1
_space_group_crystal_system       triclinic
_cell_length_a                    8.237993
_cell_length_b                    12.764253
_cell_length_c                    22.830838
_cell_angle_alpha                 96.916735
_cell_angle_beta                  89.210209
_cell_angle_gamma                 98.66847
_cell_volume                      2355.98546232

loop_
_atom_site_label
_atom_site_type_symbol
_atom_type_description
_atom_site_fract_x
_atom_site_fract_y
_atom_site_fract_z
_atom_type_partial_charge
Ba1   Ba    Ba6+2 0.856210 0.551220 0.472190 1.649729
Ba2   Ba    Ba6+2 0.333620 0.448870 0.527810 1.673124
C1    C     C_3   0.549381 0.890818 0.286912 -0.365546
C2    C     C_3   0.606006 0.818561 0.328310 0.323862
C3    C     C_3   0.473590 0.283409 0.349282 0.296086
C4    C     C_3   0.450824 0.248056 0.283467 -0.388366
C5    C     C_3   0.959885 0.146017 0.684200 0.287128
C6    C     C_3   0.994887 0.118686 0.745249 -0.297798
C7    C     C_3   0.489657 0.176373 0.685617 0.394064
C8    C     C_3   0.476449 0.100394 0.732468 -0.376895
C9    C     C_R   0.347781 0.519385 0.331350 -0.282274
C10   C     C_R   0.097492 0.590430 0.941374 -0.026535
C11   C     C_R   0.051578 0.584361 0.881128 0.591193
C12   C     C_3   0.113335 0.775181 0.311668 0.308309
C13   C     C_R   0.984466 0.393820 0.875858 0.587343
C14   C     C_R   0.025001 0.397613 0.936177 -0.020574
C15   C     C_R   0.082047 0.496464 0.969087 -0.052898
C16   C     C_R   0.157623 0.688377 0.974792 -0.074367
C17   C     C_R   0.201728 0.692818 0.034210 -0.075795
C18   C     C_R   0.185647 0.599610 0.062545 -0.019154
C19   C     C_R   0.124632 0.501169 0.029870 -0.051983
C20   C     C_R   0.010048 0.304289 0.964315 -0.076387
C21   C     C_R   0.050064 0.309039 0.023995 -0.077174
C22   C     C_R   0.107749 0.407178 0.057552 -0.023987
C23   C     C_3   0.080849 0.803265 0.250456 -0.324537
C24   C     C_R   0.150335 0.413064 0.117924 0.586627
C25   C     C_R   0.229806 0.602655 0.122643 0.574519
C26   C     C_2   0.797396 0.423520 0.768079 -0.089936
C27   C     C_3   0.763132 0.394013 0.702763 -0.065335
C28   C     C_1   0.007296 0.521994 0.685288 0.037958
C29   C     C_2   0.054481 0.531004 0.741668 -0.080489
C30   C     C_2   0.943570 0.480579 0.786966 0.217277
C31   C     C_R   0.414818 0.557080 0.231560 -0.104640
C32   C     C_R   0.459855 0.559910 0.290793 -0.011567
C33   C     C_R   0.189979 0.473307 0.313920 -0.007937
C34   C     C_3   0.223701 0.777637 0.596676 0.290364
C35   C     C_R   0.140774 0.473375 0.254628 -0.123547
C36   C     C_R   0.253854 0.514453 0.212470 0.227159
C37   C     C_2   0.869207 0.463814 0.664553 -0.266383
C38   C     C_R   0.758376 0.180323 0.525721 -0.258599
C39   C     C_R   0.434519 0.810547 0.475680 -0.287190
C40   C     C_R   0.408186 0.988602 0.456555 -0.097121
C41   C     C_R   0.345925 0.880645 0.452973 -0.001975
C42   C     C_R   0.578412 0.848239 0.507767 0.066307
C43   C     C_R   0.640307 0.959624 0.515018 -0.059697
C44   C     C_R   0.554400 0.030144 0.487825 -0.060171
C45   C     C_3   0.240367 0.898116 0.611205 -0.357752
C46   C     C_R   0.616202 0.140522 0.493178 0.050000
C47   C     C_R   0.848575 0.111974 0.549574 -0.035486
C48   C     C_R   0.787542 0.002715 0.546303 -0.102560
C49   C     C_3   0.913939 0.225390 0.312413 0.665658
C50   C     C_3   0.002761 0.218363 0.252621 -0.373032
C51   C     C_3   0.713909 0.689075 0.646245 0.296548
C52   C     C_3   0.734272 0.717884 0.712612 -0.359574
H1    H     H_    0.676724 0.867853 0.365395 0.040294
H2    H     H_    0.328537 0.924979 0.648112 0.109289
H3    H     H_    0.285837 0.937994 0.572463 0.084335
H4    H     H_    0.119230 0.921542 0.624165 0.134424
H5    H     H_    0.815363 0.274189 0.309058 0.035977
H6    H     H_    0.929109 0.246724 0.219045 0.107712
H7    H     H_    0.019055 0.135249 0.235999 0.114413
H8    H     H_    0.125599 0.266755 0.255879 0.092978
H9    H     H_    0.829398 0.665418 0.627689 0.007676
H10   H     H_    0.612802 0.621135 0.637761 0.085679
H11   H     H_    0.474842 0.946988 0.311584 0.105782
H12   H     H_    0.840371 0.782279 0.722379 0.127809
H13   H     H_    0.755855 0.647119 0.733491 0.074893
H14   H     H_    0.621270 0.745652 0.731733 0.133677
H15   H     H_    0.494367 0.775286 0.347440 -0.052374
H16   H     H_    0.473674 0.841574 0.250904 0.136953
H17   H     H_    0.355207 0.303914 0.367420 0.026957
H18   H     H_    0.569598 0.354996 0.355613 0.037217
H19   H     H_    0.351808 0.178429 0.276168 0.122704
H20   H     H_    0.418265 0.314487 0.261010 0.069274
H21   H     H_    0.565225 0.224194 0.263605 0.128860
H22   H     H_    0.656173 0.937097 0.266894 0.149132
H23   H     H_    0.058907 0.729185 0.219100 0.130264
H24   H     H_    0.926548 0.227555 0.688583 0.018629
H25   H     H_    0.855438 0.086627 0.665378 -0.026835
H26   H     H_    0.097423 0.177038 0.766238 0.169096
H27   H     H_    0.883540 0.121025 0.773049 0.113199
H28   H     H_    0.028669 0.037155 0.741955 0.097070
H29   H     H_    0.620999 0.190646 0.672612 -0.131688
H30   H     H_    0.418262 0.137156 0.645978 0.079436
H31   H     H_    0.542177 0.140593 0.773136 0.126610
H32   H     H_    0.533327 0.028865 0.716219 0.072449
H33   H     H_    0.016554 0.709954 0.321333 0.126528
H34   H     H_    0.345699 0.074880 0.743045 0.128570
H35   H     H_    0.036003 0.235205 0.043765 0.121484
H36   H     H_    0.966505 0.226915 0.940269 0.120338
H37   H     H_    0.247953 0.769927 0.058030 0.120868
H38   H     H_    0.504418 0.588542 0.200547 0.105359
H39   H     H_    0.171375 0.762193 0.955020 0.122312
H40   H     H_    0.175339 0.572847 0.755011 0.118381
H41   H     H_    0.712798 0.386630 0.799151 0.101924
H42   H     H_    0.016651 0.440058 0.241036 0.099629
H43   H     H_    0.385299 0.521520 0.376777 0.075834
H44   H     H_    0.234020 0.746767 0.311693 -0.030111
H45   H     H_    0.842644 0.450576 0.617592 0.074239
H46   H     H_    0.338258 0.039244 0.436116 0.097794
H47   H     H_    0.859002 0.952849 0.566780 0.104261
H48   H     H_    0.806694 0.264447 0.528231 0.066700
H49   H     H_    0.385048 0.726476 0.471664 0.066736
H50   H     H_    0.970170 0.842947 0.250417 0.135317
H51   H     H_    0.187098 0.857846 0.235628 0.121959
H52   H     H_    0.345177 0.755262 0.584805 0.000065
H53   H     H_    0.137414 0.752995 0.558920 0.073300
N1    N     N_R   0.994536 0.486696 0.848866 -0.423198
N2    N     N_R   0.208102 0.510319 0.150380 -0.423000
O1    O     O_2   0.890290 0.440320 0.360790 -0.486945
O2    O     O_3   0.677636 0.778182 0.621626 -0.642459
O3    O     O_3   0.109883 0.865214 0.353197 -0.637302
O4    O     O_2   0.299410 0.559720 0.639240 -0.452203
O5    O     O_3   0.058870 0.558650 0.568170 -0.502313
O6    O     O_3   0.517310 0.362160 0.604450 -0.470618
O7    O     O_3   0.166315 0.730849 0.646744 -0.629548
O8    O     O_3   0.614910 0.369290 0.471050 -0.476953
O9    O     O_3   0.099190 0.306290 0.575790 -0.455346
O10   O     O_2   0.185650 0.117102 0.539623 -0.483725
O11   O     O_3   0.100744 0.141710 0.649332 -0.585176
O12   O     O_3   0.130840 0.441440 0.431840 -0.456210
O13   O     O_3   0.574800 0.630800 0.528960 -0.491821
O14   O     O_2   0.344900 0.234690 0.472540 -0.453678
O15   O     O_3   0.521139 0.199634 0.376188 -0.618689
O16   O     O_2   0.463664 0.477093 0.707381 -0.485320
O17   O     O_3   0.425324 0.269575 0.708137 -0.564015
O18   O     O_2   0.060396 0.666253 0.857775 -0.596946
O19   O     O_2   0.941309 0.307195 0.847181 -0.624119
O20   O     O_2   0.139239 0.331041 0.141207 -0.612753
O21   O     O_2   0.288008 0.687749 0.150162 -0.622264
O22   O     O_3   0.672400 0.637930 0.395560 -0.472861
O23   O     O_2   0.799632 0.562899 0.292416 -0.511457
O24   O     O_3   0.021386 0.268502 0.360548 -0.657817
O25   O     O_3   0.708016 0.751817 0.297190 -0.604273
O26   O     O_2   0.844800 0.765340 0.527490 -0.466221
O27   O     O_3   0.090520 0.693800 0.424220 -0.490752
O28   O     O_2   0.012683 0.881982 0.463047 -0.488901
P1    P     P_3+3 0.057140 0.408270 0.369700 0.970438
P2    P     P_3+3 0.667360 0.749400 0.544670 0.972748
P3    P     P_3+3 0.140095 0.830763 0.423688 0.923430
P4    P     P_3+3 0.132580 0.591820 0.630310 0.990615
P5    P     P_3+3 0.056130 0.167895 0.578336 0.973761
P6    P     P_3+3 0.661541 0.623832 0.318502 0.951692
P7    P     P_3+3 0.528402 0.234906 0.452686 0.970407
P8    P     P_3+3 0.542525 0.379335 0.681229 0.977806
O29   O     O_3   0.832414 0.122868 0.321730 -0.665917
C53   C     C_3   0.942998 0.059210 0.341048 0.267823
H54   H     H_    0.071345 0.079350 0.325239 0.044123
H55   H     H_    0.901711 0.975469 0.322863 0.089314
C54   C     C_3   0.942513 0.067359 0.407892 -0.192872
H56   H     H_    0.843822 0.007492 0.422287 0.082728
H57   H     H_    0.063131 0.054840 0.423951 0.108244
H58   H     H_    0.921288 0.147171 0.427938 0.103175

loop_
_geom_bond_atom_site_label_1
_geom_bond_atom_site_label_2
_ccdc_geom_bond_type
O12   P1    S    
C8    H31   S    
C49   O24   S    
O3    P3    S    
C53   H54   S    
O27   P3    S    
Ba2   O9    S    
O2    P2    S    
C5    C6    S    
C51   C52   S    
C12   O3    S    
C3    O15   S    
C8    H34   S    
C28   P4    S    
C26   H41   S    
C23   H23   S    
C5    H25   S    
C26   C27   S    
C53   H55   S    
C22   C24   A    
C12   H33   S    
C16   C17   A    
C3    H18   S    
C50   H7    S    
C33   P1    S    
C27   P8    S    
C28   C29   D    
C51   H10   S    
C52   H14   S    
C38   C47   A    
C46   P7    S    
C34   C45   S    
Ba1   Ba2   S    
C40   C44   A    
Ba1   O13   S    
O10   P5    D    
C50   H6    S    
O25   P6    S    
Ba2   O8    S    
C17   C18   A    
C14   C15   A    
C54   H58   S    
O14   P7    D    
C21   C22   A    
C21   H35   S    
C12   H44   S    
Ba1   O27   S    
C7    C8    S    
Ba1   P2    S    
C51   O2    S    
O23   P6    D    
O24   P1    S    
C34   H53   S    
C39   C41   A    
C1    H11   S    
C11   N1    Am   
C2    H15   S    
O17   P8    S    
C4    H20   S    
Ba2   O13   S    
O28   P3    D    
C44   C46   A    
C32   P6    S    
C23   H51   S    
C6    H27   S    
O5    P4    S    
C4    H21   S    
C1    H16   S    
O11   P5    S    
C31   H38   S    
C52   H13   S    
C7    H30   S    
C49   O29   S    
O9    P5    S    
Ba2   O14   S    
C34   H52   S    
C15   C19   A    
C49   C50   S    
C35   H42   S    
C13   N1    Am   
C10   C15   A    
O26   P2    D    
C35   C36   A    
C40   H46   S    
Ba1   O1    S    
C45   H3    S    
Ba2   O6    S    
C37   H45   S    
C29   C30   S    
C26   C30   D    
C16   H39   S    
C47   P5    S    
C27   C37   S    
C31   C32   A    
C20   H36   S    
C41   P3    S    
Ba1   O8    S    
C10   C11   A    
C36   N2    S    
C1    H22   S    
C24   N2    Am   
C24   O20   D    
C7    H29   S    
C5    H24   S    
O1    P1    D    
C42   P2    S    
C13   O19   D    
C2    H1    S    
C30   N1    S    
C39   C42   A    
C6    H28   S    
C49   H5    S    
Ba1   O5    S    
C1    C2    S    
C34   O7    S    
C53   C54   S    
O22   P6    S    
C42   C43   A    
C4    H19   S    
C2    O25   S    
O29   C53   S    
Ba2   O12   S    
C38   C46   A    
C8    H32   S    
C14   C20   A    
C33   C35   A    
C20   C21   A    
C5    O11   S    
C9    C32   A    
C31   C36   A    
Ba1   O22   S    
O13   P2    S    
C23   H50   S    
C52   H12   S    
C18   C25   A    
C29   H40   S    
O6    P8    S    
C7    O17   S    
C9    H43   S    
C9    C33   A    
C3    H17   S    
C50   H8    S    
C45   H4    S    
C39   H49   S    
C51   H9    S    
C3    C4    S    
C43   C48   A    
Ba2   P4    S    
Ba2   O4    S    
O4    P4    D    
C28   C37   D    
C54   H57   S    
C12   C23   S    
Ba1   O12   S    
C17   H37   S    
Ba2   O5    S    
C38   H48   S    
O7    P4    S    
C11   O18   D    
C43   C44   A    
C18   C19   A    
C25   N2    Am   
C48   H47   S    
O8    P7    S    
C47   C48   A    
C40   C41   A    
C19   C22   A    
C10   C16   A    
C6    H26   S    
C25   O21   D    
C54   H56   S    
O15   P7    S    
O16   P8    D    
Ba1   O26   S    
Ba1   P1    S    
C13   C14   A    
C45   H2    S    
