data_mof_unit_15753.cif
_audit_creation_date              2012-12-10T18:23:10-0500
_audit_creation_method            fapswitch 2.2
_symmetry_space_group_name_H-M    P1
_symmetry_Int_Tables_number       1
_space_group_crystal_system       triclinic
_cell_length_a                    15.013572
_cell_length_b                    14.010451
_cell_length_c                    10.505123
_cell_angle_alpha                 89.612503
_cell_angle_beta                  89.918273
_cell_angle_gamma                 89.956088
_cell_volume                      2209.66679683

loop_
_atom_site_label
_atom_site_type_symbol
_atom_type_description
_atom_site_fract_x
_atom_site_fract_y
_atom_site_fract_z
_atom_type_partial_charge
C1    C     C_R   0.326474 0.500029 0.499529 0.885696
C2    C     C_R   0.953853 0.675269 0.496482 0.459809
C3    C     C_R   0.558214 0.798462 0.423230 -0.065769
C4    C     C_R   0.442487 0.201515 0.577841 -0.063442
C5    C     C_R   0.442298 0.797789 0.577543 -0.062043
C6    C     C_R   0.558029 0.202205 0.422953 -0.060185
C7    C     C_R   0.441231 0.898441 0.579914 0.016908
C8    C     C_R   0.559742 0.101540 0.421559 0.013713
C9    C     C_R   0.559873 0.899132 0.421754 0.009768
C10   C     C_R   0.441426 0.100837 0.580199 0.017898
C11   C     C_R   0.500562 0.949375 0.500845 0.085805
C12   C     C_R   0.673499 0.499988 0.499055 0.885842
C13   C     C_R   0.500562 0.050601 0.500844 0.087708
C14   C     C_R   0.382680 0.949138 0.659220 -0.202915
C15   C     C_R   0.618958 0.050835 0.343265 -0.207291
C16   C     C_R   0.619077 0.950517 0.343445 -0.204054
C17   C     C_R   0.383021 0.049433 0.659694 -0.221040
C18   C     C_R   0.500008 0.500371 0.257081 0.870190
C19   C     C_R   0.499997 0.499629 0.742917 0.867803
C20   C     C_3   0.500571 0.591195 0.039184 -0.136306
C21   C     C_3   0.499441 0.408807 0.960811 -0.138792
C22   C     C_3   0.573602 0.544404 0.957004 -0.175722
C23   C     C_R   0.953606 0.500311 0.495632 -0.001635
C24   C     C_3   0.426411 0.455599 0.042991 -0.175735
C25   C     C_3   0.426962 0.545561 0.957299 -0.181976
C26   C     C_3   0.573051 0.454441 0.042697 -0.180430
C27   C     C_3   0.499994 0.498885 0.877829 0.026455
C28   C     C_3   0.500017 0.501117 0.122167 0.027005
C29   C     C_R   0.814870 0.586977 0.495859 -0.232425
C30   C     C_R   0.185025 0.413149 0.494960 -0.232937
C31   C     C_R   0.769312 0.500067 0.496555 -0.095503
C32   C     C_R   0.230610 0.500025 0.497671 -0.095314
C33   C     C_R   0.815137 0.413352 0.494558 -0.223841
C34   C     C_R   0.046296 0.499861 0.496073 -0.001074
C35   C     C_R   0.184772 0.586790 0.498030 -0.223110
C36   C     C_R   0.907190 0.412820 0.493974 0.077253
C37   C     C_R   0.092697 0.587384 0.496972 0.078052
C38   C     C_3   0.095656 0.195847 0.603719 0.076765
C39   C     C_3   0.146007 0.102034 0.592875 -0.815897
C40   C     C_3   0.904264 0.802578 0.609244 0.076339
C41   C     C_3   0.845792 0.891206 0.602559 -0.806977
C42   C     C_R   0.907213 0.588164 0.495734 0.016671
C43   C     C_R   0.092676 0.411987 0.494472 0.014656
C44   C     C_R   0.953144 0.326073 0.491216 -0.328423
C45   C     C_R   0.046691 0.674209 0.495941 -0.329815
C46   C     C_R   0.045930 0.324915 0.492819 0.460773
H1    H     H_    0.367604 0.582457 0.917586 0.131834
H2    H     H_    0.220596 0.653987 0.499283 0.158876
H3    H     H_    0.917226 0.259047 0.487277 0.160858
H4    H     H_    0.082608 0.741311 0.493911 0.160459
H5    H     H_    0.603270 0.758464 0.363198 0.136421
H6    H     H_    0.397521 0.241493 0.638042 0.130446
H7    H     H_    0.397244 0.757264 0.637588 0.129815
H8    H     H_    0.602954 0.242733 0.362713 0.130505
H9    H     H_    0.336694 0.911260 0.720952 0.139163
H10   H     H_    0.665132 0.088736 0.281849 0.142081
H11   H     H_    0.665358 0.913151 0.282203 0.150054
H12   H     H_    0.632409 0.417547 0.082412 0.133033
H13   H     H_    0.337464 0.086789 0.722029 0.142628
H14   H     H_    0.028001 0.180281 0.642301 0.142352
H15   H     H_    0.132269 0.242512 0.671386 0.131948
H16   H     H_    0.213084 0.115033 0.551632 0.262617
H17   H     H_    0.153513 0.068805 0.688539 0.198361
H18   H     H_    0.108996 0.052236 0.530415 0.260683
H19   H     H_    0.971733 0.824146 0.642205 0.142656
H20   H     H_    0.874192 0.752272 0.679908 0.134361
H21   H     H_    0.777668 0.871680 0.570806 0.257090
H22   H     H_    0.841465 0.924505 0.697981 0.203176
H23   H     H_    0.501061 0.665516 0.075218 0.144566
H24   H     H_    0.874575 0.943692 0.534341 0.259006
H25   H     H_    0.498949 0.334487 0.924774 0.144318
H26   H     H_    0.633421 0.580348 0.917078 0.135266
H27   H     H_    0.366590 0.419658 0.082914 0.139605
H28   H     H_    0.778261 0.653672 0.496506 0.200353
H29   H     H_    0.221610 0.346447 0.493954 0.200601
H30   H     H_    0.779322 0.346140 0.493867 0.158197
N1    N     N_R   0.500000 0.750030 0.500000 -0.102763
N2    N     N_R   0.500000 0.249970 0.500000 -0.101981
O1    O     O_R   0.367850 0.580280 0.500030 -0.627966
O2    O     O_3   0.908902 0.761251 0.487304 -0.611539
O3    O     O_R   0.632150 0.419720 0.499970 -0.628458
O4    O     O_R   0.632150 0.580280 0.499970 -0.629593
O5    O     O_R   0.367850 0.419720 0.500030 -0.628325
O6    O     O_R   0.499970 0.580260 0.313950 -0.627648
O7    O     O_R   0.500030 0.419740 0.686050 -0.628616
O8    O     O_R   0.500030 0.580260 0.686050 -0.622425
O9    O     O_R   0.499970 0.419740 0.313950 -0.621190
O10   O     O_3   0.090571 0.238971 0.482174 -0.607322
Zn1   Zn    Zn3+2 0.500000 0.607200 0.500000 0.941420
Zn2   Zn    Zn3+2 0.500000 0.392800 0.500000 0.942621

loop_
_geom_bond_atom_site_label_1
_geom_bond_atom_site_label_2
_ccdc_geom_bond_type
C44   H3    S    
C21   C26   S    
C8    C13   A    
C29   C42   A    
C34   C37   A    
C19   O8    A    
C41   H21   S    
N2    Zn2   S    
C7    C11   A    
C39   H18   S    
N1    Zn1   S    
C23   C42   A    
C4    H6    S    
C5    H7    S    
C35   C37   A    
C9    C16   A    
C38   C39   S    
C24   H27   S    
C6    N2    A    
C20   C25   S    
C10   C17   A    
C15   C16   A    
C33   C36   A    
O5    Zn2   S    
C7    C14   A    
C18   O6    A    
C31   C33   A    
C19   C27   S    
C25   H1    S    
C38   H15   S    
C14   H9    S    
C21   C27   S    
C40   H20   S    
C14   C17   A    
C6    H8    S    
C35   H2    S    
C22   H26   S    
C44   C46   A    
C41   H22   S    
C46   O10   S    
C2    C45   A    
C32   C35   A    
C18   C28   S    
C24   C25   S    
C5    C7    A    
C3    H5    S    
C6    C8    A    
C29   H28   S    
C20   C28   S    
C10   C13   A    
C1    C32   S    
C38   O10   S    
C4    N2    A    
C3    C9    A    
C26   H12   S    
C33   H30   S    
C23   C34   A    
C40   O2    S    
C12   O4    A    
C9    C11   A    
C17   H13   S    
C38   H14   S    
O3    Zn2   S    
C40   C41   S    
C20   C22   S    
C8    C15   A    
C40   H19   S    
C12   C31   S    
C1    O1    A    
C30   C43   A    
C36   C44   A    
C25   C27   S    
O6    Zn1   S    
C21   C24   S    
C37   C45   A    
C3    N1    A    
C21   H25   S    
C39   H16   S    
C34   C43   A    
C24   C28   S    
C4    C10   A    
C19   O7    A    
O8    Zn1   S    
O7    Zn2   S    
C1    O5    A    
C39   H17   S    
C26   C28   S    
C18   O9    A    
C22   C27   S    
C15   H10   S    
C29   C31   A    
C30   C32   A    
C30   H29   S    
C11   C13   A    
O4    Zn1   S    
C45   H4    S    
C2    C42   A    
C12   O3    A    
C16   H11   S    
C20   H23   S    
C43   C46   A    
O1    Zn1   S    
C2    O2    S    
C23   C36   A    
C22   C26   S    
O9    Zn2   S    
C5    N1    A    
C41   H24   S    
