data_mof_unit_8661.cif
_audit_creation_date              2012-12-10T16:59:19-0500
_audit_creation_method            fapswitch 2.2
_symmetry_space_group_name_H-M    P1
_symmetry_Int_Tables_number       1
_space_group_crystal_system       triclinic
_cell_length_a                    7.73982
_cell_length_b                    8.583046
_cell_length_c                    27.188222
_cell_angle_alpha                 91.689337
_cell_angle_beta                  85.327498
_cell_angle_gamma                 93.782311
_cell_volume                      1795.69579617

loop_
_atom_site_label
_atom_site_type_symbol
_atom_type_description
_atom_site_fract_x
_atom_site_fract_y
_atom_site_fract_z
_atom_type_partial_charge
C1    C     C_R   0.546222 0.794225 0.502273 0.858560
C2    C     C_R   0.738079 0.413019 0.128196 -0.107722
C3    C     C_R   0.501996 0.494371 0.649105 -0.344700
C4    C     C_R   0.490660 0.450632 0.354217 -0.311035
C5    C     C_R   0.717407 0.440646 0.026552 -0.064535
C6    C     C_R   0.480924 0.238659 0.976368 -0.018286
C7    C     C_R   0.516915 0.206293 0.025561 0.037183
C8    C     C_R   0.670765 0.480970 0.979594 -0.098650
C9    C     C_R   0.623422 0.315957 0.051221 -0.075873
C10   C     C_R   0.564774 0.372797 0.953103 -0.074711
C11   C     C_R   0.858383 0.517513 0.049570 0.375203
C12   C     C_R   0.455308 0.205835 0.504237 0.890892
C13   C     C_R   0.349383 0.153778 0.951234 0.435347
C14   C     C_R   0.858963 0.515410 0.101509 0.366824
C15   C     C_R   0.351059 0.162741 0.899445 0.345388
C16   C     C_R   0.501136 0.500151 0.594759 0.889139
C17   C     C_R   0.498152 0.496184 0.405849 0.999369
C18   C     C_R   0.709824 0.632980 0.960320 0.483686
C19   C     C_R   0.459398 0.064936 0.049634 0.373357
C20   C     C_2   0.574743 0.957082 0.507556 0.184169
C21   C     C_2   0.435210 0.045382 0.515026 0.198426
C22   C     C_R   0.593357 0.560827 0.830920 0.541772
C23   C     C_R   0.537361 0.402270 0.903517 -0.196504
C24   C     C_R   0.500046 0.205716 0.179729 0.594510
C25   C     C_R   0.440527 0.311108 0.824568 0.685174
C26   C     C_R   0.715148 0.417835 0.179953 0.672777
C27   C     C_R   0.347591 0.466823 0.730766 0.462264
C28   C     C_R   0.486535 0.515381 0.268388 0.453660
C29   C     C_R   0.344157 0.469393 0.679101 0.309914
C30   C     C_R   0.478664 0.562314 0.318306 0.334333
C31   C     C_R   0.660771 0.510157 0.671625 0.419154
C32   C     C_R   0.513969 0.293674 0.340471 0.414728
C33   C     C_R   0.662095 0.484019 0.721942 -0.308946
C34   C     C_R   0.632112 0.304216 0.102426 -0.244435
C35   C     C_R   0.544145 0.252366 0.290722 -0.251455
C36   C     C_R   0.507332 0.464600 0.751644 0.060223
C37   C     C_R   0.534325 0.363025 0.254563 0.015202
C38   C     C_3   0.872689 0.701389 0.655603 -0.162233
C39   C     C_3   0.360931 0.101306 0.383149 -0.249039
C40   C     C_3   0.632712 0.792640 0.327682 -0.216186
C41   C     C_3   0.102229 0.307464 0.666315 -0.098008
C42   C     C_3   0.298238 0.600577 0.217326 -0.108152
C43   C     C_3   0.152125 0.609759 0.775382 -0.226254
C44   C     C_3   0.150086 0.524599 0.024495 -0.262149
C45   C     C_R   0.605288 0.543236 0.881765 -0.197851
C46   C     C_3   0.051600 0.131337 0.970023 -0.188584
C47   C     C_3   0.818723 0.041402 0.543921 -0.190466
C48   C     C_3   0.270521 0.986406 0.585435 -0.394518
C49   C     C_R   0.528151 0.188185 0.128218 -0.082710
C50   C     C_R   0.680180 0.662653 0.911735 0.439567
C51   C     C_R   0.458658 0.058582 0.101786 0.361339
C52   C     C_R   0.443907 0.289529 0.875520 -0.113260
H1    H     H_    0.784898 0.484548 0.738421 0.208696
H2    H     H_    0.069436 0.717018 0.553825 0.353316
H3    H     H_    0.610659 0.844516 0.880928 0.364478
H4    H     H_    0.434499 0.833025 0.107042 0.320305
H5    H     H_    0.688067 0.794648 0.288615 0.218773
H6    H     H_    0.721882 0.737259 0.351103 0.150761
H7    H     H_    0.625095 0.915223 0.340829 0.215559
H8    H     H_    0.004559 0.313840 0.698360 0.201061
H9    H     H_    0.191952 0.214780 0.672457 0.100872
H10   H     H_    0.031756 0.271142 0.633501 0.162920
H11   H     H_    0.197827 0.613189 0.248695 0.176568
H12   H     H_    0.579310 0.135150 0.280361 0.210099
H13   H     H_    0.278896 0.484762 0.198400 0.143053
H14   H     H_    0.279640 0.691064 0.190324 0.246240
H15   H     H_    0.136065 0.682360 0.742983 0.164127
H16   H     H_    0.251581 0.667182 0.798458 0.179946
H17   H     H_    0.026540 0.602691 0.798237 0.217064
H18   H     H_    0.015264 0.702154 0.104811 0.364472
H19   H     H_    0.225641 0.960261 0.892621 0.363100
H20   H     H_    0.133528 0.397713 0.032580 0.143097
H21   H     H_    0.225776 0.585448 0.053087 0.171428
H22   H     H_    0.228826 0.536511 0.988680 0.192945
H23   H     H_    0.878114 0.725202 0.695946 0.152749
H24   H     H_    0.061240 0.255902 0.959020 0.123801
H25   H     H_    0.967288 0.123447 0.004995 0.195424
H26   H     H_    0.985746 0.058701 0.941796 0.244858
H27   H     H_    0.697221 0.746838 0.022893 0.333355
H28   H     H_    0.325004 0.869377 0.039767 0.354883
H29   H     H_    0.831746 0.928306 0.561640 0.160783
H30   H     H_    0.742306 0.119197 0.569612 0.112831
H31   H     H_    0.950403 0.099346 0.537040 0.244590
H32   H     H_    0.134306 0.968417 0.601190 0.165387
H33   H     H_    0.323849 0.099405 0.600948 0.149148
H34   H     H_    0.787827 0.783890 0.639980 0.115664
H35   H     H_    0.344110 0.889007 0.597328 0.168675
H36   H     H_    0.006852 0.723920 0.638821 0.185472
H37   H     H_    0.321351 0.042179 0.348440 0.200669
H38   H     H_    0.259942 0.180011 0.398284 0.199585
H39   H     H_    0.369588 0.009053 0.410390 0.197324
H40   H     H_    0.933065 0.289854 0.442728 0.363622
N1    N     N_R   0.513346 0.445220 0.803665 -0.326005
N2    N     N_R   0.585569 0.325777 0.203878 -0.346383
N3    N     N_2   0.950320 0.457960 0.486880 0.181038
N4    N     N_2   0.049680 0.542040 0.513120 0.199016
O1    O     O_R   0.389250 0.738570 0.503220 -0.609735
O2    O     O_2   0.382094 0.109589 0.205043 -0.484597
O3    O     O_2   0.816258 0.516940 0.206422 -0.497509
O4    O     O_2   0.367670 0.198560 0.795729 -0.475826
O5    O     O_3   0.816382 0.545401 0.644401 -0.541696
O6    O     O_3   0.524540 0.183464 0.375948 -0.619870
O7    O     O_3   0.028231 0.347420 0.459212 -0.663074
O8    O     O_3   0.972842 0.656127 0.539182 -0.631449
O9    O     O_3   0.715203 0.813564 0.896050 -0.680206
O10   O     O_3   0.400837 0.925725 0.127213 -0.713767
O11   O     O_3   0.464345 0.717711 0.331809 -0.599713
O12   O     O_R   0.610750 0.261430 0.496780 -0.600910
O13   O     O_3   0.186734 0.456558 0.657887 -0.563985
O14   O     O_3   0.467333 0.624094 0.233041 -0.581750
O15   O     O_3   0.194094 0.457130 0.760622 -0.598945
O16   O     O_3   0.971911 0.614622 0.126382 -0.722171
O17   O     O_3   0.253397 0.055003 0.872749 -0.696622
O18   O     O_3   0.991798 0.595848 0.021021 -0.571362
O19   O     O_3   0.213309 0.071595 0.977702 -0.588709
O20   O     O_3   0.755843 0.761275 0.989410 -0.663579
O21   O     O_3   0.420124 0.932377 0.021690 -0.726015
O22   O     O_3   0.744689 0.018069 0.498314 -0.573358
O23   O     O_R   0.678390 0.711630 0.494810 -0.554402
O24   O     O_3   0.272229 0.986932 0.533476 -0.588405
O25   O     O_R   0.321610 0.288370 0.505190 -0.566160
O26   O     O_R   0.355440 0.513440 0.575450 -0.592369
O27   O     O_R   0.644560 0.486560 0.424550 -0.620261
O28   O     O_R   0.644590 0.486500 0.567040 -0.559178
O29   O     O_R   0.355410 0.513500 0.432960 -0.576956
O30   O     O_2   0.664283 0.690439 0.808327 -0.557374
Zn1   Zn    Zn3+2 0.306940 0.517990 0.505620 1.077740
Zn2   Zn    Zn3+2 0.693060 0.482010 0.494380 1.080953

loop_
_geom_bond_atom_site_label_1
_geom_bond_atom_site_label_2
_ccdc_geom_bond_type
C26   N2    A    
C25   N1    A    
C23   C45   A    
C30   O11   S    
C27   C29   A    
N3    N4    D    
C41   H9    S    
O1    Zn1   S    
C46   H24   S    
O27   Zn2   S    
C48   O24   S    
C14   O16   S    
C46   O19   S    
H3    O9    S    
C24   O2    S    
C31   O5    S    
C29   O13   S    
C35   C37   A    
O25   Zn1   S    
C38   O5    S    
C11   C14   A    
C22   O30   S    
C33   C36   A    
H19   O17   S    
C1    O23   A    
C47   H30   S    
O26   Zn1   S    
C3    C29   A    
C11   O18   S    
C16   O26   A    
H40   O7    S    
H28   O21   S    
N3    Zn2   S    
C17   O27   A    
C47   O22   S    
C12   O25   A    
C28   C37   A    
C43   H16   S    
C49   C51   A    
C42   H13   S    
C15   O17   S    
C35   H12   S    
C47   H31   S    
C39   H38   S    
C26   O3    S    
O28   Zn2   S    
O23   Zn2   S    
C2    C34   A    
C44   O18   S    
C43   H17   S    
C40   H7    S    
C41   O13   S    
H27   O20   S    
C43   O15   S    
C41   H10   S    
C36   N1    S    
C39   H39   S    
N3    O7    S    
C38   H23   S    
C33   H1    S    
C40   H6    S    
C32   C35   A    
C42   H14   S    
C1    O1    A    
C12   O12   A    
C28   O14   S    
C12   C21   S    
C8    C18   A    
C48   H32   S    
N4    Zn1   S    
C38   H36   S    
C44   H22   S    
C5    C9    A    
C24   N2    A    
C50   O9    S    
C25   O4    S    
C31   C33   A    
C48   H35   S    
C2    C26   A    
C13   O19   S    
C15   C52   A    
O12   Zn2   S    
C3    C31   A    
H4    O10   S    
C4    C32   A    
H18   O16   S    
C40   O11   S    
C4    C17   S    
C43   H15   S    
C38   H34   S    
C7    C19   A    
C13   C15   A    
C9    C34   A    
C10   C23   A    
C22   N1    A    
C32   O6    S    
C5    C8    A    
C18   O20   S    
C18   C50   A    
C39   O6    S    
C46   H26   S    
H2    O8    S    
C24   C49   A    
C7    C9    A    
C20   O22   S    
C1    C20   S    
C40   H5    S    
C41   H8    S    
C6    C10   A    
C46   H25   S    
C5    C11   A    
C6    C7    A    
C27   C36   A    
C21   O24   S    
N4    O8    S    
C42   O14   S    
C25   C52   A    
C6    C13   A    
C17   O29   A    
C23   C52   A    
C45   C50   A    
C51   O10   S    
C28   C30   A    
C37   N2    S    
C44   H20   S    
C47   H29   S    
C16   O28   A    
C44   H21   S    
C2    C14   A    
C27   O15   S    
C19   C51   A    
C22   C45   A    
C20   C21   D    
C19   O21   S    
C34   C49   A    
C8    C10   A    
O29   Zn1   S    
C48   H33   S    
C42   H11   S    
C39   H37   S    
C4    C30   A    
C3    C16   S    
