data_mof_unit_9980.cif
_audit_creation_date              2012-12-11T16:26:33-0500
_audit_creation_method            fapswitch 2.2
_symmetry_space_group_name_H-M    P1
_symmetry_Int_Tables_number       1
_space_group_crystal_system       triclinic
_cell_length_a                    6.927033
_cell_length_b                    17.546927
_cell_length_c                    19.546577
_cell_angle_alpha                 108.366865
_cell_angle_beta                  90.099462
_cell_angle_gamma                 91.202211
_cell_volume                      2254.23693801

loop_
_atom_site_label
_atom_site_type_symbol
_atom_type_description
_atom_site_fract_x
_atom_site_fract_y
_atom_site_fract_z
_atom_type_partial_charge
O1    O     O_R   0.494330 0.415720 0.413720 -0.541103
O2    O     O_R   0.819330 0.430070 0.560210 -0.551560
O3    O     O_R   0.994320 0.584280 0.586280 -0.537108
C1    C     C_R   0.650481 0.415374 0.582193 0.702079
O4    O     O_R   0.823730 0.406300 0.412670 -0.534737
O5    O     O_R   0.998760 0.560340 0.437690 -0.541309
C2    C     C_R   0.653322 0.384058 0.384257 0.706630
O6    O     O_R   0.489890 0.439660 0.562310 -0.538865
O7    O     O_3   0.662340 0.550560 0.508380 -0.369036
V1    V     V_3+5 0.935370 0.490620 0.498450 1.422503
O8    O     O_R   0.328750 0.569930 0.439790 -0.541039
C3    C     C_R   0.160353 0.587673 0.420387 0.715255
O9    O     O_R   0.324340 0.593700 0.587330 -0.543355
C4    C     C_R   0.157040 0.617626 0.614069 0.682691
V2    V     V_3+5 0.435940 0.509380 0.501550 1.424252
O10   O     O_3   0.159100 0.449440 0.491620 -0.369772
C5    C     C_R   0.995047 0.587901 0.736289 -0.128559
C6    C     C_R   0.886483 0.570214 0.788462 -0.207182
C7    C     C_R   0.843254 0.630390 0.850588 -0.127245
C8    C     C_R   0.910084 0.709374 0.862512 0.240871
C9    C     C_R   0.024962 0.731122 0.809562 0.018841
C10   C     C_R   0.056935 0.667713 0.743372 0.045663
C11   C     C_R   0.110750 0.809949 0.818182 -0.167960
C12   C     C_R   0.209217 0.823419 0.758385 0.055486
C13   C     C_R   0.228468 0.760281 0.692178 0.053873
C14   C     C_R   0.150560 0.682976 0.684585 -0.154008
C15   C     C_R   0.285283 0.900435 0.762225 -0.163597
C16   C     C_R   0.387737 0.913366 0.705559 -0.060920
C17   C     C_R   0.406885 0.851618 0.640327 0.186412
C18   C     C_R   0.323613 0.776322 0.633805 -0.206859
H1    H     H_    0.030233 0.537190 0.690172 0.120165
H2    H     H_    0.836698 0.509141 0.780896 0.140350
H3    H     H_    0.756010 0.614698 0.890383 0.152069
H4    H     H_    0.265113 0.952873 0.808418 0.144864
H5    H     H_    0.448348 0.972750 0.713249 0.168554
H6    H     H_    0.335356 0.730497 0.582004 0.107835
C19   C     C_R   0.988892 0.634031 0.328693 -0.103571
C20   C     C_R   0.149896 0.640477 0.374065 -0.081984
C21   C     C_R   0.298608 0.696141 0.373856 -0.171251
C22   C     C_R   0.287094 0.744144 0.328316 0.150015
C23   C     C_R   0.129502 0.733601 0.279712 0.012182
C24   C     C_R   0.981062 0.676878 0.278670 0.025060
C25   C     C_R   0.432528 0.801480 0.329550 -0.173202
C26   C     C_R   0.422368 0.848282 0.283491 -0.188992
C27   C     C_R   0.268503 0.837609 0.234253 0.111949
C28   C     C_R   0.122138 0.779179 0.231640 0.011568
C29   C     C_R   0.973202 0.764403 0.179240 0.010368
C30   C     C_R   0.838559 0.700090 0.172007 0.072899
C31   C     C_R   0.835271 0.660449 0.224903 0.263375
C32   C     C_R   0.262977 0.882114 0.185667 -0.233581
C33   C     C_R   0.111230 0.870283 0.135312 -0.083584
C34   C     C_R   0.965303 0.813285 0.134250 -0.182576
H7    H     H_    0.876011 0.591016 0.329730 0.180910
H8    H     H_    0.422016 0.702692 0.409611 0.111900
H9    H     H_    0.554589 0.810089 0.366170 0.121418
H10   H     H_    0.537070 0.891897 0.285443 0.126484
H11   H     H_    0.376516 0.926132 0.187196 0.120745
H12   H     H_    0.844795 0.807579 0.098110 0.180306
C35   C     C_R   0.480657 0.191653 0.872525 -0.148854
C36   C     C_R   0.625391 0.136510 0.870872 -0.105336
C37   C     C_R   0.779164 0.129585 0.822941 -0.165695
C38   C     C_R   0.789057 0.176033 0.775591 0.027339
C39   C     C_R   0.642069 0.231551 0.777856 0.004575
C40   C     C_R   0.489127 0.239626 0.827127 0.123459
C41   C     C_R   0.942475 0.168184 0.726529 0.217699
C42   C     C_R   0.951205 0.216175 0.680263 0.081685
C43   C     C_R   0.798259 0.269415 0.680513 0.032420
C44   C     C_R   0.646081 0.278379 0.730685 -0.018807
C45   C     C_R   0.497928 0.334547 0.734025 0.084750
C46   C     C_R   0.352300 0.345635 0.787249 0.119798
C47   C     C_R   0.347394 0.296406 0.831537 -0.193577
C48   C     C_R   0.792452 0.313600 0.631382 -0.210151
C49   C     C_R   0.644549 0.367251 0.632602 -0.091397
C50   C     C_R   0.499235 0.377839 0.684095 -0.228228
H13   H     H_    0.362209 0.198044 0.909994 0.120656
H14   H     H_    0.888849 0.086654 0.822709 0.175912
H15   H     H_    0.899948 0.305788 0.590004 0.134239
H16   H     H_    0.388638 0.420511 0.684645 0.131302
H17   H     H_    0.234332 0.303800 0.871279 0.125981
H18   H     H_    0.978045 0.148975 0.413032 0.114505
C51   C     C_R   0.435630 0.392333 0.256723 -0.147603
C52   C     C_R   0.335656 0.397481 0.196125 0.370457
C53   C     C_R   0.348735 0.337077 0.130780 -0.140847
C54   C     C_R   0.451811 0.268935 0.126089 -0.189804
C55   C     C_R   0.538025 0.257866 0.187929 0.076203
C56   C     C_R   0.537584 0.322152 0.254343 0.018861
C57   C     C_R   0.625139 0.184300 0.183639 -0.167382
C58   C     C_R   0.718792 0.175506 0.245204 0.070141
C59   C     C_R   0.727474 0.240827 0.310914 0.073831
C60   C     C_R   0.638728 0.314887 0.315701 -0.169151
C61   C     C_R   0.800633 0.101468 0.243279 -0.152879
C62   C     C_R   0.895139 0.092772 0.303069 -0.128177
C63   C     C_R   0.905269 0.156355 0.366756 -0.122958
C64   C     C_R   0.819338 0.228872 0.371510 -0.137443
H19   H     H_    0.429161 0.443393 0.304932 0.157379
H20   H     H_    0.277188 0.342510 0.083277 0.145325
H21   H     H_    0.461063 0.225058 0.073170 0.124167
H22   H     H_    0.791672 0.048932 0.196083 0.111038
H23   H     H_    0.958848 0.036009 0.300177 0.118836
H24   H     H_    0.823827 0.274369 0.423733 0.111701
O11   O     O_R   0.775200 0.060470 0.937800 -0.540652
O12   O     O_R   0.441110 0.093720 0.087350 -0.545598
O13   O     O_R   0.266330 0.939630 0.062280 -0.539391
C65   C     C_R   0.611290 0.115729 0.115446 0.677357
O14   O     O_R   0.445750 0.069950 0.939820 -0.548215
O15   O     O_R   0.271000 0.915700 0.913700 -0.537769
C66   C     C_R   0.615141 0.085713 0.918798 0.693250
O16   O     O_R   0.770530 0.084400 0.086380 -0.543327
O17   O     O_3   0.602830 0.949510 0.991680 -0.337368
V3    V     V_3+5 0.329710 0.009370 0.001550 1.452826
O18   O     O_R   0.940990 0.906170 0.912570 -0.510760
C67   C     C_R   0.107819 0.878681 0.887854 0.763481
O19   O     O_R   0.936350 0.929940 0.060100 -0.527310
C68   C     C_R   0.104201 0.917147 0.083753 0.742968
V4    V     V_3+5 0.829160 0.990450 0.998310 1.496604
O20   O     O_3   0.105910 0.050480 0.008320 -0.377711
C69   C     C_3   0.511283 0.862429 0.575610 -0.384207
C70   C     C_3   0.600541 0.945999 0.586427 -0.717461
H25   H     H_    0.486785 0.991957 0.598522 0.251810
H26   H     H_    0.709692 0.961244 0.630675 0.245679
H27   H     H_    0.673971 0.946725 0.536169 0.215175
H28   H     H_    0.628552 0.818059 0.560312 0.180266
H29   H     H_    0.407912 0.848575 0.529504 0.179537
C71   C     C_3   0.719266 0.665574 0.103125 -0.322426
C72   C     C_3   0.519675 0.701647 0.109175 -0.649664
H30   H     H_    0.437433 0.688489 0.152906 0.266178
H31   H     H_    0.532270 0.767449 0.120086 0.221580
H32   H     H_    0.439035 0.675095 0.057711 0.222843
H33   H     H_    0.795404 0.674428 0.056210 0.192514
H34   H     H_    0.703767 0.599308 0.088861 0.228416
Br1   Br    Br    0.636640 0.580151 0.220622 -0.551314
Br2   Br    Br    0.137445 0.088816 0.720181 -0.689777
C73   C     C_3   0.124219 0.209657 0.630933 -0.299198
C74   C     C_3   0.084909 0.147213 0.557654 -0.734754
H35   H     H_    0.071213 0.086286 0.563253 0.260849
H36   H     H_    0.948869 0.160499 0.534049 0.212637
H37   H     H_    0.206135 0.147863 0.520728 0.209802
H38   H     H_    0.164211 0.268488 0.624517 0.156607
H39   H     H_    0.256648 0.193632 0.654679 0.226545
C75   C     C_3   0.207866 0.412492 0.802101 -0.364126
C76   C     C_3   0.306317 0.493246 0.841945 -0.719298
H40   H     H_    0.409977 0.511543 0.806483 0.222374
H41   H     H_    0.197067 0.540400 0.860313 0.233573
H42   H     H_    0.384814 0.489391 0.890331 0.230530
H43   H     H_    0.137044 0.414044 0.751615 0.168181
H44   H     H_    0.088933 0.402230 0.836559 0.183156
Br3   Br    Br    0.175846 0.485807 0.200962 -0.523920
Br4   Br    Br    0.809781 0.775984 0.950919 -0.609080

loop_
_geom_bond_atom_site_label_1
_geom_bond_atom_site_label_2
_ccdc_geom_bond_type
O11   C66   A    
C57   C58   A    
C46   C75   S    
C63   C64   A    
C35   H13   S    
C49   C50   A    
O18   C67   A    
C12   C15   A    
C1    O6    A    
C74   H37   S    
C47   H17   S    
C51   C52   A    
O15   C67   A    
C27   C28   A    
C11   C67   S    
C31   Br1   S    
C35   C40   A    
C19   C20   A    
O13   V3    S    
C54   H21   S    
O16   V4    S    
C16   C17   A    
O14   V3    S    
C6    C7    A    
C76   H41   S    
O5    C3    A    
C20   C21   A    
C51   H19   S    
C21   H8    S    
V4    O20   S    
C19   C24   A    
C5    C6    A    
C43   C48   A    
C23   C24   A    
C40   C47   A    
C59   C64   A    
C70   H25   S    
C48   H15   S    
C28   C29   A    
O8    V2    S    
C22   C25   A    
C7    C8    A    
C16   H5    S    
C44   C45   A    
C72   H32   S    
C11   C12   A    
C8    Br4   S    
C46   C47   A    
O1    V2    S    
O7    V1    S    
C51   C56   A    
C19   H7    S    
C42   C43   A    
C73   H38   S    
C15   H4    S    
O9    C4    A    
C3    C20   S    
C45   C46   A    
C76   H40   S    
C52   Br3   S    
C55   C57   A    
C37   H14   S    
C75   C76   S    
C33   C68   S    
C39   C40   A    
C43   C44   A    
O13   C68   A    
C54   C55   A    
C56   C60   A    
C76   H42   S    
C75   H44   S    
C61   C62   A    
O4    C2    A    
C74   H36   S    
C13   C14   A    
C55   C56   A    
C2    C60   S    
C17   C69   S    
C4    C14   S    
C33   C34   A    
C36   C37   A    
C70   H27   S    
O2    C1    A    
C69   H28   S    
O5    V1    S    
C17   C18   A    
C42   C73   S    
O14   C66   A    
C26   H10   S    
C29   C30   A    
C58   C61   A    
C64   H24   S    
C23   C28   A    
C8    C9    A    
C38   C39   A    
C32   C33   A    
C71   H34   S    
C45   C50   A    
C12   C13   A    
O12   C65   A    
C36   C66   S    
C1    C49   S    
C29   C34   A    
O3    C4    A    
C34   H12   S    
C25   H9    S    
C30   C31   A    
C73   H39   S    
O6    V2    S    
C9    C11   A    
C25   C26   A    
C7    H3    S    
C73   C74   S    
C5    H1    S    
C53   C54   A    
C6    H2    S    
O2    V1    S    
V3    O20   S    
C65   O16   A    
C41   Br2   S    
C26   C27   A    
O19   C68   A    
O15   V3    S    
C13   C18   A    
C59   C60   A    
C39   C44   A    
C22   C23   A    
C38   C41   A    
O1    C2    A    
C32   H11   S    
C48   C49   A    
C75   H43   S    
C30   C71   S    
O8    C3    A    
C74   H35   S    
C5    C10   A    
C18   H6    S    
O9    V2    S    
C69   H29   S    
O4    V1    S    
O3    V1    S    
V1    O10   S    
C69   C70   S    
C72   H30   S    
C27   C32   A    
O11   V4    S    
C53   H20   S    
C62   C63   A    
C71   H33   S    
C41   C42   A    
C61   H22   S    
O7    V2    S    
C37   C38   A    
C70   H26   S    
O12   V3    S    
O17   V4    S    
C24   C31   A    
C10   C14   A    
C57   C65   S    
C21   C22   A    
C35   C36   A    
C58   C59   A    
C52   C53   A    
C50   H16   S    
O17   V3    S    
C15   C16   A    
C72   H31   S    
O18   V4    S    
H18   C63   S    
C9    C10   A    
V2    O10   S    
C62   H23   S    
C71   C72   S    
O19   V4    S    
