data_mof_unit_28992.cif
_audit_creation_date              2012-12-10T18:49:03-0500
_audit_creation_method            fapswitch 2.2
_symmetry_space_group_name_H-M    P1
_symmetry_Int_Tables_number       1
_space_group_crystal_system       triclinic
_cell_length_a                    10.699512
_cell_length_b                    10.091547
_cell_length_c                    14.083845
_cell_angle_alpha                 89.91017
_cell_angle_beta                  93.255736
_cell_angle_gamma                 90.971571
_cell_volume                      1518.024952

loop_
_atom_site_label
_atom_site_type_symbol
_atom_type_description
_atom_site_fract_x
_atom_site_fract_y
_atom_site_fract_z
_atom_type_partial_charge
C1    C     C_R   0.260773 0.499026 0.500393 0.825754
C2    C     C_1   0.500511 0.500361 0.957299 -0.000922
C3    C     C_R   0.060157 0.384696 0.471557 -0.200129
C4    C     C_R   0.941343 0.611965 0.531204 -0.204643
C5    C     C_R   0.931834 0.386221 0.470179 -0.192572
C6    C     C_R   0.069196 0.610301 0.533029 -0.192270
C7    C     C_R   0.872549 0.500373 0.499666 -0.007078
C8    C     C_R   0.128281 0.497483 0.501938 0.000091
C9    C     C_R   0.558614 0.071733 0.573585 0.096057
C10   C     C_R   0.420295 0.928350 0.439153 0.095220
C11   C     C_R   0.438241 0.068769 0.428120 0.086930
C12   C     C_R   0.739487 0.500631 0.499751 0.827515
C13   C     C_R   0.573935 0.930969 0.565583 0.091466
C14   C     C_3   0.599565 0.135989 0.668388 -0.339195
C15   C     C_3   0.726675 0.211185 0.669282 -0.268348
C16   C     C_3   0.806915 0.187443 0.760739 -0.959085
C17   C     C_3   0.296568 0.869276 0.398580 -0.359057
C18   C     C_3   0.303043 0.786311 0.307353 -0.266996
C19   C     C_3   0.194269 0.813932 0.235452 -0.951612
C20   C     C_3   0.410960 0.123806 0.328044 -0.340782
C21   C     C_3   0.288539 0.201376 0.311420 -0.317649
C22   C     C_3   0.260013 0.228318 0.205715 -0.921020
C23   C     C_R   0.500400 0.500177 0.329808 0.874169
C24   C     C_3   0.688418 0.872132 0.618147 -0.367122
C25   C     C_3   0.670890 0.814416 0.718329 -0.314273
C26   C     C_3   0.757691 0.698130 0.740210 -0.859169
C27   C     C_R   0.499169 0.499807 0.670169 0.878947
C28   C     C_1   0.501340 0.500922 0.228265 -0.222890
C29   C     C_1   0.499030 0.499363 0.771774 -0.220732
C30   C     C_1   0.501642 0.501389 0.142825 -0.029128
C31   C     C_1   0.499573 0.499598 0.857238 -0.022631
C32   C     C_1   0.501205 0.501018 0.042781 0.000817
H1    H     H_    0.105457 0.296500 0.448092 0.140674
H2    H     H_    0.523571 0.192902 0.696880 0.202600
H3    H     H_    0.603274 0.060221 0.724315 0.169594
H4    H     H_    0.103622 0.792030 0.267461 0.270466
H5    H     H_    0.196680 0.918905 0.212461 0.269625
H6    H     H_    0.201375 0.749983 0.171977 0.260341
H7    H     H_    0.392628 0.804984 0.272938 0.220921
H8    H     H_    0.294679 0.679877 0.325334 0.239914
H9    H     H_    0.248788 0.815778 0.454319 0.199884
H10   H     H_    0.229420 0.949592 0.385067 0.176867
H11   H     H_    0.339394 0.282211 0.175129 0.275659
H12   H     H_    0.898013 0.699682 0.555863 0.141376
H13   H     H_    0.242996 0.134327 0.166082 0.260267
H14   H     H_    0.175054 0.289754 0.196276 0.254001
H15   H     H_    0.207396 0.147896 0.339155 0.192977
H16   H     H_    0.294613 0.297795 0.347042 0.259835
H17   H     H_    0.493376 0.180055 0.304937 0.212230
H18   H     H_    0.406007 0.040056 0.276915 0.186596
H19   H     H_    0.856969 0.731176 0.737296 0.247102
H20   H     H_    0.743021 0.659918 0.812761 0.248479
H21   H     H_    0.739319 0.616363 0.688745 0.258908
H22   H     H_    0.697072 0.889403 0.773579 0.194972
H23   H     H_    0.879399 0.298899 0.445478 0.151048
H24   H     H_    0.572086 0.786611 0.728450 0.241321
H25   H     H_    0.728724 0.802540 0.571405 0.234132
H26   H     H_    0.764923 0.947585 0.624797 0.161782
H27   H     H_    0.121408 0.696733 0.559510 0.143261
H28   H     H_    0.754820 0.214907 0.823643 0.271352
H29   H     H_    0.834063 0.082006 0.766427 0.263267
H30   H     H_    0.893658 0.249420 0.760270 0.262987
H31   H     H_    0.780609 0.181862 0.607733 0.214046
H32   H     H_    0.711854 0.319102 0.665234 0.242293
N1    N     N_R   0.500000 0.857200 0.500000 -0.111992
N2    N     N_R   0.500000 0.142800 0.500000 -0.110771
O1    O     O_R   0.316770 0.614620 0.499990 -0.632500
O2    O     O_R   0.683230 0.385380 0.500010 -0.627564
O3    O     O_R   0.683230 0.614620 0.500010 -0.622241
O4    O     O_R   0.316770 0.385380 0.499990 -0.623919
O5    O     O_R   0.500000 0.614690 0.373720 -0.601337
O6    O     O_R   0.500000 0.385310 0.626280 -0.610903
O7    O     O_R   0.500000 0.614690 0.626280 -0.580113
O8    O     O_R   0.500000 0.385310 0.373720 -0.602338
Zn1   Zn    Zn3+2 0.500000 0.653120 0.500000 0.921350
Zn2   Zn    Zn3+2 0.500000 0.346880 0.500000 0.913889

loop_
_geom_bond_atom_site_label_1
_geom_bond_atom_site_label_2
_ccdc_geom_bond_type
C16   H29   S    
C14   H2    S    
O5    Zn1   S    
C9    C14   S    
C11   N2    A    
C24   C25   S    
C20   H17   S    
C19   H6    S    
C26   H20   S    
O2    Zn2   S    
C1    C8    S    
O7    Zn1   S    
C26   H19   S    
C1    O4    A    
N1    Zn1   S    
C25   H24   S    
O6    Zn2   S    
C18   H7    S    
C21   H16   S    
N2    Zn2   S    
C3    C5    A    
C28   C30   T    
C17   C18   S    
O1    Zn1   S    
C15   H32   S    
C9    N2    A    
C29   C31   T    
C13   N1    A    
C23   C28   S    
C25   H22   S    
C20   H18   S    
C30   C32   S    
C12   O2    A    
O8    Zn2   S    
C16   H30   S    
C4    C7    A    
C2    C32   T    
C21   C22   S    
C1    O1    A    
C12   O3    A    
O3    Zn1   S    
C19   H4    S    
O4    Zn2   S    
C7    C12   S    
C23   O8    A    
C17   H9    S    
C11   C20   S    
C3    C8    A    
C4    C6    A    
C27   C29   S    
C10   C11   A    
C3    H1    S    
C10   C17   S    
C15   C16   S    
C26   H21   S    
C23   O5    A    
C17   H10   S    
C22   H13   S    
C9    C13   A    
C20   C21   S    
C24   H26   S    
C18   C19   S    
C16   H28   S    
C10   N1    A    
C14   H3    S    
C5    C7    A    
C18   H8    S    
C15   H31   S    
C14   C15   S    
C2    C31   S    
C6    C8    A    
C19   H5    S    
C22   H14   S    
C25   C26   S    
C27   O7    A    
C6    H27   S    
C5    H23   S    
C27   O6    A    
C22   H11   S    
C13   C24   S    
C4    H12   S    
C24   H25   S    
C21   H15   S    
