data_mof_unit_7866.cif
_audit_creation_date              2013-03-05T15:57:40-0500
_audit_creation_method            fapswitch 2.2
_symmetry_space_group_name_H-M    P1
_symmetry_Int_Tables_number       1
_space_group_crystal_system       triclinic
_cell_length_a                    6.990939
_cell_length_b                    17.321911
_cell_length_c                    18.544031
_cell_angle_alpha                 107.070015
_cell_angle_beta                  90.26558
_cell_angle_gamma                 90.508569
_cell_volume                      2146.54303826

loop_
_atom_site_label
_atom_site_type_symbol
_atom_site_description
_atom_site_fract_x
_atom_site_fract_y
_atom_site_fract_z
_atom_type_partial_charge
O1    O     O_R   0.505810 0.442350 0.559500 -0.582648
O2    O     O_R   0.167990 0.405060 0.411070 -0.604540
O3    O     O_R   0.005550 0.557650 0.440500 -0.567697
C1    C     C_R   0.337668 0.381446 0.383258 0.895575
O4    O     O_R   0.175580 0.432840 0.557140 -0.553671
O5    O     O_R   0.013190 0.585620 0.587600 -0.542555
C2    C     C_R   0.344350 0.414276 0.578935 0.976683
O6    O     O_R   0.498170 0.414380 0.412400 -0.598783
O7    O     O_3   0.341790 0.550090 0.509830 -0.247222
V1    V     V_3+5 0.063870 0.490710 0.498180 1.187117
O8    O     O_R   0.683930 0.594940 0.588930 -0.598814
C3    C     C_R   0.853488 0.614634 0.619602 1.088531
O9    O     O_R   0.676340 0.567160 0.442860 -0.571918
C4    C     C_R   0.845073 0.583727 0.419210 1.005340
V2    V     V_3+5 0.564820 0.509290 0.501820 1.172751
O10   O     O_3   0.836770 0.449910 0.490170 -0.292544
C5    C     C_1   0.855975 0.635533 0.366952 -0.266607
C6    C     C_1   0.867182 0.677997 0.323263 0.078039
C7    C     C_1   0.881690 0.728164 0.271331 0.008655
C8    C     C_1   0.894219 0.770478 0.227540 0.006616
C9    C     C_1   0.908828 0.820759 0.175714 0.058344
C10   C     C_1   0.920239 0.863519 0.132289 -0.321321
C11   C     C_3   0.750988 0.803516 0.749920 -0.201458
C12   C     C_3   0.909293 0.771151 0.690749 0.378646
H1    H     H_    0.639305 0.847412 0.746308 0.143555
C13   C     C_3   0.870091 0.683792 0.691919 -0.392738
C14   C     C_3   0.718712 0.715539 0.753274 0.053761
C15   C     C_3   0.871594 0.730593 0.816240 -0.172406
C16   C     C_3   0.020853 0.696939 0.755147 0.379886
C17   C     C_3   0.068095 0.783304 0.752148 -0.340451
C18   C     C_3   0.909523 0.815578 0.811132 -0.174830
H2    H     H_    0.860745 0.717013 0.871054 0.139721
H3    H     H_    0.212388 0.809863 0.750180 0.156097
C19   C     C_3   0.475755 0.233842 0.309266 0.151591
C20   C     C_3   0.318055 0.180468 0.259914 0.195372
C21   C     C_3   0.419764 0.187872 0.188394 -0.176220
C22   C     C_3   0.578615 0.240594 0.237312 -0.241386
C23   C     C_3   0.459079 0.316436 0.241330 0.207043
C24   C     C_3   0.300518 0.263900 0.191609 -0.164121
C25   C     C_3   0.198582 0.256974 0.263948 -0.187892
C26   C     C_3   0.357774 0.310066 0.313146 -0.193985
H4    H     H_    0.733894 0.233728 0.225786 0.119355
H5    H     H_    0.229588 0.276843 0.142797 0.114168
H6    H     H_    0.043517 0.264826 0.275503 0.115941
C27   C     C_1   0.353433 0.361050 0.630057 -0.299422
C28   C     C_1   0.364489 0.318556 0.673729 0.062508
C29   C     C_1   0.380193 0.268891 0.726060 -0.002156
C30   C     C_1   0.394016 0.227179 0.770337 0.009350
C31   C     C_1   0.410041 0.177664 0.822823 0.075747
C32   C     C_1   0.422093 0.135594 0.866856 -0.312765
O11   O     O_R   0.278780 0.085730 0.087540 -0.595065
O12   O     O_R   0.601620 0.067180 0.942850 -0.572711
O13   O     O_R   0.763750 0.914350 0.912410 -0.594369
C33   C     C_R   0.432679 0.083974 0.919337 0.955895
O14   O     O_R   0.608970 0.094960 0.088920 -0.590308
O15   O     O_R   0.771150 0.942330 0.059520 -0.568563
C34   C     C_R   0.439441 0.118184 0.117019 0.910806
O16   O     O_R   0.271380 0.057750 0.940430 -0.568307
O17   O     O_3   0.435070 0.949970 0.990140 -0.262000
V3    V     V_3+5 0.713090 0.009280 0.001830 1.148593
O18   O     O_R   0.100340 0.932730 0.057200 -0.573157
C35   C     C_R   0.931458 0.915825 0.080490 0.959056
O19   O     O_R   0.092990 0.904950 0.911140 -0.589287
C36   C     C_R   0.923731 0.884707 0.881562 0.986543
V4    V     V_3+5 0.212100 0.990570 0.998260 1.156092
O20   O     O_3   0.940260 0.050030 0.009860 -0.272683
N1    N     N_R   0.930829 0.798758 0.624111 0.240221
O21   O     O_R   0.963672 0.874835 0.632150 -0.382533
O22   O     O_R   0.916713 0.748443 0.556715 -0.429964
C37   C     C_3   0.540476 0.394909 0.231585 -0.442064
C38   C     C_3   0.636376 0.380734 0.154772 -0.250447
C39   C     C_3   0.720562 0.459203 0.146405 -0.897220
H7    H     H_    0.606208 0.504476 0.150949 0.264802
H8    H     H_    0.830567 0.484100 0.190793 0.253407
H9    H     H_    0.788900 0.447340 0.090325 0.252576
H10   H     H_    0.753284 0.336239 0.148774 0.196609
H11   H     H_    0.529758 0.356161 0.108919 0.196054
H12   H     H_    0.422272 0.438733 0.237305 0.180727
H13   H     H_    0.647197 0.420311 0.277185 0.191161
C40   C     C_3   0.550656 0.663935 0.764097 -0.313396
C41   C     C_3   0.621554 0.594312 0.795172 -0.257614
C42   C     C_3   0.510589 0.515506 0.767708 -0.705596
H14   H     H_    0.377162 0.516588 0.799720 0.305436
H15   H     H_    0.480967 0.503560 0.707169 0.251455
H16   H     H_    0.598272 0.465375 0.775617 0.207378
H17   H     H_    0.770987 0.578273 0.777396 0.217351
H18   H     H_    0.620384 0.614662 0.857863 0.202695
H19   H     H_    0.456882 0.704847 0.805987 0.208951
H20   H     H_    0.474350 0.640574 0.709357 0.219295
N2    N     N_R   0.139398 0.633583 0.767375 0.203455
O23   O     O_R   0.178345 0.635872 0.836713 -0.459450
O24   O     O_R   0.143430 0.564229 0.715692 -0.467693
C43   C     C_3   0.241890 0.100413 0.268977 -0.448903
C44   C     C_3   0.056827 0.112008 0.314544 -0.294269
C45   C     C_3   0.001992 0.035738 0.335130 -0.871978
H21   H     H_    0.982865 0.984183 0.283329 0.261792
H22   H     H_    0.114716 0.021023 0.371257 0.268477
H23   H     H_    0.865500 0.045278 0.366714 0.246578
H24   H     H_    0.071952 0.163081 0.367082 0.198627
H25   H     H_    0.940348 0.126318 0.279741 0.194262
H26   H     H_    0.211634 0.057308 0.212667 0.196098
H27   H     H_    0.354259 0.073161 0.295998 0.190844
C46   C     C_3   0.591626 0.216659 0.372986 -0.468556
C47   C     C_3   0.469436 0.211676 0.439759 -0.253020
C48   C     C_3   0.595797 0.202581 0.504027 -0.865739
H28   H     H_    0.691067 0.149721 0.483751 0.261813
H29   H     H_    0.684394 0.257938 0.527479 0.261376
H30   H     H_    0.504773 0.192823 0.549479 0.253545
H31   H     H_    0.381373 0.266589 0.460412 0.170904
H32   H     H_    0.372525 0.158435 0.422247 0.209946
H33   H     H_    0.664540 0.158211 0.349715 0.187265
H34   H     H_    0.702301 0.264900 0.392410 0.212566

loop_
_geom_bond_atom_site_label_1
_geom_bond_atom_site_label_2
_geom_bond_distance
_ccdc_geom_bond_type
O19   V4    2.015423 S    
C43   C44   1.530782 S    
C37   H12   1.111327 S    
C19   C22   1.552484 S    
C7    C8    1.246301 T    
C1    O6    1.295586 A    
C23   C37   1.528271 S    
C41   C42   1.514579 S    
C45   H23   1.109959 S    
C27   C28   1.246610 T    
C48   H29   1.111012 S    
C15   C16   1.531728 S    
C13   C14   1.539829 S    
C32   C33   1.504511 S    
C2    C27   1.505458 S    
C21   C22   1.541571 S    
C12   C13   1.541889 S    
C6    C7    1.477666 S    
O5    C3    1.300870 A    
C17   C18   1.549548 S    
O13   C36   1.298242 A    
C1    C26   1.516566 S    
V2    O10   2.151096 S    
C40   H20   1.108485 S    
C46   H33   1.107148 S    
C19   C20   1.543897 S    
O11   V4    2.013073 S    
C22   H4    1.108040 S    
C16   N2    1.450213 S    
O12   V3    1.859937 S    
C12   N1    1.458000 S    
O8    V2    2.015573 S    
C45   H21   1.109605 S    
C11   C12   1.550550 S    
C37   C38   1.531407 S    
O11   C34   1.295789 A    
C11   C14   1.557810 S    
C16   C17   1.546116 S    
O7    V1    2.170199 S    
C41   H17   1.109851 S    
V3    O20   1.720112 S    
O17   V3    2.170259 S    
O14   V3    1.990890 S    
C4    C5    1.503415 S    
O18   C35   1.318730 A    
C19   C26   1.546889 S    
C39   H9    1.110334 S    
O4    V1    1.859997 S    
C47   C48   1.525949 S    
O13   V3    1.998503 S    
O12   C33   1.321147 A    
C20   C43   1.535998 S    
C48   H30   1.109325 S    
N1    O21   1.300203 A    
C15   H2    1.111329 S    
C23   C26   1.543023 S    
C39   H8    1.111211 S    
C14   C40   1.519382 S    
C43   H26   1.109067 S    
C24   C25   1.556792 S    
O4    C2    1.318118 A    
C39   H7    1.110932 S    
C24   H5    1.110140 S    
C21   C24   1.551371 S    
O15   V3    1.840336 S    
C3    C13   1.516543 S    
C46   H34   1.111709 S    
N1    O22   1.299685 A    
C20   C21   1.545300 S    
C11   C18   1.550968 S    
O2    C1    1.315611 A    
C22   C23   1.546737 S    
C10   C35   1.503357 S    
O16   V4    1.845037 S    
N2    O24   1.299012 A    
C29   C30   1.246736 T    
C44   H25   1.110719 S    
C5    C6    1.246192 T    
C41   H18   1.111490 S    
O3    C4    1.314573 A    
O1    V2    1.839159 S    
C30   C31   1.478613 S    
C31   C32   1.246865 T    
O6    V2    2.012050 S    
C42   H15   1.098520 S    
O14   C34   1.314948 A    
O9    C4    1.318640 A    
O15   C35   1.314497 A    
V4    O20   2.151079 S    
O2    V1    1.990843 S    
C38   H10   1.111788 S    
C38   H11   1.111636 S    
C21   C34   1.514795 S    
C33   O16   1.315367 A    
C28   C29   1.478074 S    
C25   C26   1.548056 S    
C17   H3    1.110177 S    
C37   H13   1.111388 S    
O1    C2    1.318100 A    
C18   C36   1.492657 S    
C15   C18   1.523661 S    
C40   C41   1.564637 S    
C43   H27   1.110328 S    
O5    V1    1.998329 S    
O8    C3    1.310593 A    
C45   H22   1.110730 S    
C42   H16   1.111179 S    
C48   H28   1.111026 S    
C19   C46   1.530649 S    
O9    V2    1.856226 S    
C20   C25   1.556100 S    
O7    V2    1.706659 S    
C38   C39   1.525917 S    
C40   H19   1.106892 S    
O3    V1    1.840461 S    
V1    O10   1.720002 S    
O17   V4    1.704843 S    
C47   H32   1.107258 S    
N2    O23   1.302169 A    
C23   C24   1.545018 S    
C44   H24   1.111033 S    
C11   H1    1.110052 S    
C44   C45   1.525311 S    
C12   C17   1.554548 S    
O19   C36   1.302945 A    
O18   V4    1.856278 S    
C25   H6    1.107808 S    
C8    C9    1.477636 S    
C13   C16   1.537846 S    
C42   H14   1.105327 S    
C46   C47   1.530233 S    
C47   H31   1.108692 S    
C9    C10   1.246263 T    
C14   C15   1.542210 S    
