data_mof_unit_48817.cif
_audit_creation_date              2012-12-11T15:49:33-0500
_audit_creation_method            fapswitch 2.2
_symmetry_space_group_name_H-M    P1
_symmetry_Int_Tables_number       1
_space_group_crystal_system       triclinic
_cell_length_a                    8.304994
_cell_length_b                    19.016947
_cell_length_c                    27.040501
_cell_angle_alpha                 95.352126
_cell_angle_beta                  92.601466
_cell_angle_gamma                 85.774647
_cell_volume                      4237.2909513

loop_
_atom_site_label
_atom_site_type_symbol
_atom_type_description
_atom_site_fract_x
_atom_site_fract_y
_atom_site_fract_z
_atom_type_partial_charge
Ba1   Ba    Ba6+2 0.854000 0.466860 0.523710 1.728638
Ba2   Ba    Ba6+2 0.335820 0.533080 0.476290 1.703579
C1    C     C_3   0.802463 0.241809 0.694983 0.328332
C2    C     C_3   0.735331 0.288131 0.654431 0.689703
C3    C     C_3   0.501490 0.653779 0.627934 0.693609
C4    C     C_3   0.433355 0.693579 0.674716 -0.213586
C5    C     C_3   0.043148 0.687079 0.341222 0.308144
C6    C     C_3   0.043451 0.708062 0.288298 0.254419
C7    C     C_3   0.527628 0.719358 0.330010 1.000306
C8    C     C_3   0.430054 0.786227 0.314613 -0.273965
C9    C     C_R   0.016694 0.446737 0.179232 0.628004
C10   C     C_R   0.901183 0.565328 0.175052 0.571488
C11   C     C_2   0.761041 0.542765 0.271756 -0.086517
C12   C     C_3   0.257005 0.280699 0.650103 0.216274
C13   C     C_3   0.744785 0.569144 0.325843 0.004092
C14   C     C_1   0.985323 0.491247 0.343397 0.031695
C15   C     C_2   0.025299 0.487660 0.295603 -0.115937
C16   C     C_2   0.904674 0.512315 0.255930 0.179442
C17   C     C_R   0.015520 0.501861 0.100626 -0.087797
C18   C     C_R   0.053144 0.442904 0.127962 -0.118277
C19   C     C_R   0.117150 0.379946 0.102623 -0.032450
C20   C     C_R   0.937906 0.563113 0.124411 -0.003528
C21   C     C_2   0.854738 0.528313 0.360412 -0.314707
C22   C     C_2   0.344657 0.483268 0.641171 0.114197
C23   C     C_3   0.243051 0.284282 0.706142 -0.314240
C24   C     C_R   0.196659 0.441286 0.976928 -0.035324
C25   C     C_R   0.034667 0.553685 0.969790 0.052326
C26   C     C_R   0.135561 0.496631 0.947965 -0.003283
C27   C     C_R   0.323755 0.394010 0.957379 0.298801
C28   C     C_R   0.368421 0.394689 0.907108 0.362439
C29   C     C_R   0.286739 0.442594 0.875796 -0.085805
C30   C     C_R   0.176954 0.495725 0.897077 -0.150953
C31   C     C_R   0.110891 0.549229 0.867760 -0.006313
C32   C     C_R   0.153833 0.549014 0.817727 0.593877
C33   C     C_R   0.319574 0.441524 0.824295 0.645225
C34   C     C_3   0.212958 0.313190 0.407296 0.685365
C35   C     C_2   0.451646 0.485279 0.729341 -0.099778
C36   C     C_3   0.493051 0.489725 0.675429 -0.013869
C37   C     C_1   0.205967 0.511983 0.657039 0.053150
C38   C     C_2   0.166581 0.509515 0.703934 -0.150714
C39   C     C_2   0.295732 0.495248 0.743569 0.175663
C40   C     C_R   0.135496 0.438070 0.025689 -0.025072
C41   C     C_R   0.053355 0.499424 0.049271 0.001584
C42   C     C_R   0.005659 0.557959 0.021626 0.040823
C43   C     C_R   0.147700 0.375629 0.051789 0.457214
C44   C     C_R   0.897516 0.621558 0.097103 -0.050346
C45   C     C_3   0.301154 0.249544 0.378377 0.251505
C46   C     C_R   0.966959 0.605122 0.938944 -0.095443
C47   C     C_R   0.004296 0.602853 0.889193 -0.045266
C48   C     C_R   0.930355 0.619123 0.046985 -0.101000
C49   C     C_R   0.391229 0.296633 0.517481 -0.317057
C50   C     C_R   0.533229 0.274835 0.493668 0.022510
C51   C     C_R   0.585042 0.202815 0.488535 -0.136638
C52   C     C_R   0.493486 0.152149 0.507022 0.009296
C53   C     C_R   0.344020 0.174967 0.529580 0.369926
C54   C     C_R   0.295591 0.247686 0.534625 0.042766
C55   C     C_R   0.591147 0.040011 0.545415 0.359030
C56   C     C_3   0.002646 0.681359 0.580677 0.282885
C57   C     C_R   0.639598 0.966179 0.540186 0.313915
C58   C     C_R   0.665699 0.931493 0.492405 0.018236
C59   C     C_R   0.641216 0.969943 0.450598 -0.148384
C60   C     C_R   0.585377 0.041303 0.455609 -0.169705
C61   C     C_R   0.556651 0.076452 0.502657 0.001383
C62   C     C_R   0.854369 0.827787 0.462433 -0.151484
C63   C     C_R   0.898271 0.754752 0.458492 -0.006384
C64   C     C_R   0.657315 0.733454 0.500276 0.066075
C65   C     C_R   0.612810 0.806162 0.504741 -0.031890
C66   C     C_R   0.710508 0.854056 0.485661 0.051285
C67   C     C_3   0.980812 0.760907 0.594116 -0.344860
C68   C     C_R   0.796600 0.708085 0.475810 -0.224636
C69   C     C_3   0.673908 0.382927 0.376574 0.267515
C70   C     C_3   0.681369 0.364691 0.320724 -0.345289
H1    H     H_    0.839433 0.309350 0.638038 0.032443
H2    H     H_    0.382331 0.269284 0.352104 0.082387
H3    H     H_    0.884083 0.660975 0.569390 0.018267
H4    H     H_    0.085638 0.670992 0.549406 0.049262
H5    H     H_    0.893507 0.772652 0.624211 0.161204
H6    H     H_    0.934594 0.788259 0.561483 0.075097
H7    H     H_    0.098495 0.781790 0.606889 0.115195
H8    H     H_    0.792945 0.399085 0.391392 0.030080
H9    H     H_    0.883968 0.197333 0.678684 0.043571
H10   H     H_    0.778200 0.322317 0.312464 0.158136
H11   H     H_    0.707187 0.411830 0.302202 0.070200
H12   H     H_    0.563742 0.346289 0.305507 0.128526
H13   H     H_    0.338329 0.734418 0.664489 0.071473
H14   H     H_    0.530673 0.719846 0.697337 0.124089
H15   H     H_    0.362102 0.294365 0.724729 0.197909
H16   H     H_    0.916048 0.683488 0.351325 0.032586
H17   H     H_    0.989169 0.666143 0.263587 0.116552
H18   H     H_    0.168358 0.710744 0.276208 0.031577
H19   H     H_    0.293389 0.332917 0.640925 0.056625
H20   H     H_    0.146074 0.467904 0.285212 0.134868
H21   H     H_    0.549585 0.478818 0.756861 0.121216
H22   H     H_    0.839435 0.669993 0.114446 0.132665
H23   H     H_    0.881057 0.647290 0.951979 0.071009
H24   H     H_    0.041518 0.518815 0.713912 0.159168
H25   H     H_    0.898840 0.667082 0.029351 0.075220
H26   H     H_    0.843166 0.542446 0.399973 0.078996
H27   H     H_    0.695889 0.186195 0.469824 0.101839
H28   H     H_    0.659931 0.943864 0.413745 0.104464
H29   H     H_    0.153686 0.327967 0.718606 0.105644
H30   H     H_    0.562350 0.069106 0.422543 0.106949
H31   H     H_    0.933724 0.863910 0.449019 0.085365
H32   H     H_    0.350543 0.352060 0.520513 0.136297
H33   H     H_    0.306151 0.345960 0.426266 -0.066542
N1    N     N_R   0.942251 0.507918 0.202790 -0.421265
N2    N     N_R   0.255247 0.494931 0.795922 -0.432516
O1    O     O_2   0.913240 0.537010 0.617740 -0.440561
O2    O     O_3   0.634340 0.322884 0.398234 -0.656030
O3    O     O_3   0.108433 0.263663 0.626796 -0.615627
O4    O     O_2   0.276450 0.462960 0.382230 -0.481673
O5    O     O_3   0.044470 0.462980 0.442430 -0.471743
O6    O     O_3   0.519740 0.589470 0.411120 -0.431191
O7    O     O_3   0.114415 0.350621 0.373854 -0.624974
O8    O     O_3   0.632420 0.583650 0.524140 -0.502634
O9    O     O_3   0.111040 0.625070 0.435230 -0.494344
O10   O     O_2   0.235957 0.749456 0.464392 -0.460943
O11   O     O_3   0.118839 0.737463 0.373636 -0.603162
O12   O     O_3   0.145240 0.536960 0.557560 -0.468228
O13   O     O_3   0.557280 0.416300 0.475860 -0.498140
O14   O     O_2   0.376710 0.670070 0.522470 -0.468191
O15   O     O_3   0.569312 0.702017 0.600217 -0.643927
O16   O     O_2   0.431594 0.523586 0.323918 -0.512887
O17   O     O_3   0.427160 0.661439 0.325290 -0.612295
O18   O     O_2   0.048525 0.395010 0.202408 -0.578854
O19   O     O_2   0.403377 0.392295 0.804531 -0.519426
O20   O     O_2   0.832195 0.619152 0.194335 -0.608993
O21   O     O_2   0.102708 0.597963 0.793815 -0.590960
O22   O     O_3   0.669960 0.410470 0.588880 -0.491709
O23   O     O_2   0.827148 0.441675 0.675734 -0.510882
O24   O     O_3   0.066762 0.649799 0.622557 -0.628419
O25   O     O_3   0.626597 0.341811 0.675705 -0.625126
O26   O     O_2   0.812980 0.329910 0.477500 -0.425011
O27   O     O_3   0.078660 0.374870 0.564770 -0.425414
O28   O     O_2   0.955879 0.249952 0.540057 -0.423665
P1    P     P_3+3 0.082480 0.557670 0.610090 1.046555
P2    P     P_3+3 0.635220 0.340300 0.462910 0.990253
P3    P     P_3+3 0.108247 0.282745 0.564774 1.100932
P4    P     P_3+3 0.107220 0.442270 0.389900 1.015767
P5    P     P_3+3 0.092251 0.717444 0.434182 0.982990
P6    P     P_3+3 0.658044 0.423577 0.653865 0.978216
P7    P     P_3+3 0.561169 0.672882 0.536798 0.954448
P8    P     P_3+3 0.531763 0.585009 0.346271 1.015209
H34   H     H_    0.377562 0.217800 0.404244 -0.054801
O29   O     O_3   0.191179 0.207419 0.350705 -0.693367
H35   H     H_    0.164377 0.170470 0.372024 0.299731
H36   H     H_    0.581084 0.427212 0.383789 0.079540
O30   O     O_3   0.655379 0.245751 0.617421 -0.736583
H37   H     H_    0.597670 0.278361 0.595105 0.286695
O31   O     O_3   0.676762 0.215599 0.719234 -0.677337
H38   H     H_    0.634538 0.176487 0.696569 0.333280
H39   H     H_    0.399253 0.627141 0.607741 -0.083413
O32   O     O_3   0.623413 0.604453 0.641867 -0.740264
H40   H     H_    0.627349 0.566558 0.614165 0.290413
H41   H     H_    0.379058 0.656234 0.697322 0.058041
H42   H     H_    0.874962 0.274105 0.722805 0.038058
H43   H     H_    0.110684 0.634381 0.342163 0.012969
O33   O     O_3   0.952190 0.772335 0.283622 -0.664281
H44   H     H_    0.021578 0.810596 0.297027 0.314788
O34   O     O_3   0.660392 0.705749 0.298810 -0.744610
H45   H     H_    0.616823 0.692220 0.264534 0.305787
O35   O     O_3   0.582940 0.732326 0.379955 -0.733188
H46   H     H_    0.661042 0.769687 0.380866 0.276366
H47   H     H_    0.508553 0.831481 0.317556 0.089426
H48   H     H_    0.326949 0.800920 0.339128 0.126911
H49   H     H_    0.384643 0.778219 0.275292 0.063160
H50   H     H_    0.134223 0.331963 0.121535 0.156550
O36   O     O_3   0.497735 0.351758 0.888725 -0.659592
H51   H     H_    0.581701 0.347067 0.915626 0.313754
O37   O     O_3   0.413259 0.352089 0.989068 -0.693996
H52   H     H_    0.444890 0.306246 0.970334 0.333118
O38   O     O_3   0.169425 0.308311 0.028207 -0.675629
H53   H     H_    0.128550 0.309721 0.993264 0.309000
H54   H     H_    0.665268 0.557861 0.245405 0.113391
H55   H     H_    0.351682 0.238661 0.638927 0.111810
H56   H     H_    0.949146 0.643959 0.867463 0.124273
O39   O     O_3   0.350761 0.445622 0.595352 -0.737268
H57   H     H_    0.419962 0.471856 0.575690 0.310230
H58   H     H_    0.505656 0.825564 0.524563 0.091516
O40   O     O_3   0.661992 0.926758 0.580647 -0.742433
H59   H     H_    0.590409 0.948064 0.607140 0.313100
O41   O     O_3   0.579015 0.078158 0.591297 -0.695759
H60   H     H_    0.654748 0.055524 0.615366 0.316005
O42   O     O_3   0.242320 0.128706 0.546281 -0.699520
H61   H     H_    0.274496 0.079785 0.532915 0.303428
H62   H     H_    0.832299 0.652041 0.473653 0.042898
H63   H     H_    0.204163 0.233407 0.716933 0.131074
O43   O     O_3   0.117846 0.290178 0.443223 -0.762416
H64   H     H_    0.032318 0.262832 0.425430 0.317007

loop_
_geom_bond_atom_site_label_1
_geom_bond_atom_site_label_2
_ccdc_geom_bond_type
C25   C46   A    
O28   P3    D    
C69   H36   S    
C53   C54   A    
C45   O29   S    
O26   P2    D    
C46   H23   S    
C62   H31   S    
Ba1   Ba2   S    
C67   H5    S    
C17   C18   A    
C5    O11   S    
C6    O33   S    
C7    O17   S    
O29   H35   S    
C56   H4    S    
C5    C6    S    
C2    O25   S    
C10   O20   D    
C64   C68   A    
C51   C52   A    
C51   H27   S    
Ba2   O5    S    
C60   C61   A    
C3    H39   S    
C11   C16   D    
C32   N2    Am   
C62   C66   A    
C57   O40   S    
C9    O18   D    
C35   C36   S    
O1    P1    D    
Ba1   O22   S    
Ba1   O5    S    
C28   C29   A    
Ba2   O6    S    
O11   P5    S    
C55   C57   A    
O22   P6    S    
O37   H52   S    
C31   C47   A    
C63   C68   A    
C2    O30   S    
C10   C20   A    
C23   H15   S    
C22   C37   D    
O42   H61   S    
C34   C45   S    
O2    P2    S    
C49   C54   A    
Ba1   O12   S    
O23   P6    D    
O41   H60   S    
C55   O41   S    
C23   H63   S    
C63   P5    S    
Ba2   O9    S    
C25   C42   A    
C5    H16   S    
C14   C15   D    
C1    O31   S    
C64   P7    S    
C1    H9    S    
C22   C36   S    
C53   O42   S    
O17   P8    S    
C55   C61   A    
C27   O37   S    
Ba1   P1    S    
C7    C8    S    
C4    H41   S    
C13   C21   S    
C64   C65   A    
O8    P7    S    
C34   O7    S    
C57   C58   A    
O5    P4    S    
C67   H6    S    
C59   C60   A    
C15   H20   S    
C38   H24   S    
Ba1   O26   S    
C69   H8    S    
C17   C41   A    
C56   H3    S    
C15   C16   S    
C19   C43   A    
C37   P1    S    
C11   H54   S    
Ba2   O4    S    
C9    C18   A    
C6    H17   S    
O4    P4    D    
C65   C66   A    
O3    P3    S    
C17   C20   A    
O30   H37   S    
O24   P1    S    
C37   C38   D    
Ba2   O13   S    
C7    O34   S    
C49   H32   S    
C45   H34   S    
C49   C50   A    
C58   C59   A    
C34   O43   S    
C40   C43   A    
C59   H28   S    
C33   O19   D    
C41   C42   A    
C16   N1    S    
C12   H55   S    
C54   P3    S    
Ba2   O8    S    
C29   C30   A    
C44   H22   S    
C26   C30   A    
C56   O24   S    
C8    H49   S    
C9    N1    Am   
C50   P2    S    
C35   H21   S    
O7    P4    S    
C4    H13   S    
C2    H1    S    
C70   H12   S    
C13   P8    S    
O36   H51   S    
C20   C44   A    
C14   C21   D    
C11   C13   S    
O33   H44   S    
C36   P6    S    
C29   C33   A    
C67   H7    S    
O10   P5    D    
C6    H18   S    
C40   C41   A    
Ba2   P4    S    
Ba1   O27   S    
C43   O38   S    
C22   O39   S    
Ba1   P2    S    
O38   H53   S    
C24   C40   A    
O35   H46   S    
Ba2   O14   S    
C42   C48   A    
O25   P6    S    
C12   O3    S    
C52   C53   A    
C46   C47   A    
C48   H25   S    
C8    H47   S    
C39   N2    S    
C34   H33   S    
O14   P7    D    
C45   H2    S    
C4    H14   S    
O27   P3    S    
Ba2   O12   S    
C56   C67   S    
C5    H43   S    
C44   C48   A    
C24   C26   A    
O12   P1    S    
C19   H50   S    
C30   C31   A    
C28   O36   S    
C69   C70   S    
C65   H58   S    
O34   H45   S    
C10   N1    Am   
C23   H29   S    
C3    C4    S    
Ba1   O13   S    
C8    H48   S    
C3    O32   S    
C69   O2    S    
C62   C63   A    
C1    H42   S    
C31   C32   A    
C12   C23   S    
C35   C39   D    
C7    O35   S    
C12   H19   S    
C70   H11   S    
C33   N2    Am   
C68   H62   S    
Ba1   O1    S    
C27   C28   A    
C14   P4    S    
O6    P8    S    
C21   H26   S    
C18   C19   A    
C58   C66   S    
C24   C27   A    
C32   O21   D    
O39   H57   S    
C52   C61   S    
O16   P8    D    
C25   C26   A    
O15   P7    S    
O31   H38   S    
O43   H64   S    
C38   C39   S    
O13   P2    S    
Ba1   O8    S    
O9    P5    S    
O32   H40   S    
C3    O15   S    
C47   H56   S    
C70   H10   S    
O40   H59   S    
C1    C2    S    
C50   C51   A    
C60   H30   S    
