data_mof_unit_18385.cif
_audit_creation_date              2012-10-26T20:58:16-0400
_audit_creation_method            fapswitch 2.2
_symmetry_space_group_name_H-M    P1
_symmetry_Int_Tables_number       1
_space_group_crystal_system       triclinic
_cell_length_a                    10.613031
_cell_length_b                    14.703783
_cell_length_c                    14.672917
_cell_angle_alpha                 65.089458
_cell_angle_beta                  103.148983
_cell_angle_gamma                 102.667232
_cell_volume                      2002.40458643

loop_
_atom_site_label
_atom_site_type_symbol
_atom_type_description
_atom_site_fract_x
_atom_site_fract_y
_atom_site_fract_z
_atom_type_partial_charge
C1    C     C_R   0.479959 0.119576 0.312238 0.546257
C2    C     C_R   0.538404 0.535666 0.953936 0.038018
C3    C     C_R   0.555688 0.496368 0.885274 -0.152442
C4    C     C_R   0.523061 0.507678 0.127345 -0.153109
C5    C     C_R   0.549602 0.393222 0.912645 -0.115150
C6    C     C_R   0.531786 0.610989 0.100430 -0.118313
C7    C     C_R   0.713244 0.282280 0.671763 -0.148953
C8    C     C_R   0.287576 0.718035 0.327742 -0.148149
C9    C     C_R   0.680686 0.201472 0.641065 0.041834
C10   C     C_R   0.319169 0.798418 0.359054 0.043913
C11   C     C_R   0.520462 0.286189 0.507759 0.034744
C12   C     C_R   0.521695 0.880370 0.687865 0.546500
C13   C     C_R   0.480496 0.714270 0.491617 0.036104
C14   C     C_R   0.549659 0.371661 0.534575 0.002568
C15   C     C_R   0.452374 0.629261 0.464115 0.003109
C16   C     C_R   0.259559 0.000553 0.500038 0.552442
C17   C     C_R   0.740428 0.999473 0.499914 0.552159
C18   C     C_R   0.647786 0.367273 0.619267 0.043194
C19   C     C_R   0.354193 0.633600 0.379467 0.043584
C20   C     C_R   0.484676 0.459875 0.481856 0.022451
C21   C     C_R   0.518158 0.541421 0.516305 0.024592
C22   C     C_R   0.615859 0.532200 0.601828 -0.145679
C23   C     C_R   0.480571 0.289835 0.176370 -0.152287
C24   C     C_R   0.387784 0.469469 0.395795 -0.147532
C25   C     C_R   0.679376 0.447131 0.651684 -0.131263
C26   C     C_R   0.323778 0.554303 0.346266 -0.126623
C27   C     C_3   0.016668 0.010890 0.407673 -0.126241
C28   C     C_3   0.983286 0.989158 0.592212 -0.126163
C29   C     C_3   0.961936 0.087571 0.429616 -0.122427
C30   C     C_3   0.038011 0.912476 0.570267 -0.122808
C31   C     C_3   0.877071 0.998795 0.499656 0.044334
C32   C     C_3   0.122889 0.001253 0.500234 0.044094
C33   C     C_3   0.929477 0.922068 0.477699 -0.113695
C34   C     C_R   0.535532 0.710278 0.823758 -0.156307
C35   C     C_3   0.070473 0.077982 0.522185 -0.113521
C36   C     C_R   0.481808 0.186831 0.205016 -0.049872
C37   C     C_R   0.533360 0.813143 0.796028 -0.050995
C38   C     C_R   0.517130 0.219278 0.035347 0.268881
C39   C     C_R   0.540316 0.783355 0.972889 0.268466
C40   C     C_R   0.499466 0.151439 0.134707 -0.126037
C41   C     C_R   0.536822 0.849691 0.870555 -0.123038
C42   C     C_3   0.437199 0.114885 0.948650 -0.133182
C43   C     C_3   0.650025 0.880615 0.060722 -0.137760
C44   C     C_R   0.508854 0.360990 0.080804 -0.008841
C45   C     C_R   0.538986 0.641271 0.925398 -0.009866
C46   C     C_R   0.525001 0.324348 0.009255 0.062124
C47   C     C_R   0.537180 0.678668 0.999929 0.059769
C48   C     C_R   0.521971 0.467325 0.054886 0.038014
Cu1   Cu    Cu3+1 0.465750 0.918270 0.475680 0.925260
Cu2   Cu    Cu3+1 0.534250 0.081730 0.524320 0.924364
H1    H     H_    0.927451 0.159047 0.371997 0.116394
H2    H     H_    0.966274 0.980100 0.667678 0.106420
H3    H     H_    0.869063 0.858214 0.459530 0.121343
H4    H     H_    0.130877 0.141841 0.540349 0.121727
H5    H     H_    0.563949 0.367675 0.856885 0.165821
H6    H     H_    0.532553 0.637495 0.159223 0.165808
H7    H     H_    0.528851 0.685296 0.763468 0.129462
H8    H     H_    0.458206 0.312328 0.231198 0.122324
H9    H     H_    0.531743 0.929032 0.849048 0.129321
H10   H     H_    0.504859 0.071861 0.158179 0.130216
H11   H     H_    0.578604 0.543516 0.810163 0.098317
H12   H     H_    0.072465 0.840989 0.627881 0.115397
H13   H     H_    0.521291 0.461803 0.206910 0.105490
H14   H     H_    0.753786 0.443616 0.716963 0.110718
H15   H     H_    0.249716 0.557993 0.280757 0.113671
H16   H     H_    0.645845 0.589636 0.632700 0.085255
H17   H     H_    0.358968 0.412580 0.364160 0.088113
H18   H     H_    0.341026 0.141226 0.934119 0.112092
H19   H     H_    0.439768 0.039457 0.012408 0.134930
H20   H     H_    0.447185 0.105548 0.879533 0.146805
H21   H     H_    0.659877 0.953591 0.993852 0.123733
H22   H     H_    0.736598 0.841196 0.079227 0.112056
H23   H     H_    0.555902 0.718965 0.552967 0.115527
H24   H     H_    0.648302 0.898695 0.126567 0.147870
H25   H     H_    0.444900 0.281503 0.446490 0.115749
H26   H     H_    0.269013 0.864207 0.318411 0.122468
H27   H     H_    0.730149 0.135357 0.682161 0.122370
H28   H     H_    0.788512 0.278032 0.736670 0.099599
H29   H     H_    0.212204 0.722217 0.262910 0.095102
H30   H     H_    0.033655 0.019940 0.332203 0.106491
N1    N     N_R   0.585750 0.204560 0.560800 -0.233099
N2    N     N_R   0.414250 0.795440 0.439200 -0.232984
O1    O     O_R   0.454850 0.022100 0.338110 -0.508548
O2    O     O_3   0.532408 0.818573 0.045124 -0.585043
O3    O     O_R   0.545150 0.977900 0.661890 -0.509375
O4    O     O_R   0.512700 0.160150 0.379180 -0.505705
O5    O     O_R   0.487300 0.839850 0.620820 -0.506942
O6    O     O_R   0.287930 0.931000 0.479440 -0.500965
O7    O     O_R   0.712070 0.069000 0.520560 -0.500821
O8    O     O_R   0.345780 0.069050 0.520520 -0.508376
O9    O     O_R   0.654220 0.930950 0.479480 -0.508721
O10   O     O_3   0.542582 0.185620 0.966866 -0.586528

loop_
_geom_bond_atom_site_label_1
_geom_bond_atom_site_label_2
_ccdc_geom_bond_type
C23   H8    S    
C38   C40   A    
C16   O8    A    
C43   H22   S    
C40   H10   S    
C27   C29   S    
C34   C37   A    
Cu1   O5    S    
C17   O9    A    
C39   C41   A    
C27   C33   S    
C15   C19   A    
C4    H13   S    
C12   O3    A    
C24   C26   A    
C39   O2    S    
C4    C48   A    
C11   C14   A    
C38   O10   S    
C42   H20   S    
C12   C37   S    
C19   C26   A    
C14   C18   A    
C22   H16   S    
Cu2   O3    S    
C10   H26   S    
Cu2   O8    S    
C20   C24   A    
C28   C35   S    
C22   C25   A    
C8    H29   S    
C31   C33   S    
C12   O5    A    
C43   H24   S    
C45   C47   A    
C21   C22   A    
C35   H4    S    
C42   H18   S    
C43   O2    S    
Cu1   O6    S    
C18   C25   A    
Cu1   O9    S    
C44   C46   A    
C3    H11   S    
C2    C45   A    
C33   H3    S    
C8    C19   A    
C6    C47   A    
C32   C35   S    
C14   C20   A    
C36   C40   A    
C17   O7    A    
C41   H9    S    
C4    C6    A    
C27   H30   S    
C2    C48   A    
C13   N2    A    
C10   N2    A    
C42   H19   S    
C11   N1    A    
C23   C44   A    
C25   H14   S    
Cu1   N2    S    
C34   H7    S    
Cu2   O7    S    
C7    C18   A    
C34   C45   A    
C9    H27   S    
C7    H28   S    
C13   H23   S    
Cu1   Cu2   S    
C13   C15   A    
C17   C31   S    
C16   C32   S    
C3    C5    A    
C39   C47   A    
C29   H1    S    
C1    O4    A    
C7    C9    A    
C43   H21   S    
C30   C33   S    
C27   C32   S    
C26   H15   S    
C5    H5    S    
C28   C31   S    
C6    H6    S    
C24   H17   S    
C1    O1    A    
C5    C46   A    
C29   C35   S    
Cu1   O1    S    
C30   H12   S    
C2    C3    A    
C29   C31   S    
C11   H25   S    
C30   C32   S    
C28   H2    S    
C28   C30   S    
C42   O10   S    
C37   C41   A    
C38   C46   A    
Cu2   O4    S    
C15   C21   A    
C20   C21   A    
Cu2   N1    S    
C8    C10   A    
C23   C36   A    
C16   O6    A    
C44   C48   A    
C1    C36   S    
C9    N1    A    
