data_mof_unit_44205.cif
_audit_creation_date              2012-12-10T20:41:53-0500
_audit_creation_method            fapswitch 2.2
_symmetry_space_group_name_H-M    P1
_symmetry_Int_Tables_number       1
_space_group_crystal_system       triclinic
_cell_length_a                    14.971815
_cell_length_b                    15.168711
_cell_length_c                    9.888338
_cell_angle_alpha                 90.755369
_cell_angle_beta                  90.204129
_cell_angle_gamma                 90.366921
_cell_volume                      2245.41642034

loop_
_atom_site_label
_atom_site_type_symbol
_atom_type_description
_atom_site_fract_x
_atom_site_fract_y
_atom_site_fract_z
_atom_type_partial_charge
C1    C     C_R   0.380219 0.880135 0.499669 0.950165
C2    C     C_R   0.922936 0.513172 0.069500 0.154712
C3    C     C_R   0.577717 0.999721 0.072360 -0.101312
C4    C     C_R   0.077440 0.493331 0.072334 -0.098814
C5    C     C_R   0.577713 0.998438 0.928443 -0.064335
C6    C     C_R   0.077347 0.492342 0.928345 -0.121593
C7    C     C_R   0.422812 0.014049 0.927747 0.259473
C8    C     C_R   0.923972 0.519129 0.928287 0.169811
C9    C     C_3   0.337453 0.965450 0.908986 -0.543493
C10   C     C_3   0.835338 0.475656 0.912363 -0.534437
C11   C     C_3   0.338438 0.950236 0.062030 0.123639
C12   C     C_R   0.378004 0.117967 0.500470 0.915014
C13   C     C_3   0.835360 0.462253 0.065910 0.126327
C14   C     C_R   0.621888 0.117735 0.501053 0.865790
C15   C     C_R   0.624198 0.884350 0.499327 0.862518
C16   C     C_R   0.122169 0.617329 0.500896 0.881339
C17   C     C_R   0.117188 0.377337 0.499409 0.945270
C18   C     C_R   0.272088 0.209296 0.623131 -0.020182
C19   C     C_R   0.250979 0.812381 0.596954 -0.050751
C20   C     C_R   0.790792 0.728387 0.622152 -0.010887
C21   C     C_R   0.750834 0.312786 0.597646 -0.059799
C22   C     C_R   0.301766 0.173136 0.501827 -0.130547
C23   C     C_R   0.879767 0.380633 0.499655 0.950510
C24   C     C_R   0.318695 0.810034 0.501740 -0.183897
C25   C     C_R   0.825043 0.696179 0.501005 -0.191886
C26   C     C_R   0.817981 0.310879 0.501519 -0.180091
C27   C     C_R   0.254226 0.187888 0.382119 -0.285551
C28   C     C_R   0.333809 0.734182 0.423699 -0.257262
C29   C     C_R   0.810351 0.741849 0.381018 -0.230188
C30   C     C_R   0.832936 0.235344 0.423009 -0.251195
C31   C     C_R   0.750551 0.810854 0.379002 0.439710
C32   C     C_R   0.771224 0.166840 0.425384 0.447194
C33   C     C_R   0.187240 0.251232 0.379924 0.431617
C34   C     C_R   0.881020 0.621036 0.500388 0.964713
C35   C     C_R   0.271730 0.665857 0.425085 0.461154
C36   C     C_R   0.702809 0.831357 0.499215 -0.281728
C37   C     C_R   0.694381 0.177378 0.506830 -0.258811
C38   C     C_R   0.172079 0.300953 0.499271 -0.092290
C39   C     C_R   0.194633 0.676834 0.506001 -0.258422
C40   C     C_R   0.730686 0.795854 0.621659 0.072364
C41   C     C_R   0.689427 0.246068 0.600770 0.084212
C42   C     C_R   0.209094 0.273928 0.621433 -0.050097
C43   C     C_R   0.189121 0.746089 0.598838 0.082572
C44   C     C_3   0.676964 0.757844 0.734776 0.180616
C45   C     C_3   0.323332 0.253544 0.735993 0.251783
C46   C     C_3   0.613420 0.306498 0.631772 0.148045
C47   C     C_3   0.252734 0.325434 0.734374 0.158280
C48   C     C_3   0.113121 0.807125 0.627072 0.167414
C49   C     C_3   0.259114 0.994613 0.135339 -0.398572
C50   C     C_3   0.168939 0.948759 0.107307 -0.377541
C51   C     C_3   0.091732 0.003980 0.161609 -0.824876
C52   C     C_3   0.347922 0.850008 0.092639 -0.348143
C53   C     C_3   0.438507 0.808399 0.055259 -0.364110
C54   C     C_3   0.430973 0.708369 0.039606 -0.867211
C55   C     C_3   0.761741 0.514354 0.141526 -0.388268
C56   C     C_3   0.181896 0.881650 0.624746 0.193024
C57   C     C_3   0.666752 0.480314 0.111474 -0.371435
C58   C     C_3   0.597491 0.537812 0.182552 -0.827180
C59   C     C_3   0.836030 0.361792 0.098391 -0.354629
C60   C     C_3   0.923744 0.313095 0.066042 -0.351444
C61   C     C_3   0.908174 0.214164 0.046287 -0.840207
C62   C     C_3   0.742687 0.681826 0.733615 0.181752
C63   C     C_3   0.681432 0.381549 0.625881 0.227756
C64   C     C_R   0.421934 0.008022 0.069108 0.162944
H1    H     H_    0.272838 0.155035 0.289107 0.158748
H2    H     H_    0.191638 0.916206 0.723390 0.153011
H3    H     H_    0.783495 0.676265 0.827211 0.163241
H4    H     H_    0.692103 0.417242 0.723417 0.182192
H5    H     H_    0.640405 0.998380 0.126600 0.177880
H6    H     H_    0.139737 0.486245 0.126744 0.176587
H7    H     H_    0.640384 0.995047 0.874606 0.189439
H8    H     H_    0.139531 0.484250 0.874437 0.164143
H9    H     H_    0.284200 0.010275 0.873035 0.196985
H10   H     H_    0.344265 0.904829 0.845996 0.214006
H11   H     H_    0.784402 0.522486 0.876881 0.230938
H12   H     H_    0.392792 0.728824 0.361154 0.174125
H13   H     H_    0.838487 0.414188 0.850364 0.217273
H14   H     H_    0.100136 0.016944 0.271708 0.287590
H15   H     H_    0.088757 0.067881 0.108306 0.248910
H16   H     H_    0.027707 0.968109 0.144612 0.267048
H17   H     H_    0.159124 0.938308 0.996799 0.241632
H18   H     H_    0.167412 0.883481 0.156991 0.224045
H19   H     H_    0.272122 0.994751 0.246066 0.228681
H20   H     H_    0.254617 0.064361 0.102630 0.195135
H21   H     H_    0.409610 0.678087 0.135776 0.289266
H22   H     H_    0.382109 0.690635 0.958767 0.271427
H23   H     H_    0.842537 0.722381 0.287343 0.192254
H24   H     H_    0.496858 0.681186 0.010349 0.247727
H25   H     H_    0.463626 0.834206 0.958069 0.231376
H26   H     H_    0.488467 0.824190 0.135421 0.253017
H27   H     H_    0.333477 0.837701 0.199929 0.217696
H28   H     H_    0.294170 0.814598 0.035527 0.211925
H29   H     H_    0.606577 0.535390 0.293908 0.286446
H30   H     H_    0.604160 0.607270 0.149874 0.260414
H31   H     H_    0.529271 0.513665 0.156822 0.263325
H32   H     H_    0.653451 0.480876 0.000894 0.243211
H33   H     H_    0.659040 0.411623 0.147450 0.225019
H34   H     H_    0.891845 0.230142 0.360254 0.186046
H35   H     H_    0.774355 0.510218 0.252086 0.235470
H36   H     H_    0.765871 0.585271 0.114192 0.200914
H37   H     H_    0.873799 0.185778 0.134859 0.295849
H38   H     H_    0.866694 0.201596 0.954570 0.265134
H39   H     H_    0.973290 0.180648 0.032770 0.249932
H40   H     H_    0.954292 0.337920 0.971815 0.227895
H41   H     H_    0.972023 0.323844 0.150254 0.273614
H42   H     H_    0.818000 0.351108 0.205103 0.214397
H43   H     H_    0.780862 0.330230 0.039130 0.211439
H44   H     H_    0.729558 0.914707 0.275329 0.342694
H45   H     H_    0.606759 0.740720 0.706474 0.114765
H46   H     H_    0.752336 0.043395 0.383627 0.316366
H47   H     H_    0.160107 0.227090 0.189834 0.323493
H48   H     H_    0.249483 0.542992 0.375563 0.345456
H49   H     H_    0.647713 0.780374 0.921356 0.340180
H50   H     H_    0.537834 0.340623 0.780116 0.335777
H51   H     H_    0.315146 0.434523 0.770811 0.336345
H52   H     H_    0.030495 0.837573 0.768377 0.340341
H53   H     H_    0.261879 0.182790 0.873149 0.318820
H54   H     H_    0.163136 0.905566 0.431812 0.330015
H55   H     H_    0.669511 0.610697 0.606842 0.362138
H56   H     H_    0.560053 0.306239 0.552925 0.106293
H57   H     H_    0.659868 0.403008 0.432654 0.326115
H58   H     H_    0.210356 0.330721 0.826456 0.117050
H59   H     H_    0.061439 0.807483 0.545643 0.103535
H60   H     H_    0.391389 0.275301 0.705960 0.164755
N1    N     N_R   0.499140 0.000000 0.142800 -0.133109
N2    N     N_R   0.999140 0.500000 0.142800 -0.122708
N3    N     N_R   0.499160 0.000000 0.857150 -0.125313
N4    N     N_R   0.999160 0.500000 0.857150 -0.107745
O1    O     O_R   0.408400 0.908380 0.614690 -0.627333
O2    O     O_R   0.591610 0.908390 0.614650 -0.598648
O3    O     O_R   0.091610 0.591610 0.614650 -0.572624
O4    O     O_R   0.091610 0.408390 0.614650 -0.622677
O5    O     O_R   0.591590 0.091600 0.385310 -0.614313
O6    O     O_R   0.591590 0.908400 0.385310 -0.616764
O7    O     O_R   0.091590 0.591600 0.385310 -0.622856
O8    O     O_R   0.091590 0.408400 0.385310 -0.584222
O9    O     O_3   0.736447 0.851038 0.256881 -0.745714
O10   O     O_3   0.787556 0.092898 0.347104 -0.772454
O11   O     O_3   0.140737 0.268545 0.262252 -0.772706
O12   O     O_R   0.408400 0.091620 0.614690 -0.581945
O13   O     O_3   0.287826 0.592264 0.345362 -0.763179
O14   O     O_3   0.684601 0.810102 0.852138 -0.745940
O15   O     O_3   0.581672 0.293038 0.762994 -0.742936
O16   O     O_3   0.287215 0.406146 0.690065 -0.767307
O17   O     O_3   0.078634 0.793521 0.756651 -0.748497
O18   O     O_3   0.323520 0.204466 0.855902 -0.762209
O19   O     O_3   0.169784 0.940379 0.517100 -0.781783
O20   O     O_3   0.703541 0.601236 0.691830 -0.773444
O21   O     O_3   0.667363 0.438788 0.516881 -0.772132
O22   O     O_R   0.908400 0.408380 0.614690 -0.623889
O23   O     O_R   0.908400 0.591620 0.614690 -0.585246
O24   O     O_R   0.408370 0.908370 0.385350 -0.644236
O25   O     O_R   0.408370 0.091630 0.385350 -0.629934
O26   O     O_R   0.908370 0.408370 0.385350 -0.646826
O27   O     O_R   0.908370 0.591630 0.385350 -0.651864
O28   O     O_R   0.591610 0.091610 0.614650 -0.581978
Zn1   Zn    Zn3+2 0.500010 1.000000 0.653130 0.995627
Zn2   Zn    Zn3+2 0.000010 0.500000 0.653130 0.988135
Zn3   Zn    Zn3+2 0.499980 1.000000 0.346870 0.946539
Zn4   Zn    Zn3+2 0.999980 0.500000 0.346870 0.954157

loop_
_geom_bond_atom_site_label_1
_geom_bond_atom_site_label_2
_ccdc_geom_bond_type
C19   C56   S    
C30   C32   A    
C21   C26   A    
C5    H7    S    
C61   H39   S    
C61   H37   S    
C12   O25   A    
C48   H59   S    
C4    H6    S    
H47   O11   S    
C15   O6    A    
C53   C54   S    
C27   C33   A    
C6    H8    S    
C62   H3    S    
O2    Zn1   S    
C11   C49   S    
C49   H20   S    
O28   Zn1   S    
C3    H5    S    
C58   H29   S    
C38   C42   A    
C1    O1    A    
C18   C42   A    
H52   O17   S    
C20   C40   A    
C20   C25   A    
C12   C22   S    
H49   O14   S    
C1    O24   A    
C7    C9    S    
C23   C26   S    
C2    C13   S    
C16   O3    A    
C51   H16   S    
C63   O21   S    
C11   C52   S    
H51   O16   S    
C8    N4    A    
C28   C35   A    
C57   H32   S    
C55   H36   S    
C41   C46   S    
C12   O12   A    
C31   O9    S    
C43   C48   S    
N3    Zn1   S    
C25   C34   S    
C17   C38   S    
C44   H45   S    
O6    Zn3   S    
O24   Zn3   S    
C59   C60   S    
C62   O20   S    
C17   O4    A    
C20   C62   S    
C9    H9    S    
O1    Zn1   S    
C10   H13   S    
C19   C43   A    
C51   H15   S    
C45   C47   S    
C45   H60   S    
C25   C29   A    
C59   H42   S    
C29   H23   S    
O26   Zn4   S    
N4    Zn2   S    
C45   O18   S    
O23   Zn2   S    
H46   O10   S    
C4    C6    A    
C11   C64   S    
C54   H22   S    
C47   H58   S    
C39   C43   A    
C44   C62   S    
H55   O20   S    
C34   O27   A    
C47   O16   S    
C59   H43   S    
H53   O18   S    
O5    Zn3   S    
H48   O13   S    
O25   Zn3   S    
O3    Zn2   S    
C35   C39   A    
C58   H31   S    
C32   O10   S    
C27   H1    S    
O12   Zn1   S    
C10   H11   S    
C36   C40   A    
C57   H33   S    
C48   O17   S    
C5    N3    A    
C17   O8    A    
N1    Zn3   S    
C50   C51   S    
C46   H56   S    
C32   C37   A    
C9    C11   S    
C35   O13   S    
C21   C41   A    
C2    N2    A    
C44   O14   S    
C23   O22   A    
C26   C30   A    
C22   C27   A    
C55   C57   S    
C53   H25   S    
C49   C50   S    
C52   H28   S    
C9    H10   S    
C28   H12   S    
C18   C45   S    
C15   C36   S    
C52   C53   S    
C50   H18   S    
C48   C56   S    
C63   H4    S    
H54   O19   S    
O7    Zn4   S    
O22   Zn2   S    
C14   O28   A    
O27   Zn4   S    
C18   C22   A    
C2    C8    A    
C24   C28   A    
C3    C5    A    
C10   C13   S    
C54   H21   S    
C34   O23   A    
C3    N1    A    
C46   O15   S    
C13   C59   S    
C14   O5    A    
N2    Zn4   S    
C30   H34   S    
C33   C38   A    
C4    N2    A    
C46   C63   S    
H50   O15   S    
C49   H19   S    
C56   O19   S    
C61   H38   S    
C58   H30   S    
C51   H14   S    
C6    N4    A    
C29   C31   A    
C14   C37   S    
C54   H24   S    
C57   C58   S    
H44   O9    S    
C15   O2    A    
C33   O11   S    
C56   H2    S    
H57   O21   S    
C19   C24   A    
C42   C47   S    
C37   C41   A    
O4    Zn2   S    
C7    C64   A    
C21   C63   S    
C16   C39   S    
O8    Zn4   S    
C40   C44   S    
C1    C24   S    
C8    C10   S    
C64   N1    A    
C23   O26   A    
C55   H35   S    
C53   H26   S    
C31   C36   A    
C60   C61   S    
C52   H27   S    
C7    N3    A    
C60   H40   S    
C16   O7    A    
C60   H41   S    
C50   H17   S    
C13   C55   S    
