data_mof_unit_50588.cif
_audit_creation_date              2012-12-10T18:13:26-0500
_audit_creation_method            fapswitch 2.2
_symmetry_space_group_name_H-M    P1
_symmetry_Int_Tables_number       1
_space_group_crystal_system       triclinic
_cell_length_a                    12.595029
_cell_length_b                    13.149712
_cell_length_c                    16.72281
_cell_angle_alpha                 91.077167
_cell_angle_beta                  98.079052
_cell_angle_gamma                 97.356009
_cell_volume                      2717.68164346

loop_
_atom_site_label
_atom_site_type_symbol
_atom_type_description
_atom_site_fract_x
_atom_site_fract_y
_atom_site_fract_z
_atom_type_partial_charge
C1    C     C_R   0.559853 0.691295 0.512190 0.857572
C2    C     C_R   0.471606 0.481751 0.734543 -0.031980
C3    C     C_R   0.292485 0.066675 0.557193 -0.199575
C4    C     C_R   0.511417 0.492056 0.349080 0.856459
C5    C     C_R   0.403911 0.200636 0.499253 -0.048786
C6    C     C_R   0.699704 0.837255 0.500630 -0.192781
C7    C     C_R   0.729200 0.941636 0.493576 -0.149007
C8    C     C_R   0.654955 0.009477 0.501723 -0.191999
C9    C     C_R   0.550818 0.973720 0.521103 0.085578
C10   C     C_R   0.528085 0.870318 0.540655 0.083394
C11   C     C_R   0.468426 0.037061 0.521741 0.077080
C12   C     C_R   0.601664 0.447314 0.232961 -0.198334
C13   C     C_R   0.372510 0.002135 0.554217 0.174424
C14   C     C_R   0.358874 0.904126 0.584389 -0.252083
C15   C     C_R   0.435678 0.838825 0.577746 -0.200391
C16   C     C_R   0.439870 0.308766 0.492053 0.863919
C17   C     C_R   0.478132 0.133806 0.489374 -0.257181
C18   C     C_R   0.309060 0.166698 0.531040 -0.203093
C19   C     C_R   0.597932 0.800829 0.521475 -0.115272
C20   C     C_R   0.900869 0.347639 0.610472 -0.313795
C21   C     C_R   0.209687 0.628889 0.405941 0.020702
C22   C     C_R   0.107204 0.657561 0.386628 -0.253950
C23   C     C_R   0.543211 0.429952 0.866777 -0.148425
C24   C     C_R   0.022117 0.608862 0.422370 -0.202184
C25   C     C_R   0.039579 0.530697 0.477846 0.017302
C26   C     C_R   0.145653 0.504394 0.495400 0.238687
C27   C     C_R   0.956658 0.477927 0.516529 -0.013959
C28   C     C_R   0.485691 0.500029 0.650786 0.841740
C29   C     C_R   0.981462 0.400490 0.571788 0.200834
C30   C     C_R   0.086336 0.376354 0.587824 -0.305457
C31   C     C_R   0.167061 0.427582 0.549990 -0.229259
C32   C     C_R   0.849293 0.498430 0.502682 -0.055424
C33   C     C_R   0.796412 0.371655 0.594056 0.005178
C34   C     C_R   0.559213 0.459982 0.789908 -0.209788
C35   C     C_R   0.506542 0.458109 0.265149 -0.034187
C36   C     C_R   0.405543 0.421899 0.220454 -0.206468
C37   C     C_R   0.399494 0.378385 0.143644 -0.161803
C38   C     C_R   0.494300 0.373093 0.109697 0.205291
C39   C     C_R   0.595437 0.404927 0.155353 -0.169044
C40   C     C_R   0.368017 0.475191 0.757580 -0.207140
C41   C     C_R   0.351949 0.444620 0.834407 -0.181827
C42   C     C_R   0.438865 0.420170 0.888962 0.207315
C43   C     C_2   0.489448 0.352493 0.023123 -0.244339
C44   C     C_2   0.420585 0.397945 0.971619 -0.231423
H1    H     H_    0.331095 0.425409 0.245282 0.160548
H2    H     H_    0.732592 0.331552 0.623081 0.136258
H3    H     H_    0.640007 0.465226 0.773723 0.156088
H4    H     H_    0.106189 0.317442 0.629799 0.153095
H5    H     H_    0.918462 0.288417 0.652687 0.143189
H6    H     H_    0.822393 0.555219 0.461831 0.122382
H7    H     H_    0.276380 0.666549 0.378599 0.142840
H8    H     H_    0.944287 0.634121 0.405453 0.133017
H9    H     H_    0.093753 0.717405 0.344233 0.149828
H10   H     H_    0.245733 0.405409 0.564753 0.211819
H11   H     H_    0.298870 0.491471 0.715910 0.163875
H12   H     H_    0.271561 0.440075 0.851340 0.127371
H13   H     H_    0.355380 0.432330 0.993190 0.150543
H14   H     H_    0.669202 0.401606 0.129519 0.124676
H15   H     H_    0.613307 0.417212 0.908775 0.122908
H16   H     H_    0.680445 0.472393 0.267417 0.149781
H17   H     H_    0.555525 0.318664 0.002623 0.146704
H18   H     H_    0.320686 0.351838 0.109813 0.129521
H19   H     H_    0.287921 0.877239 0.611850 0.150155
H20   H     H_    0.250852 0.218393 0.539287 0.150122
H21   H     H_    0.219444 0.041154 0.582550 0.135028
H22   H     H_    0.545456 0.160928 0.458534 0.150468
H23   H     H_    0.755179 0.784834 0.487339 0.151041
H24   H     H_    0.682155 0.089541 0.494592 0.134916
H25   H     H_    0.808238 0.969706 0.478364 0.141787
H26   H     H_    0.422563 0.763860 0.602956 0.172525
N1    N     N_R   0.774070 0.445420 0.541180 -0.100783
N2    N     N_R   0.226730 0.554050 0.459240 -0.131731
O1    O     O_R   0.631480 0.627510 0.519670 -0.612148
O2    O     O_R   0.455770 0.662400 0.493360 -0.614136
O3    O     O_R   0.598240 0.480510 0.398910 -0.615791
O4    O     O_R   0.422540 0.515400 0.372600 -0.618651
O5    O     O_R   0.544230 0.337600 0.506640 -0.613139
O6    O     O_R   0.368520 0.372490 0.480330 -0.635010
O7    O     O_R   0.577460 0.484600 0.627400 -0.613595
O8    O     O_R   0.401760 0.519490 0.601090 -0.642992
Zn1   Zn    Zn3+2 0.617320 0.476700 0.517570 0.937986
Zn2   Zn    Zn3+2 0.382680 0.523300 0.482430 0.922982

loop_
_geom_bond_atom_site_label_1
_geom_bond_atom_site_label_2
_ccdc_geom_bond_type
C24   H8    S    
C27   C29   A    
C26   N2    A    
C41   C42   A    
C35   C36   A    
C37   H18   S    
C7    C8    A    
C23   H15   S    
C6    C19   A    
C17   H22   S    
C29   C30   A    
C23   C42   A    
C1    O2    A    
C30   H4    S    
C36   C37   A    
C37   C38   A    
C10   C15   A    
C30   C31   A    
C5    C17   A    
C3    C18   A    
C16   O5    A    
C28   O7    A    
C4    O3    A    
C11   C17   A    
C8    C9    A    
C5    C16   S    
C32   N1    A    
C9    C10   A    
C44   H13   S    
C3    C13   A    
C2    C34   A    
C4    C35   S    
C26   C31   A    
C13   C14   A    
C33   H2    S    
C3    H21   S    
C42   C44   S    
O2    Zn2   S    
O1    Zn1   S    
C22   H9    S    
C20   C29   A    
C1    C19   S    
C21   N2    A    
C24   C25   A    
O8    Zn2   S    
O4    Zn2   S    
O7    Zn1   S    
O3    Zn1   S    
C5    C18   A    
C25   C26   A    
C39   H14   S    
C43   C44   D    
C41   H12   S    
C20   H5    S    
O6    Zn2   S    
O5    Zn1   S    
C10   C19   A    
C40   H11   S    
C36   H1    S    
C12   C35   A    
C9    C11   A    
C32   H6    S    
C20   C33   A    
C40   C41   A    
C8    H24   S    
C22   C24   A    
C21   H7    S    
C43   H17   S    
C15   H26   S    
C6    H23   S    
C23   C34   A    
C27   C32   A    
C7    H25   S    
C6    C7    A    
C25   C27   A    
C1    O1    A    
C12   C39   A    
C38   C43   S    
C11   C13   A    
C18   H20   S    
C38   C39   A    
C14   H19   S    
C16   O6    A    
C31   H10   S    
C28   O8    A    
C4    O4    A    
C33   N1    A    
C12   H16   S    
C2    C40   A    
C14   C15   A    
C2    C28   S    
C34   H3    S    
C21   C22   A    
N2    Zn2   S    
N1    Zn1   S    
