data_mof_unit_13720.cif
_audit_creation_date              2012-12-10T17:15:55-0500
_audit_creation_method            fapswitch 2.2
_symmetry_space_group_name_H-M    P1
_symmetry_Int_Tables_number       1
_space_group_crystal_system       triclinic
_cell_length_a                    10.151959
_cell_length_b                    10.684503
_cell_length_c                    10.624716
_cell_angle_alpha                 91.294113
_cell_angle_beta                  95.131413
_cell_angle_gamma                 81.830682
_cell_volume                      1136.12501021

loop_
_atom_site_label
_atom_site_type_symbol
_atom_type_description
_atom_site_fract_x
_atom_site_fract_y
_atom_site_fract_z
_atom_type_partial_charge
C1    C     C_R   0.445099 0.518550 0.267175 0.927047
C2    C     C_2   0.489056 0.581720 0.932803 -0.293938
C3    C     C_2   0.067705 0.504363 0.477818 -0.260313
C4    C     C_R   0.496297 0.260986 0.488122 0.842061
C5    C     C_2   0.921955 0.522885 0.501636 0.497195
C6    C     C_R   0.555470 0.497806 0.733853 0.947587
C7    C     C_R   0.501035 0.739370 0.501718 0.858348
C8    C     C_R   0.361504 0.127543 0.262495 0.070460
C9    C     C_R   0.297265 0.058797 0.168341 -0.097736
C10   C     C_R   0.296003 0.930596 0.180807 -0.194536
C11   C     C_R   0.360875 0.869025 0.286896 -0.141404
C12   C     C_R   0.426194 0.066985 0.375352 0.040480
C13   C     C_R   0.427399 0.935196 0.384224 0.081466
C14   C     C_R   0.493615 0.127957 0.478430 -0.087153
C15   C     C_R   0.564978 0.060041 0.579229 -0.184765
C16   C     C_R   0.568566 0.931892 0.583959 -0.209153
C17   C     C_R   0.498558 0.871100 0.489146 -0.072167
C18   C     C_2   0.416006 0.543995 0.133630 -0.412212
C19   C     C_2   0.506981 0.588608 0.069313 0.487054
C20   C     C_2   0.585459 0.519659 0.867719 -0.367006
H1    H     H_    0.617363 0.107123 0.655814 0.148278
H2    H     H_    0.389735 0.613832 0.888081 0.172925
H3    H     H_    0.684037 0.485852 0.912879 0.169083
H4    H     H_    0.926764 0.686459 0.583014 0.309392
H5    H     H_    0.461459 0.274173 0.243764 0.181595
H6    H     H_    0.303441 0.310525 0.297744 0.216282
H7    H     H_    0.669798 0.664190 0.066803 0.335759
H8    H     H_    0.323862 0.518987 0.085989 0.120377
H9    H     H_    0.099435 0.447092 0.397418 0.150256
H10   H     H_    0.883695 0.377080 0.391488 0.109557
H11   H     H_    0.128081 0.597009 0.632483 0.174422
H12   H     H_    0.248640 0.105579 0.083646 0.148921
H13   H     H_    0.246337 0.878180 0.106999 0.145400
H14   H     H_    0.359187 0.768744 0.290805 0.152445
H15   H     H_    0.623471 0.880152 0.663327 0.154600
N1    N     N_2   0.157290 0.551390 0.551110 -0.188294
N2    N     N_2   0.842740 0.448550 0.448960 -0.185219
N3    N     N_3   0.362499 0.256776 0.235535 -0.483755
O1    O     O_R   0.568950 0.489660 0.307530 -0.546209
O2    O     O_3   0.619675 0.629478 0.130649 -0.735395
O3    O     O_R   0.348880 0.522640 0.340350 -0.641147
O4    O     O_R   0.610060 0.300270 0.483590 -0.616168
O5    O     O_R   0.389990 0.333260 0.516410 -0.609320
O6    O     O_R   0.651120 0.477360 0.659650 -0.572405
O7    O     O_R   0.431050 0.510340 0.692470 -0.607011
O8    O     O_R   0.610010 0.666740 0.483590 -0.536746
O9    O     O_R   0.389940 0.699730 0.516410 -0.627273
O10   O     O_3   0.868639 0.619322 0.578495 -0.725442
Zn1   Zn    Zn3+2 0.646940 0.477980 0.478090 1.021313
Zn2   Zn    Zn3+2 0.353060 0.522020 0.521910 0.932464

loop_
_geom_bond_atom_site_label_1
_geom_bond_atom_site_label_2
_ccdc_geom_bond_type
O6    Zn1   S    
C2    H2    S    
O5    Zn2   S    
C6    O7    A    
C5    N2    D    
H5    N3    S    
O9    Zn2   S    
N2    Zn1   S    
C9    C10   A    
C20   H3    S    
C13   C17   A    
H7    O2    S    
C8    C12   A    
C6    C20   S    
C8    C9    A    
N1    Zn2   S    
C6    O6    A    
C11   C13   A    
O8    Zn1   S    
C1    C18   S    
C4    O4    A    
O7    Zn2   S    
C3    N1    D    
C1    O3    A    
C4    O5    A    
C12   C14   A    
C10   H13   S    
C8    N3    S    
C16   H15   S    
C4    C14   S    
C5    O10   S    
C10   C11   A    
C1    O1    A    
O4    Zn1   S    
C2    C20   D    
C15   C16   A    
H4    O10   S    
C7    O8    A    
O3    Zn2   S    
C15   H1    S    
C18   H8    S    
C12   C13   A    
C18   C19   D    
C19   O2    S    
C3    H9    S    
C14   C15   A    
H6    N3    S    
C9    H12   S    
O1    Zn1   S    
C2    C19   S    
H11   N1    S    
C11   H14   S    
H10   N2    S    
C7    O9    A    
C16   C17   A    
C3    C5    S    
C7    C17   S    
