data_mof_unit_17209.cif
_audit_creation_date              2012-12-10T20:51:47-0500
_audit_creation_method            fapswitch 2.2
_symmetry_space_group_name_H-M    P1
_symmetry_Int_Tables_number       1
_space_group_crystal_system       triclinic
_cell_length_a                    8.087744
_cell_length_b                    8.923729
_cell_length_c                    16.552218
_cell_angle_alpha                 89.473109
_cell_angle_beta                  93.413234
_cell_angle_gamma                 89.787852
_cell_volume                      1192.44014427

loop_
_atom_site_label
_atom_site_type_symbol
_atom_type_description
_atom_site_fract_x
_atom_site_fract_y
_atom_site_fract_z
_atom_type_partial_charge
C1    C     C_R   0.500002 0.217960 0.498817 0.914938
C2    C     C_R   0.499789 0.782080 0.499700 0.942401
C3    C     C_R   0.520044 0.494720 0.654847 0.915509
C4    C     C_R   0.480436 0.500119 0.345482 0.889918
C5    C     C_R   0.525132 0.473753 0.743176 -0.117714
C6    C     C_R   0.476574 0.475907 0.258257 -0.110708
C7    C     C_R   0.401210 0.547521 0.785345 0.068182
C8    C     C_R   0.578908 0.567515 0.211900 0.090342
C9    C     C_R   0.349405 0.482333 0.857524 0.070123
C10   C     C_R   0.626201 0.514569 0.136481 0.090423
C11   C     C_R   0.450909 0.373033 0.897123 0.247285
C12   C     C_R   0.551370 0.384572 0.103691 0.202641
C13   C     C_R   0.582405 0.304816 0.858170 -0.079924
C14   C     C_R   0.439900 0.298670 0.147556 -0.062715
C15   C     C_R   0.623664 0.357718 0.781369 -0.002986
C16   C     C_R   0.402626 0.343567 0.225818 -0.006940
C17   C     C_1   0.499997 0.065192 0.498562 -0.216137
C18   C     C_1   0.499567 0.934814 0.498965 -0.195703
N1    N     N_1   0.073640 0.500030 0.499990 -0.039686
N2    N     N_1   0.926360 0.499970 0.500010 -0.041521
N3    N     N_2   0.435045 0.357182 0.981217 -0.127758
N4    N     N_2   0.570596 0.359275 0.020820 -0.150379
O1    O     O_R   0.636850 0.285340 0.500000 -0.606162
O2    O     O_R   0.363150 0.714660 0.500000 -0.614586
O3    O     O_R   0.363100 0.285350 0.500000 -0.615931
O4    O     O_R   0.636900 0.714650 0.500000 -0.615979
O5    O     O_R   0.652140 0.498630 0.616140 -0.624680
O6    O     O_R   0.347860 0.501370 0.383860 -0.615067
O7    O     O_R   0.378390 0.498650 0.616130 -0.618543
O8    O     O_R   0.621610 0.501350 0.383870 -0.625940
Zn1   Zn    Zn3+2 0.682780 0.499990 0.500010 0.962752
Zn2   Zn    Zn3+2 0.317220 0.500010 0.499990 0.965733
C19   C     C_3   0.631927 0.722408 0.243188 -0.396085
C20   C     C_3   0.482727 0.826056 0.250552 -0.864099
H1    H     H_    0.410247 0.835098 0.191563 0.279411
H2    H     H_    0.400870 0.784501 0.297224 0.245654
H3    H     H_    0.526462 0.939503 0.268454 0.246657
H4    H     H_    0.702469 0.713082 0.302497 0.219782
H5    H     H_    0.715790 0.781574 0.203622 0.223912
C21   C     C_3   0.334844 0.700905 0.755772 -0.404285
C22   C     C_3   0.474136 0.813162 0.744314 -0.848080
H6    H     H_    0.555725 0.820210 0.800577 0.279558
H7    H     H_    0.549485 0.781935 0.693228 0.240408
H8    H     H_    0.419816 0.925746 0.730662 0.256801
H9    H     H_    0.256809 0.690502 0.698737 0.228666
H10   H     H_    0.257081 0.754863 0.799990 0.211172
C23   C     C_3   0.754136 0.595575 0.088183 -0.457261
C24   C     C_3   0.674278 0.717190 0.032976 -0.722861
H11   H     H_    0.584884 0.666849 0.987589 0.255001
H12   H     H_    0.608032 0.800611 0.068454 0.299170
H13   H     H_    0.771518 0.775844 0.000340 0.248577
H14   H     H_    0.855372 0.642316 0.128382 0.197090
H15   H     H_    0.819316 0.515131 0.050163 0.213963
C25   C     C_3   0.188751 0.530507 0.894644 -0.387012
C26   C     C_3   0.083623 0.397577 0.920533 -0.867421
H16   H     H_    0.092534 0.303263 0.877757 0.257064
H17   H     H_    0.123446 0.358135 0.982431 0.263440
H18   H     H_    0.951677 0.432279 0.921534 0.235117
H19   H     H_    0.217921 0.603794 0.947469 0.217605
H20   H     H_    0.106759 0.593350 0.850244 0.201919
C27   C     C_2   0.666108 0.170343 0.895648 0.459784
H21   H     H_    0.799324 0.156967 0.896955 0.038480
O9    O     O_2   0.584610 0.070807 0.924665 -0.522622
C28   C     C_2   0.365690 0.160132 0.111977 0.418603
H22   H     H_    0.237627 0.131979 0.120767 0.055756
O10   O     O_2   0.448560 0.074258 0.073989 -0.527796
C29   C     C_3   0.768196 0.286405 0.740297 -0.385926
C30   C     C_3   0.715070 0.145659 0.694382 -0.815561
H23   H     H_    0.701638 0.051506 0.737581 0.248911
H24   H     H_    0.595119 0.164242 0.659781 0.251631
H25   H     H_    0.810443 0.114466 0.651928 0.254439
H26   H     H_    0.829553 0.365752 0.700412 0.238401
H27   H     H_    0.870798 0.257284 0.784712 0.177722
C31   C     C_3   0.289779 0.246915 0.275512 -0.392290
C32   C     C_3   0.110967 0.303381 0.266695 -0.800373
H28   H     H_    0.102474 0.421640 0.286248 0.272248
H29   H     H_    0.062392 0.295941 0.202682 0.234443
H30   H     H_    0.032251 0.233574 0.304713 0.246160
H31   H     H_    0.292531 0.127582 0.257701 0.183327
H32   H     H_    0.333237 0.242363 0.340070 0.219614

loop_
_geom_bond_atom_site_label_1
_geom_bond_atom_site_label_2
_ccdc_geom_bond_type
C26   H16   S    
C2    C18   S    
C20   H3    S    
C22   H6    S    
N1    N2    T    
C25   H20   S    
C21   H10   S    
C19   H5    S    
C16   C31   S    
C20   H1    S    
O7    Zn2   S    
O8    Zn1   S    
C12   N4    S    
C27   O9    D    
C29   H26   S    
C3    O7    A    
C24   H13   S    
C30   H23   S    
C7    C21   S    
C29   H27   S    
C23   H15   S    
O3    Zn2   S    
C24   H12   S    
C15   C29   S    
O4    Zn1   S    
C31   H32   S    
N3    N4    D    
C1    O3    A    
C22   H7    S    
N1    Zn2   S    
C4    O6    A    
C19   C20   S    
C25   H19   S    
C21   H9    S    
C31   C32   S    
O5    Zn1   S    
C29   C30   S    
O6    Zn2   S    
C4    C6    S    
C5    C7    A    
C6    C8    A    
C11   N3    S    
C28   O10   D    
C32   H28   S    
O2    Zn2   S    
C9    C11   A    
C23   C24   S    
C14   C28   S    
C17   C18   T    
C2    O4    A    
C32   H29   S    
C10   C12   A    
C30   H24   S    
C24   H11   S    
C12   C14   A    
C1    O1    A    
C31   H31   S    
C13   C15   A    
C2    O2    A    
C22   H8    S    
C14   C16   A    
C7    C9    A    
C25   C26   S    
C21   C22   S    
C3    C5    S    
C23   H14   S    
C1    C17   S    
C19   H4    S    
C28   H22   S    
C26   H17   S    
C11   C13   A    
C30   H25   S    
C3    O5    A    
C20   H2    S    
C8    C19   S    
C27   H21   S    
C32   H30   S    
C5    C15   A    
C6    C16   A    
C13   C27   S    
C8    C10   A    
C26   H18   S    
C10   C23   S    
C9    C25   S    
C4    O8    A    
O1    Zn1   S    
N2    Zn1   S    
