data_mof_unit_18343.cif
_audit_creation_date              2012-12-11T15:42:50-0500
_audit_creation_method            fapswitch 2.2
_symmetry_space_group_name_H-M    P1
_symmetry_Int_Tables_number       1
_space_group_crystal_system       triclinic
_cell_length_a                    6.931301
_cell_length_b                    14.561031
_cell_length_c                    16.18971
_cell_angle_alpha                 90.340668
_cell_angle_beta                  90.0846
_cell_angle_gamma                 89.994233
_cell_volume                      1633.94638938

loop_
_atom_site_label
_atom_site_type_symbol
_atom_type_description
_atom_site_fract_x
_atom_site_fract_y
_atom_site_fract_z
_atom_type_partial_charge
O1    O     O_R   0.505810 0.583360 0.413880 -0.545870
O2    O     O_R   0.175870 0.595480 0.585520 -0.505238
O3    O     O_R   0.005540 0.416640 0.586120 -0.515393
C1    C     C_R   0.345032 0.617546 0.614897 0.771910
O4    O     O_R   0.176100 0.594390 0.414490 -0.545932
O5    O     O_R   0.005770 0.415540 0.413870 -0.548658
C2    C     C_R   0.344968 0.616492 0.385930 0.694892
O6    O     O_R   0.505580 0.584460 0.586130 -0.514162
O7    O     O_3   0.339190 0.441320 0.500000 -0.377144
V1    V     V_3+5 0.064350 0.510890 0.500000 1.511814
O8    O     O_R   0.676050 0.404520 0.414480 -0.549433
C3    C     C_R   0.845080 0.382007 0.385764 0.667318
O9    O     O_R   0.675830 0.405610 0.585510 -0.549240
C4    C     C_R   0.845088 0.386638 0.615811 0.718769
V2    V     V_3+5 0.564340 0.489110 0.500000 1.468493
O10   O     O_3   0.839370 0.558680 0.500000 -0.355684
C5    C     C_2   0.725581 0.214322 0.789602 -0.083198
C6    C     C_2   0.886131 0.171190 0.815435 -0.264655
H1    H     H_    0.589691 0.202246 0.821035 0.150446
H2    H     H_    0.018856 0.177057 0.780547 0.176030
C7    C     C_2   0.720186 0.272342 0.714428 -0.174658
C8    C     C_2   0.861347 0.330818 0.691398 0.089764
H3    H     H_    0.589478 0.268186 0.677499 0.135851
C9    C     C_R   0.047293 0.223530 0.219050 -0.140645
H4    H     H_    0.188009 0.205676 0.194840 0.118920
C10   C     C_R   0.035960 0.287556 0.283776 -0.143407
H5    H     H_    0.168550 0.317194 0.307251 0.116949
C11   C     C_R   0.856373 0.313098 0.317486 -0.045336
C12   C     C_R   0.688459 0.272692 0.284661 -0.148082
H6    H     H_    0.547750 0.290518 0.308892 0.116420
C13   C     C_R   0.699798 0.208647 0.219946 -0.106840
H7    H     H_    0.567235 0.178937 0.196515 0.127224
C14   C     C_R   0.879359 0.183269 0.186117 -0.037737
C15   C     C_R   0.197153 0.741785 0.705676 0.435402
C16   C     C_R   0.207979 0.802243 0.773532 -0.231782
H8    H     H_    0.082046 0.842840 0.789126 0.146156
C17   C     C_R   0.379106 0.812304 0.819216 -0.172920
C18   C     C_R   0.539002 0.758721 0.797257 -0.231720
H9    H     H_    0.673298 0.765664 0.831056 0.154753
C19   C     C_R   0.527711 0.693734 0.732881 0.434138
C20   C     C_R   0.356695 0.685287 0.684944 -0.262789
C21   C     C_R   0.230338 0.678429 0.250089 -0.215330
H10   H     H_    0.128668 0.622055 0.246401 0.126647
C22   C     C_R   0.241039 0.741934 0.184639 0.421752
C23   C     C_R   0.380103 0.813169 0.186830 -0.192317
C24   C     C_R   0.502613 0.820492 0.256621 0.194767
C25   C     C_R   0.491788 0.755745 0.320408 -0.172706
H11   H     H_    0.587205 0.762401 0.373173 0.153217
C26   C     C_R   0.355178 0.684727 0.318126 -0.139339
O11   O     O_R   0.230120 0.912300 0.917180 -0.541534
O12   O     O_R   0.559740 0.902430 0.088770 -0.537181
O13   O     O_R   0.729930 0.081310 0.089370 -0.532365
C27   C     C_R   0.390952 0.880829 0.117970 0.800279
O14   O     O_R   0.559840 0.901330 0.917750 -0.551439
O15   O     O_R   0.730030 0.080210 0.917120 -0.543894
C28   C     C_R   0.390691 0.879444 0.888675 0.738944
O16   O     O_R   0.230020 0.913400 0.089430 -0.524532
O17   O     O_3   0.396460 0.055470 0.003290 -0.376272
V3    V     V_3+5 0.671360 0.985960 0.003250 1.442570
O18   O     O_R   0.059740 0.091300 0.917690 -0.541845
C29   C     C_R   0.891108 0.111026 0.888107 0.726435
O19   O     O_R   0.059640 0.092400 0.088720 -0.546195
C30   C     C_R   0.890634 0.114679 0.117602 0.731890
V4    V     V_3+5 0.171350 0.007820 0.003190 1.460506
O20   O     O_3   0.896380 0.938200 0.003220 -0.371778
O21   O     O_3   0.688847 0.641574 0.714774 -0.518660
C31   C     C_3   0.700127 0.568800 0.771566 -0.125151
H12   H     H_    0.830141 0.527634 0.756977 0.183602
H13   H     H_    0.572477 0.522715 0.766177 0.126253
H14   H     H_    0.716362 0.594303 0.836136 0.119480
O22   O     O_3   0.130958 0.728504 0.114140 -0.562936
C32   C     C_3   0.936088 0.747768 0.132107 -0.147902
H15   H     H_    0.874410 0.697539 0.176263 0.117553
H16   H     H_    0.918902 0.818984 0.156015 0.182517
H17   H     H_    0.851465 0.742502 0.074060 0.152197
Br1   Br    Br    0.676349 0.922032 0.271812 -0.611757
Br2   Br    Br    0.083091 0.357961 0.760221 -0.615652
O23   O     O_3   0.025965 0.735448 0.662212 -0.514280
C33   C     C_3   0.018482 0.807637 0.604682 -0.154566
H18   H     H_    0.142502 0.804600 0.561070 0.103014
H19   H     H_    0.013078 0.875698 0.636222 0.108451
H20   H     H_    0.884434 0.800297 0.567693 0.162832

loop_
_geom_bond_atom_site_label_1
_geom_bond_atom_site_label_2
_ccdc_geom_bond_type
O15   V3    S    
O11   V4    S    
C16   H8    S    
C1    O6    A    
C24   Br1   S    
C25   C26   A    
C23   C24   A    
C10   H5    S    
O19   C30   A    
C3    C11   S    
C11   C12   A    
C16   C17   A    
C17   C18   A    
C9    C10   A    
O5    C3    A    
C18   H9    S    
C1    C20   S    
V2    O10   S    
C22   O22   S    
C15   C16   A    
O19   V4    S    
C17   C28   S    
O8    V2    S    
C13   H7    S    
C13   C14   A    
O1    V2    S    
O7    V1    S    
O21   C31   S    
C23   C27   S    
C19   O21   S    
O9    C4    A    
C15   C20   A    
C21   C22   A    
C32   H17   S    
O14   V3    S    
O17   V4    S    
O14   C28   A    
C31   H12   S    
C9    H4    S    
C2    C26   S    
C32   H16   S    
C33   H19   S    
C27   O16   A    
O23   C33   S    
O17   V3    S    
O11   C28   A    
O18   C29   A    
O12   C27   A    
O2    C1    A    
C12   H6    S    
O13   V3    S    
C25   H11   S    
C14   C30   S    
C5    C6    D    
O3    C4    A    
C19   C20   A    
O6    V2    S    
O9    V2    S    
O12   V3    S    
C21   H10   S    
O2    V1    S    
C22   C23   A    
O16   V4    S    
O4    C2    A    
C24   C25   A    
O1    C2    A    
C8    Br2   S    
C32   H15   S    
O13   C30   A    
O5    V1    S    
C33   H20   S    
O8    C3    A    
C6    C29   S    
C10   C11   A    
C9    C14   A    
O18   V4    S    
C31   H14   S    
V4    O20   S    
C4    C8    S    
C7    H3    S    
O7    V2    S    
O22   C32   S    
C12   C13   A    
O3    V1    S    
V1    O10   S    
C15   O23   S    
C18   C19   A    
O15   C29   A    
C5    H1    S    
C6    H2    S    
C5    C7    S    
C21   C26   A    
C33   H18   S    
O4    V1    S    
C31   H13   S    
C7    C8    D    
V3    O20   S    
