data_mof_unit_31106.cif
_audit_creation_date              2012-12-11T15:39:32-0500
_audit_creation_method            fapswitch 2.2
_symmetry_space_group_name_H-M    P1
_symmetry_Int_Tables_number       1
_space_group_crystal_system       triclinic
_cell_length_a                    14.350294
_cell_length_b                    14.785909
_cell_length_c                    33.195933
_cell_angle_alpha                 97.579873
_cell_angle_beta                  90.323242
_cell_angle_gamma                 118.914746
_cell_volume                      6092.06549851

loop_
_atom_site_label
_atom_site_type_symbol
_atom_type_description
_atom_site_fract_x
_atom_site_fract_y
_atom_site_fract_z
_atom_type_partial_charge
C1    C     C_R   0.616954 0.910278 0.437029 0.543765
C2    C     C_R   0.712435 0.438133 0.949132 0.532929
C3    C     C_R   0.754925 0.819645 0.765598 -0.115001
C4    C     C_R   0.747591 0.840597 0.726497 -0.114906
C5    C     C_R   0.685934 0.759262 0.694739 0.032847
C6    C     C_R   0.632155 0.655729 0.703075 -0.111948
C7    C     C_R   0.639430 0.634621 0.742594 -0.110866
C8    C     C_R   0.701013 0.716719 0.774184 0.032926
C9    C     C_R   0.570632 0.735280 0.633019 -0.119626
C10   C     C_R   0.553236 0.771494 0.598540 -0.126966
C11   C     C_R   0.739252 0.905353 0.604587 -0.128757
C12   C     C_3   0.173676 0.681001 0.379111 -0.386920
C13   C     C_R   0.743505 0.716479 0.945933 0.567123
C14   C     C_R   0.830853 0.442426 0.165547 -0.119601
C15   C     C_R   0.828469 0.454849 0.124698 -0.125371
C16   C     C_R   0.783654 0.359396 0.247090 -0.115662
C17   C     C_R   0.776522 0.346779 0.288013 -0.113498
C18   C     C_R   0.734539 0.397882 0.314484 0.030263
C19   C     C_R   0.705861 0.466624 0.299920 -0.116492
C20   C     C_R   0.712481 0.478769 0.258980 -0.114129
C21   C     C_R   0.748300 0.422724 0.232071 0.029906
C22   C     C_R   0.743357 0.426526 0.188126 0.032007
C23   C     C_R   0.607157 0.346179 0.368534 -0.118772
C24   C     C_R   0.594072 0.205641 0.456643 0.543144
C25   C     C_R   0.572402 0.298780 0.403108 -0.128237
C26   C     C_R   0.741309 0.301753 0.413382 -0.127083
C27   C     C_R   0.776179 0.349496 0.378859 -0.122863
C28   C     C_R   0.707836 0.368474 0.355306 0.033224
C29   C     C_R   0.637600 0.272471 0.424897 0.022160
C30   C     C_R   0.244612 0.879268 0.393184 0.031462
C31   C     C_R   0.257389 0.970067 0.378858 -0.141269
C32   C     C_R   0.233124 0.968355 0.338043 -0.124324
C33   C     C_R   0.756919 0.868336 0.638834 -0.119172
C34   C     C_R   0.194234 0.875747 0.310735 0.025016
C35   C     C_R   0.172896 0.782948 0.324714 -0.089429
C36   C     C_R   0.295256 0.892658 0.434353 0.541102
C37   C     C_R   0.197179 0.783110 0.365852 -0.004500
C38   C     C_R   0.194631 0.807254 0.163184 -0.112910
C39   C     C_R   0.167201 0.785997 0.121310 -0.125737
C40   C     C_R   0.090477 0.901233 0.129378 -0.128646
C41   C     C_R   0.117526 0.921942 0.171360 -0.114744
C42   C     C_R   0.166025 0.871869 0.188405 0.039565
C43   C     C_1   0.176374 0.877274 0.231768 -0.029479
C44   C     C_R   0.671940 0.785248 0.654263 0.033353
C45   C     C_1   0.183489 0.877372 0.267889 -0.031508
C46   C     C_R   0.110511 0.829050 0.104269 0.020443
C47   C     C_R   0.637666 0.878499 0.395556 0.020140
C48   C     C_R   0.613857 0.904740 0.551562 0.543703
C49   C     C_R   0.553097 0.799500 0.368582 -0.129739
C50   C     C_R   0.565433 0.787026 0.326892 -0.117019
C51   C     C_R   0.662406 0.852671 0.311913 0.038274
C52   C     C_R   0.749243 0.926151 0.338796 -0.114293
C53   C     C_R   0.737133 0.938928 0.380459 -0.126011
C54   C     C_R   0.778813 0.919570 0.174789 -0.115259
C55   C     C_R   0.636583 0.858973 0.584739 0.019353
C56   C     C_R   0.793816 0.906759 0.133338 -0.128836
C57   C     C_R   0.618778 0.752136 0.121653 -0.125597
C58   C     C_R   0.603896 0.765310 0.163019 -0.114938
C59   C     C_R   0.685399 0.846755 0.189773 0.039940
C60   C     C_R   0.589771 0.199611 0.570824 0.541721
C61   C     C_1   0.676979 0.849669 0.232805 -0.032945
C62   C     C_1   0.670442 0.850390 0.268881 -0.033327
C63   C     C_R   0.715722 0.820209 0.106720 0.021805
C64   C     C_R   0.623901 0.251854 0.613488 0.019738
C65   C     C_R   0.559566 0.284429 0.635881 -0.129277
C66   C     C_R   0.052234 0.781368 0.063725 0.544514
C67   C     C_R   0.577279 0.310724 0.678222 -0.116535
C68   C     C_R   0.659479 0.305049 0.698533 0.041426
C69   C     C_R   0.728622 0.280129 0.676332 -0.114294
C70   C     C_R   0.711316 0.254090 0.633973 -0.129504
C71   C     C_R   0.764543 0.349525 0.844615 -0.115928
C72   C     C_R   0.288842 0.886683 0.548441 0.544229
C73   C     C_R   0.773273 0.373754 0.887023 -0.129244
C74   C     C_R   0.594644 0.352373 0.884586 -0.126096
C75   C     C_R   0.586151 0.328107 0.842190 -0.113291
C76   C     C_R   0.672510 0.330411 0.822146 0.042186
C77   C     C_R   0.744036 0.486984 0.066270 0.546207
C78   C     C_1   0.669695 0.321462 0.778606 -0.031584
C79   C     C_1   0.666504 0.315261 0.742114 -0.032239
C80   C     C_R   0.690245 0.380179 0.907306 0.021556
C81   C     C_R   0.064169 0.751150 0.907538 0.021642
C82   C     C_R   0.102036 0.849752 0.895581 -0.143122
C83   C     C_R   0.117611 0.861204 0.854771 -0.127975
C84   C     C_R   0.738304 0.451109 0.105926 0.020709
C85   C     C_R   0.095597 0.774179 0.825546 0.031207
C86   C     C_R   0.064494 0.677204 0.838070 -0.117870
C87   C     C_R   0.049558 0.665923 0.878790 -0.120277
C88   C     C_R   0.742965 0.789211 0.066421 0.553271
C89   C     C_R   0.143429 0.730990 0.756563 -0.113384
C90   C     C_R   0.147497 0.737945 0.715253 -0.111293
C91   C     C_R   0.108617 0.796730 0.698446 0.032940
C92   C     C_R   0.063836 0.847093 0.723530 -0.109667
C93   C     C_R   0.060065 0.840377 0.765014 -0.110008
C94   C     C_R   0.100491 0.782747 0.781871 0.032978
C95   C     C_R   0.174476 0.917568 0.647208 -0.120945
C96   C     C_R   0.648259 0.428158 0.127958 -0.124116
C97   C     C_R   0.219975 0.939995 0.610387 -0.129194
C98   C     C_R   0.163465 0.756327 0.589395 -0.128643
C99   C     C_R   0.021488 0.732040 0.947352 0.531972
C100  C     C_R   0.117222 0.733838 0.626036 -0.121945
C101  C     C_R   0.127856 0.815121 0.656095 0.032267
C102  C     C_R   0.219888 0.860260 0.582263 0.021913
C103  C     C_R   0.728115 0.701667 0.901142 0.016795
C104  C     C_R   0.629220 0.636221 0.878687 -0.124358
C105  C     C_R   0.620147 0.635358 0.836397 -0.116035
C106  C     C_R   0.710222 0.698547 0.816460 0.032618
C107  C     C_R   0.809818 0.755764 0.838704 -0.114577
C108  C     C_R   0.650962 0.416322 0.168742 -0.119783
C109  C     C_R   0.818220 0.758375 0.880427 -0.123190
Cr1   Cr    Cr6+3 0.424820 0.846020 0.489780 1.004183
Cr2   Cr    Cr6+3 0.657880 0.078580 0.505700 1.007999
Cr3   Cr    Cr6+3 0.417280 0.075360 0.504550 1.007401
Cr4   Cr    Cr6+3 0.903360 0.812540 0.006510 1.004208
Cr5   Cr    Cr6+3 0.914630 0.587050 0.006280 1.004623
Cr6   Cr    Cr6+3 0.673560 0.582680 0.008540 1.009520
H1    H     H_    0.577443 0.424297 0.114314 0.129000
H2    H     H_    0.046077 0.934885 0.117222 0.124167
H3    H     H_    0.899194 0.472696 0.108512 0.128333
H4    H     H_    0.249059 0.040424 0.327478 0.110497
H5    H     H_    0.869507 0.960053 0.122789 0.120484
H6    H     H_    0.824768 0.976872 0.327378 0.106765
H7    H     H_    0.803767 0.000220 0.400470 0.126209
H8    H     H_    0.475424 0.752030 0.379223 0.123616
H9    H     H_    0.531168 0.708879 0.174423 0.104238
H10   H     H_    0.557147 0.684909 0.101853 0.121334
H11   H     H_    0.497940 0.729640 0.306191 0.105690
H12   H     H_    0.492204 0.277364 0.411325 0.123223
H13   H     H_    0.848057 0.394988 0.903536 0.123614
H14   H     H_    0.854790 0.367531 0.369583 0.099559
H15   H     H_    0.831629 0.351044 0.829275 0.103094
H16   H     H_    0.792693 0.275915 0.691881 0.105592
H17   H     H_    0.762316 0.229418 0.617648 0.126667
H18   H     H_    0.491846 0.283816 0.621018 0.123543
H19   H     H_    0.514404 0.312948 0.824946 0.103813
H20   H     H_    0.529411 0.356938 0.899168 0.126456
H21   H     H_    0.523717 0.330510 0.695246 0.099703
H22   H     H_    0.113890 0.916471 0.917369 0.116628
H23   H     H_    0.902700 0.450031 0.179977 0.103493
H24   H     H_    0.019106 0.588723 0.887157 0.124271
H25   H     H_    0.079472 0.653910 0.632017 0.105077
H26   H     H_    0.797828 0.292179 0.298319 0.104386
H27   H     H_    0.176487 0.687354 0.768914 0.101647
H28   H     H_    0.143794 0.937238 0.845874 0.104583
H29   H     H_    0.033385 0.892811 0.711158 0.098944
H30   H     H_    0.025698 0.880326 0.783824 0.090249
H31   H     H_    0.183972 0.981646 0.669985 0.102069
H32   H     H_    0.046145 0.608682 0.816094 0.102679
H33   H     H_    0.160392 0.693219 0.567712 0.123589
H34   H     H_    0.793853 0.283620 0.429960 0.122407
H35   H     H_    0.558765 0.590152 0.893906 0.122177
H36   H     H_    0.811409 0.315461 0.226771 0.103781
H37   H     H_    0.895350 0.808401 0.896893 0.137937
H38   H     H_    0.836514 0.907007 0.654064 0.100187
H39   H     H_    0.787365 0.921353 0.721544 0.099803
H40   H     H_    0.801030 0.884879 0.789514 0.101691
H41   H     H_    0.542318 0.590027 0.819791 0.101431
H42   H     H_    0.584335 0.591317 0.679123 0.100258
H43   H     H_    0.597710 0.554575 0.748418 0.101259
H44   H     H_    0.503318 0.671917 0.644291 0.101042
H45   H     H_    0.183687 0.730197 0.102727 0.124115
H46   H     H_    0.473095 0.733834 0.583855 0.129014
H47   H     H_    0.880863 0.803017 0.824110 0.106526
H48   H     H_    0.581612 0.401492 0.185457 0.105611
H49   H     H_    0.805279 0.971920 0.594324 0.123635
H50   H     H_    0.674846 0.508078 0.319888 0.105792
H51   H     H_    0.687122 0.529957 0.248068 0.109451
H52   H     H_    0.552342 0.358930 0.350693 0.102552
H53   H     H_    0.249205 0.679659 0.384894 0.150719
H54   H     H_    0.129751 0.670304 0.407077 0.143774
H55   H     H_    0.123138 0.613340 0.355312 0.108560
H56   H     H_    0.232528 0.768444 0.176147 0.107508
H57   H     H_    0.842222 0.982995 0.195403 0.103824
H58   H     H_    0.185257 0.700839 0.696781 0.103470
H59   H     H_    0.262352 0.020744 0.605418 0.126554
H60   H     H_    0.140945 0.711090 0.303152 0.108835
H61   H     H_    0.292501 0.044776 0.398671 0.133070
H62   H     H_    0.095118 0.972133 0.190712 0.105679
O1    O     O_R   0.318160 0.824460 0.443680 -0.521359
O2    O     O_R   0.668160 0.499860 0.053480 -0.516916
O3    O     O_R   0.689170 0.693840 0.050110 -0.494999
O4    O     O_R   0.525040 0.857250 0.449830 -0.503120
O5    O     O_R   0.803860 0.812940 0.962540 -0.510716
O6    O     O_R   0.982950 0.787950 0.964120 -0.527539
O7    O     O_R   0.007050 0.649970 0.960540 -0.516748
O8    O     O_R   0.807910 0.482370 0.965590 -0.504577
O9    O     O_R   0.643310 0.460980 0.963840 -0.525973
O10   O     O_R   0.666140 0.657800 0.967020 -0.499457
O11   O     O_3   0.830520 0.660760 0.007110 -0.260939
O12   O     O_R   0.645130 0.163230 0.552140 -0.502382
O13   O     O_R   0.684760 0.998800 0.456360 -0.518367
O14   O     O_R   0.647540 0.166310 0.470260 -0.501163
O15   O     O_R   0.500960 0.181750 0.467450 -0.522461
O16   O     O_R   0.331100 0.981120 0.457080 -0.504509
O17   O     O_R   0.315560 0.821140 0.532010 -0.521541
O18   O     O_R   0.522630 0.854180 0.531710 -0.501162
O19   O     O_R   0.682160 0.995480 0.544690 -0.519121
O20   O     O_R   0.498360 0.178430 0.555780 -0.519702
O21   O     O_R   0.328690 0.978040 0.538950 -0.500888
O22   O     O_3   0.499990 0.999990 0.500010 -0.232133
O23   O     O_R   0.828710 0.851830 0.052170 -0.515289
O24   O     O_R   0.005980 0.823990 0.047210 -0.501161
O25   O     O_R   0.031900 0.688850 0.050170 -0.514935
O26   O     O_R   0.830940 0.518420 0.048680 -0.498233

loop_
_geom_bond_atom_site_label_1
_geom_bond_atom_site_label_2
_ccdc_geom_bond_type
C48   C55   S    
C4    H39   S    
Cr2   O14   S    
C93   C94   A    
C13   O10   A    
C39   H45   S    
C107  C109  A    
C41   C42   A    
C92   C93   A    
C19   C20   A    
C86   H32   S    
C81   C82   A    
C57   C58   A    
C75   H19   S    
C7    C8    A    
C47   C49   A    
C7    H43   S    
C85   C86   A    
C40   C46   A    
C51   C62   S    
C90   H58   S    
C26   C27   A    
C77   O2    A    
Cr5   O8    S    
C72   C102  S    
C41   H62   S    
C35   C37   A    
C76   C78   S    
C46   C66   S    
C82   H22   S    
C53   H7    S    
C57   H10   S    
C5    C6    A    
C63   C88   S    
Cr5   O7    S    
C16   C17   A    
C106  C107  A    
C9    H44   S    
C89   H27   S    
C49   H8    S    
C12   C37   S    
Cr5   O11   S    
C17   H26   S    
C34   C35   A    
C84   C96   A    
C104  H35   S    
C89   C94   A    
C36   O16   A    
C11   H49   S    
C100  H25   S    
Cr2   O22   S    
C24   C29   S    
C66   O24   A    
C73   C80   A    
C14   H23   S    
Cr1   O4    S    
C16   H36   S    
C68   C69   A    
C65   C67   A    
C13   O5    A    
C17   C18   A    
Cr1   O17   S    
Cr5   O25   S    
C57   C63   A    
C50   H11   S    
C64   C70   A    
C13   C103  S    
C9    C10   A    
Cr3   O22   S    
C99   O6    A    
C97   C102  A    
Cr2   O19   S    
C47   C53   A    
C1    O13   A    
C68   C79   S    
C40   H2    S    
C96   C108  A    
C74   C80   A    
C21   C22   S    
C48   O19   A    
C56   H5    S    
C61   C62   T    
C95   H31   S    
C91   C101  S    
C77   O26   A    
Cr3   O21   S    
C104  C105  A    
C60   C64   S    
C88   O3    A    
C6    C7    A    
C31   H61   S    
C25   C29   A    
C38   C39   A    
C108  H48   S    
C54   C56   A    
C59   C61   S    
C74   C75   A    
C51   C52   A    
C54   H57   S    
C38   H56   S    
C109  H37   S    
C18   C28   S    
C3    C8    A    
C91   C92   A    
C71   C73   A    
Cr6   O9    S    
C1    O4    A    
C60   O12   A    
C18   C19   A    
C12   H55   S    
C81   C99   S    
C77   C84   S    
C58   C59   A    
C98   C102  A    
Cr4   O11   S    
C67   C68   A    
C30   C37   A    
C32   C34   A    
C75   C76   A    
C2    O9    A    
Cr3   O15   S    
Cr6   O10   S    
C52   H6    S    
C31   C32   A    
C14   C15   A    
C107  H47   S    
C11   C33   A    
C30   C31   A    
C69   H16   S    
C74   H20   S    
C83   H28   S    
C70   H17   S    
C50   C51   A    
C56   C63   A    
C36   O1    A    
C24   O15   A    
C34   C45   S    
C23   C28   A    
C93   H30   S    
C10   C55   A    
C43   C45   T    
C99   O7    A    
C81   C87   A    
C60   O20   A    
C26   C29   A    
C39   C46   A    
C23   H52   S    
C40   C41   A    
C83   C85   A    
C5    C44   S    
C82   C83   A    
C10   H46   S    
C98   C100  A    
C48   O18   A    
C27   H14   S    
C3    H40   S    
C32   H4    S    
C3    C4    A    
Cr4   O5    S    
Cr3   O20   S    
C103  C104  A    
C6    H42   S    
C11   C55   A    
C52   C53   A    
C86   C87   A    
C9    C44   A    
C97   H59   S    
Cr1   O22   S    
C78   C79   T    
C33   C44   A    
C26   H34   S    
C1    C47   S    
Cr6   O3    S    
C87   H24   S    
C4    C5    A    
C8    C106  S    
C71   C76   A    
C12   H53   S    
C54   C59   A    
C95   C97   A    
C16   C21   A    
Cr2   O12   S    
C12   H54   S    
C73   H13   S    
C20   H51   S    
C105  C106  A    
C58   H9    S    
C15   H3    S    
C30   C36   S    
C103  C109  A    
C35   H60   S    
C64   C65   A    
C14   C22   A    
C67   H21   S    
C25   H12   S    
C2    O8    A    
Cr4   O24   S    
C71   H15   S    
C72   O17   A    
Cr6   O11   S    
C88   O23   A    
C90   C91   A    
Cr4   O6    S    
C98   H33   S    
C22   C108  A    
C100  C101  A    
Cr4   O23   S    
C24   O14   A    
C33   H38   S    
C23   C25   A    
C69   C70   A    
C92   H29   S    
Cr6   O2    S    
Cr3   O16   S    
C2    C80   S    
C72   O21   A    
C66   O25   A    
C38   C42   A    
C105  H41   S    
C20   C21   A    
Cr2   O13   S    
C49   C50   A    
C42   C43   S    
Cr1   O18   S    
Cr1   O1    S    
Cr5   O26   S    
C96   H1    S    
C85   C94   S    
C19   H50   S    
C89   C90   A    
C15   C84   A    
C65   H18   S    
C95   C101  A    
C27   C28   A    
