data_mof_unit_26350.cif
_audit_creation_date              2013-03-05T15:53:18-0500
_audit_creation_method            fapswitch 2.2
_symmetry_space_group_name_H-M    P1
_symmetry_Int_Tables_number       1
_space_group_crystal_system       triclinic
_cell_length_a                    27.018508
_cell_length_b                    7.210462
_cell_length_c                    22.713714
_cell_angle_alpha                 89.993359
_cell_angle_beta                  101.252888
_cell_angle_gamma                 90.001664
_cell_volume                      4339.92465647

loop_
_atom_site_label
_atom_site_type_symbol
_atom_site_description
_atom_site_fract_x
_atom_site_fract_y
_atom_site_fract_z
_atom_type_partial_charge
O1    O     O_R   0.207310 0.594030 0.676830 -0.584436
O2    O     O_R   0.792690 0.405970 0.323170 -0.585062
O3    O     O_R   0.292690 0.094030 0.823170 -0.583329
O4    O     O_R   0.707310 0.905970 0.176830 -0.569591
O5    O     O_R   0.197320 0.262370 0.795700 -0.589623
O6    O     O_R   0.802680 0.737630 0.204300 -0.590506
O7    O     O_R   0.302680 0.762370 0.704300 -0.589782
O8    O     O_R   0.697320 0.237630 0.295700 -0.590567
C1    C     C_R   0.184657 0.432327 0.811847 0.948980
C2    C     C_R   0.815343 0.567673 0.188153 0.948466
C3    C     C_R   0.315374 0.932347 0.688199 0.949713
C4    C     C_R   0.684705 0.067678 0.311915 0.940906
O9    O     O_R   0.201410 0.264250 0.675590 -0.575096
O10   O     O_R   0.798590 0.735750 0.324410 -0.576340
O11   O     O_R   0.298590 0.764250 0.824410 -0.575130
O12   O     O_R   0.701410 0.235750 0.175590 -0.575799
O13   O     O_R   0.296810 0.094940 0.702210 -0.591176
O14   O     O_R   0.703190 0.905060 0.297790 -0.589247
O15   O     O_R   0.203190 0.594940 0.797790 -0.591192
O16   O     O_R   0.796810 0.405060 0.202210 -0.591479
C5    C     C_R   0.189924 0.432434 0.653315 0.952013
C6    C     C_R   0.810075 0.567566 0.346685 0.949738
C7    C     C_R   0.310512 0.932303 0.846554 0.952613
C8    C     C_R   0.689455 0.067341 0.153478 0.942038
O17   O     O_3   0.281300 0.427390 0.758870 -0.277223
O18   O     O_3   0.718700 0.572610 0.241130 -0.268302
O19   O     O_3   0.218700 0.927390 0.741130 -0.277158
O20   O     O_3   0.781300 0.072610 0.258870 -0.279031
V1    V     V_3+5 0.244190 0.152150 0.748350 1.204166
V2    V     V_3+5 0.755810 0.847850 0.251650 1.213700
V3    V     V_3+5 0.255810 0.652150 0.751650 1.203666
V4    V     V_3+5 0.744190 0.347850 0.248350 1.209877
C9    C     C_R   0.654873 0.059946 0.094367 -0.169741
C10   C     C_R   0.345757 0.933165 0.905272 -0.177089
C11   C     C_R   0.844744 0.562867 0.405420 -0.173122
C12   C     C_R   0.155252 0.437135 0.594582 -0.174092
C13   C     C_R   0.641513 0.105321 0.986444 0.384673
C14   C     C_R   0.362086 0.837597 0.009844 0.377131
C15   C     C_R   0.858788 0.611006 0.513005 0.387714
C16   C     C_R   0.141206 0.388999 0.486996 0.387935
C17   C     C_R   0.673042 0.108555 0.043179 -0.248162
C18   C     C_R   0.328747 0.865580 0.955223 -0.248810
C19   C     C_R   0.827129 0.616805 0.456484 -0.251751
C20   C     C_R   0.172866 0.383194 0.543516 -0.251933
C21   C     C_R   0.604047 0.008526 0.088920 -0.091658
C22   C     C_R   0.397258 0.973691 0.909997 -0.126829
C23   C     C_R   0.895662 0.515291 0.410215 -0.118969
C24   C     C_R   0.104335 0.484717 0.589788 -0.118654
C25   C     C_R   0.571673 0.988535 0.031695 0.119953
C26   C     C_R   0.433369 0.926279 0.962485 0.120727
C27   C     C_R   0.930630 0.533254 0.465499 0.120261
C28   C     C_R   0.069366 0.466760 0.534505 0.120285
C29   C     C_R   0.590918 0.042127 0.980281 -0.075508
C30   C     C_R   0.414751 0.862082 0.013247 -0.069946
C31   C     C_R   0.910636 0.566137 0.517939 -0.077429
C32   C     C_R   0.089358 0.433877 0.482064 -0.077369
C33   C     C_R   0.520277 0.924368 0.024062 -0.081390
C34   C     C_R   0.487161 0.943283 0.966673 -0.090353
C35   C     C_R   0.984328 0.511902 0.470782 -0.085978
C36   C     C_R   0.015668 0.488119 0.529222 -0.086048
C37   C     C_R   0.509788 0.968532 0.915668 0.319106
C38   C     C_R   0.501001 0.834024 0.070505 0.317544
C39   C     C_R   0.991957 0.486181 0.580029 0.319589
C40   C     C_R   0.008039 0.513845 0.419975 0.319658
C41   C     C_R   0.560373 0.021420 0.923304 -0.166629
C42   C     C_R   0.449067 0.809522 0.065029 -0.192955
C43   C     C_R   0.942049 0.544879 0.574233 -0.188174
C44   C     C_R   0.057945 0.455142 0.425770 -0.188355
H1    H     H_    0.576403 0.037102 0.883516 0.221979
H2    H     H_    0.435953 0.737628 0.100877 0.218990
H3    H     H_    0.926828 0.556779 0.614653 0.226622
H4    H     H_    0.073166 0.443246 0.385350 0.226594
H5    H     H_    0.408163 0.039089 0.871792 0.151667
H6    H     H_    0.590342 0.990563 0.130079 0.143489
H7    H     H_    0.093124 0.537388 0.629651 0.147841
H8    H     H_    0.906875 0.462621 0.370353 0.147807
H9    H     H_    0.288921 0.836293 0.951748 0.155022
H10   H     H_    0.711848 0.153996 0.047644 0.153871
H11   H     H_    0.212203 0.345434 0.547261 0.150787
H12   H     H_    0.787791 0.654560 0.452738 0.150865
C45   C     C_R   0.641357 0.899092 0.384561 -0.093420
C46   C     C_R   0.359078 0.100990 0.615919 -0.100383
C47   C     C_R   0.858853 0.399116 0.115680 -0.102428
C48   C     C_R   0.141154 0.600869 0.884328 -0.099367
H13   H     H_    0.667260 0.784103 0.385256 0.137826
H14   H     H_    0.333075 0.215779 0.614962 0.138270
H15   H     H_    0.832867 0.284308 0.114818 0.139653
H16   H     H_    0.167147 0.715657 0.885200 0.138940
C49   C     C_R   0.604581 0.888027 0.420033 -0.049961
C50   C     C_R   0.396110 0.112252 0.580810 -0.048733
C51   C     C_R   0.895766 0.387917 0.080404 -0.048454
C52   C     C_R   0.104238 0.612075 0.919601 -0.048883
H17   H     H_    0.603699 0.765793 0.447534 0.164492
H18   H     H_    0.397082 0.234424 0.553305 0.163615
H19   H     H_    0.896667 0.265767 0.052880 0.165073
H20   H     H_    0.103340 0.734215 0.947130 0.164043
C53   C     C_R   0.570021 0.033140 0.421206 -0.069459
C54   C     C_R   0.430787 0.967337 0.579958 -0.070416
C55   C     C_R   0.930419 0.532841 0.079425 -0.071690
C56   C     C_R   0.069578 0.467167 0.920570 -0.071401
C57   C     C_R   0.572731 0.191705 0.384768 0.369886
C58   C     C_R   0.427981 0.808909 0.616420 0.372165
C59   C     C_R   0.927698 0.691245 0.115916 0.373406
C60   C     C_R   0.072295 0.308775 0.884073 0.372817
C61   C     C_R   0.611090 0.203455 0.350681 -0.232474
C62   C     C_R   0.389402 0.797019 0.650182 -0.201829
C63   C     C_R   0.889226 0.703093 0.149838 -0.204780
C64   C     C_R   0.110766 0.296926 0.850151 -0.205845
H21   H     H_    0.612753 0.324279 0.322790 0.188676
H22   H     H_    0.387679 0.676362 0.678126 0.187924
H23   H     H_    0.887564 0.823752 0.177789 0.186515
H24   H     H_    0.112424 0.176278 0.822193 0.186824
C65   C     C_R   0.645412 0.057375 0.349752 -0.181505
C66   C     C_R   0.354904 0.942758 0.650702 -0.185451
C67   C     C_R   0.854768 0.557305 0.150506 -0.185903
C68   C     C_R   0.145232 0.442695 0.849493 -0.185799
N1    N     N_R   0.518583 0.168103 0.490131 -0.018799
N2    N     N_R   0.482402 0.832261 0.511259 -0.020381
N3    N     N_R   0.981994 0.667962 0.010667 -0.019800
N4    N     N_R   0.018003 0.332046 0.989326 -0.020052
N5    N     N_R   0.486386 0.151998 0.527537 -0.018217
N6    N     N_R   0.514595 0.848371 0.473847 -0.019061
N7    N     N_R   0.014164 0.651885 0.973228 -0.018679
N8    N     N_R   0.985833 0.348124 0.026766 -0.018698
C69   C     C_R   0.467791 0.983578 0.539234 0.208954
C70   C     C_R   0.533172 0.016804 0.462128 0.208699
C71   C     C_R   0.032664 0.483423 0.961412 0.209259
C72   C     C_R   0.967333 0.516585 0.038582 0.209492
N9    N     N_R   0.661328 0.170490 0.935869 0.239630
O21   O     O_R   0.636825 0.295154 0.900183 -0.329018
O22   O     O_R   0.707594 0.131813 0.931830 -0.334540
N10   N     N_R   0.341752 0.782540 0.061158 0.238983
O23   O     O_R   0.354648 0.871516 0.111674 -0.317411
O24   O     O_R   0.304052 0.667096 0.054739 -0.347132
N11   N     N_R   0.837320 0.649042 0.564745 0.237761
O25   O     O_R   0.835981 0.519082 0.604151 -0.321298
O26   O     O_R   0.809439 0.795840 0.565446 -0.332391
N12   N     N_R   0.162672 0.350959 0.435255 0.237682
O27   O     O_R   0.164015 0.480922 0.395852 -0.321672
O28   O     O_R   0.190547 0.204148 0.434551 -0.332668
N13   N     N_R   0.485166 0.911613 0.856549 0.227720
O29   O     O_R   0.462655 0.751330 0.848864 -0.371179
O30   O     O_R   0.491938 0.004759 0.809670 -0.338434
N14   N     N_R   0.533316 0.738136 0.118717 0.223779
O31   O     O_R   0.569231 0.631680 0.107376 -0.386733
O32   O     O_R   0.522215 0.733705 0.171944 -0.345271
N15   N     N_R   0.015053 0.402113 0.636047 0.228373
O33   O     O_R   0.035498 0.238568 0.636308 -0.372669
O34   O     O_R   0.008632 0.473707 0.686625 -0.344035
N16   N     N_R   0.984942 0.597923 0.363958 0.228349
O35   O     O_R   0.991365 0.526342 0.313379 -0.344247
O36   O     O_R   0.964496 0.761463 0.363700 -0.372827
N17   N     N_R   0.535465 0.336372 0.378932 0.241286
O37   O     O_R   0.487864 0.294487 0.372540 -0.327381
O38   O     O_R   0.547823 0.506297 0.369006 -0.383330
N18   N     N_R   0.465330 0.664488 0.622567 0.243845
O39   O     O_R   0.512925 0.706652 0.629132 -0.318077
O40   O     O_R   0.453005 0.494520 0.632489 -0.383126
N19   N     N_R   0.965039 0.835670 0.121942 0.243328
O41   O     O_R   0.012630 0.793494 0.128466 -0.319621
O42   O     O_R   0.952724 0.005661 0.131832 -0.385873
N20   N     N_R   0.034951 0.164360 0.878043 0.243356
O43   O     O_R   0.987361 0.206547 0.871520 -0.318806
O44   O     O_R   0.047263 0.994365 0.868153 -0.385979

loop_
_geom_bond_atom_site_label_1
_geom_bond_atom_site_label_2
_geom_bond_distance
_ccdc_geom_bond_type
O17   V3    1.756004 S    
C55   C59   1.421592 A    
O1    C5    1.328826 A    
O19   V1    1.756002 S    
C56   C71   1.493382 S    
C9    C21   1.404367 A    
O3    C7    1.331879 A    
N15   O33   1.301734 A    
C10   C18   1.392587 A    
C52   H20   1.083166 S    
C11   C23   1.401304 A    
N4    C71   1.359461 A    
C25   C33   1.441679 A    
N11   O25   1.301135 A    
C5    C12   1.473312 S    
C15   N11   1.434886 S    
O7    C3    1.342515 A    
C6    C11   1.473304 S    
C35   C40   1.425091 A    
N20   O43   1.301330 A    
C62   C66   1.406251 A    
C36   C39   1.425093 A    
C40   C44   1.394784 A    
C61   C65   1.406258 A    
N18   O39   1.301331 A    
N15   O34   1.301650 A    
C23   H8    1.078386 S    
C14   C18   1.398251 A    
C24   C28   1.422407 A    
N13   O30   1.301616 A    
C60   N20   1.437757 S    
O4    C8    1.329645 A    
C25   C29   1.421378 A    
C43   H3    1.080158 S    
O1    V3    1.977842 S    
O13   V1    1.967586 S    
C31   C43   1.398291 A    
O2    V4    1.977846 S    
N2    N6    1.334384 A    
O3    V1    1.977779 S    
C3    C66   1.492214 S    
N1    N5    1.334365 A    
C28   C36   1.440525 A    
C62   H22   1.083192 S    
N5    C69   1.360045 A    
N4    N8    1.334386 A    
C1    O15   1.337811 A    
C56   C60   1.421590 A    
C15   C31   1.420707 A    
C2    O16   1.337814 A    
N10   O23   1.301418 A    
C16   C32   1.420704 A    
C16   N12   1.434886 S    
O2    C6    1.328823 A    
N19   O42   1.301080 A    
C58   C62   1.412052 A    
C10   C22   1.405285 A    
N2    C69   1.359452 A    
C57   N17   1.437826 S    
N17   O38   1.301072 A    
C11   C19   1.392348 A    
N1    C70   1.359451 A    
O5    V1    1.980848 S    
C44   H4    1.080156 S    
N8    C72   1.360070 A    
C13   C29   1.421700 A    
N3    C72   1.359463 A    
C34   C37   1.423156 A    
O11   C7    1.327387 A    
O15   V3    1.967523 S    
C35   C36   1.438630 A    
O12   C8    1.329632 A    
C13   C17   1.399439 A    
C24   H7    1.078383 S    
O10   V2    1.993692 S    
C39   N15   1.437283 S    
C45   H13   1.083142 S    
C50   H18   1.083183 S    
N20   O44   1.301082 A    
C54   C69   1.493249 S    
C57   C61   1.412067 A    
C39   C43   1.394790 A    
O7    V3    1.980718 S    
C38   C42   1.395533 A    
O8    V4    1.980719 S    
C47   C67   1.404706 A    
C33   C38   1.422187 A    
C46   C66   1.404688 A    
N14   O32   1.301610 A    
C17   H10   1.084169 S    
O18   V4    1.756004 S    
C53   C70   1.493368 S    
C15   C19   1.397484 A    
C19   H12   1.084298 S    
C32   C44   1.398288 A    
C64   H24   1.083177 S    
C49   C53   1.406135 A    
C21   H6    1.078406 S    
C26   C34   1.443055 A    
N6    C70   1.360073 A    
O5    C1    1.342554 A    
N7    C71   1.360070 A    
N19   O41   1.301331 A    
C14   C30   1.420902 A    
C21   C25   1.425346 A    
O8    C4    1.342527 A    
C7    C10   1.479843 S    
C4    O14   1.337877 A    
O9    C5    1.327210 A    
C26   C30   1.422298 A    
C63   C67   1.406227 A    
N12   O28   1.301082 A    
O14   V2    1.967592 S    
C37   N13   1.437229 S    
O6    V2    1.980848 S    
N16   O36   1.301733 A    
C48   C68   1.404701 A    
C12   C20   1.392347 A    
C27   C35   1.440521 A    
C45   C65   1.404734 A    
C58   N18   1.437800 S    
C60   C64   1.412077 A    
C29   C41   1.400513 A    
C52   C56   1.406113 A    
C59   N19   1.437758 S    
C4    C65   1.492380 S    
O16   V4    1.967520 S    
O9    V1    1.993691 S    
N11   O26   1.301083 A    
C61   H21   1.083188 S    
C3    O13   1.337811 A    
C1    C68   1.492293 S    
C63   H23   1.083177 S    
C20   H11   1.084295 S    
C48   H16   1.083136 S    
C38   N14   1.437437 S    
N14   O31   1.301837 A    
C47   H15   1.083139 S    
O6    C2    1.342552 A    
C23   C27   1.422402 A    
O11   V3    1.993822 S    
C55   C72   1.493386 S    
C30   C42   1.400331 A    
N3    N7    1.334386 A    
O12   V4    1.993818 S    
C47   C51   1.398246 A    
C22   C26   1.426919 A    
C8    C9    1.479502 S    
C46   C50   1.398212 A    
C9    C17   1.392230 A    
C64   C68   1.406227 A    
N18   O40   1.301093 A    
N9    O21   1.301442 A    
C45   C49   1.398293 A    
C54   C58   1.421568 A    
N13   O29   1.301784 A    
C46   H14   1.083144 S    
O10   C6    1.327208 A    
C33   C34   1.436368 A    
C42   H2    1.081563 S    
C41   H1    1.081576 S    
O20   V2    1.756002 S    
C13   N9    1.437680 S    
C12   C24   1.401309 A    
C27   C31   1.420551 A    
C49   H17   1.083169 S    
O4    V2    1.977774 S    
N12   O27   1.301137 A    
C51   H19   1.083167 S    
C37   C41   1.396775 A    
C16   C20   1.397480 A    
C18   H9    1.084210 S    
N10   O24   1.301427 A    
C40   N16   1.437285 S    
N16   O35   1.301651 A    
C59   C63   1.412079 A    
C48   C52   1.398250 A    
C51   C55   1.406113 A    
N17   O37   1.301334 A    
C50   C54   1.406110 A    
C22   H5    1.077925 S    
C53   C57   1.421616 A    
C2    C67   1.492301 S    
C28   C32   1.420555 A    
C14   N10   1.437934 S    
N9    O22   1.301370 A    
