data_mof_unit_5100.cif
_audit_creation_date              2012-10-26T19:57:25-0400
_audit_creation_method            fapswitch 2.2
_symmetry_space_group_name_H-M    P1
_symmetry_Int_Tables_number       1
_space_group_crystal_system       triclinic
_cell_length_a                    13.034859
_cell_length_b                    10.956355
_cell_length_c                    9.776852
_cell_angle_alpha                 88.948278
_cell_angle_beta                  93.618868
_cell_angle_gamma                 90.35922
_cell_volume                      1393.23943244

loop_
_atom_site_label
_atom_site_type_symbol
_atom_type_description
_atom_site_fract_x
_atom_site_fract_y
_atom_site_fract_z
_atom_type_partial_charge
C1    C     C_R   0.506117 0.265977 0.501464 0.535895
C2    C     C_2   0.529871 0.135860 0.508230 0.261920
C3    C     C_2   0.463228 0.411108 0.923532 0.387255
C4    C     C_R   0.301426 0.496281 0.477583 0.574534
C5    C     C_2   0.442301 0.428098 0.074267 0.417639
C6    C     C_R   0.498761 0.733934 0.498668 0.563524
C7    C     C_R   0.698408 0.500950 0.522539 0.586859
C8    C     C_R   0.809500 0.513095 0.528335 -0.041989
C9    C     C_R   0.190247 0.478865 0.471998 -0.013985
C10   C     C_R   0.038649 0.361014 0.396284 0.245154
C11   C     C_R   0.146104 0.379119 0.401381 0.210063
C12   C     C_R   0.022387 0.544050 0.534382 -0.099072
C13   C     C_R   0.130004 0.551398 0.551612 0.207158
C14   C     C_3   0.810465 0.397035 0.228571 -0.034322
C15   C     C_3   0.667335 0.123956 0.664942 -0.092079
C16   C     C_3   0.407143 0.667560 0.882508 -0.060597
C17   C     C_3   0.618542 0.645009 0.138294 0.031986
C18   C     C_3   0.805539 0.676705 0.805811 -0.070998
C19   C     C_3   0.005072 0.826588 0.543346 -0.075398
C20   C     C_3   0.233893 0.202834 0.442937 -0.112353
C21   C     C_3   0.168011 0.574871 0.780034 -0.084560
C22   C     C_3   0.703497 0.937323 0.325659 -0.116870
C23   C     C_R   0.976026 0.446771 0.458369 -0.056714
C24   C     C_3   0.317179 0.880091 0.539390 -0.143156
C25   C     C_R   0.867715 0.437262 0.448434 0.221229
C26   C     C_R   0.855427 0.609747 0.601622 0.202333
C27   C     C_R   0.960445 0.631551 0.594199 0.269068
C28   C     C_2   0.543303 0.933833 0.410666 0.328867
C29   C     C_2   0.486409 0.865459 0.493689 0.295790
C30   C     C_2   0.520880 0.064597 0.396179 0.216399
Cu1   Cu    Cu3+1 0.500020 0.500020 0.638640 1.068106
Cu2   Cu    Cu3+1 0.499980 0.499980 0.361360 1.064621
H1    H     H_    0.883569 0.384292 0.178526 0.135865
H2    H     H_    0.358035 0.634985 0.964412 0.061257
H3    H     H_    0.314387 0.337641 0.052956 0.297370
H4    H     H_    0.662352 0.654089 0.237772 0.157207
H5    H     H_    0.550244 0.705927 0.133283 0.186125
H6    H     H_    0.669919 0.679486 0.060062 0.093579
H7    H     H_    0.782977 0.582502 0.836820 0.127081
H8    H     H_    0.753450 0.741088 0.853018 0.148749
H9    H     H_    0.885055 0.697148 0.847214 0.135250
H10   H     H_    0.044452 0.215514 0.283312 0.345886
H11   H     H_    0.926571 0.847367 0.497692 0.120468
H12   H     H_    0.789736 0.495314 0.220745 0.104700
H13   H     H_    0.055735 0.797849 0.462396 0.109963
H14   H     H_    0.037651 0.912150 0.587300 0.133333
H15   H     H_    0.164139 0.157690 0.480909 0.113467
H16   H     H_    0.282344 0.239451 0.530662 0.142406
H17   H     H_    0.278523 0.131401 0.394904 0.131450
H18   H     H_    0.187389 0.645183 0.857612 0.126565
H19   H     H_    0.222262 0.497474 0.797504 0.119763
H20   H     H_    0.088864 0.542790 0.798734 0.122379
H21   H     H_    0.739322 0.939666 0.431946 0.124585
H22   H     H_    0.697542 0.030824 0.279808 0.176732
H23   H     H_    0.749825 0.345003 0.169648 0.173080
H24   H     H_    0.755420 0.884553 0.263562 0.113098
H25   H     H_    0.262623 0.931669 0.598700 0.151960
H26   H     H_    0.307019 0.781771 0.564213 0.170743
H27   H     H_    0.296952 0.898277 0.428550 0.087522
H28   H     H_    0.426293 0.151237 0.271231 0.348933
H29   H     H_    0.669809 0.220086 0.699239 0.151613
H30   H     H_    0.716610 0.113454 0.576955 0.096766
H31   H     H_    0.700772 0.066392 0.750813 0.152389
H32   H     H_    0.430859 0.238707 0.937169 0.324349
H33   H     H_    0.368133 0.652130 0.780765 0.186505
H34   H     H_    0.417132 0.767563 0.893672 0.156422
N1    N     N_2   0.498860 0.498660 0.846770 -0.004310
N2    N     N_2   0.498840 0.498630 0.152900 -0.022583
O1    O     O_R   0.500020 0.321960 0.617050 -0.445840
O2    O     O_3   0.565147 0.085160 0.633802 -0.531482
O3    O     O_3   0.440729 0.300350 0.863678 -0.687608
O4    O     O_3   0.504719 0.612450 0.897828 -0.489717
O5    O     O_3   0.359421 0.370637 0.129068 -0.667450
O6    O     O_3   0.593449 0.522029 0.109163 -0.514518
O7    O     O_3   0.794831 0.694050 0.662339 -0.542454
O8    O     O_3   0.994293 0.257878 0.337428 -0.676225
O9    O     O_3   0.001980 0.737773 0.649258 -0.518400
O10   O     O_3   0.208822 0.295148 0.343875 -0.545639
O11   O     O_3   0.176936 0.627949 0.648052 -0.553979
O12   O     O_R   0.499980 0.321920 0.382890 -0.473055
O13   O     O_3   0.607084 0.878041 0.322023 -0.600726
O14   O     O_3   0.417952 0.919644 0.577347 -0.570075
O15   O     O_3   0.492201 0.107713 0.265942 -0.691252
O16   O     O_R   0.349010 0.500000 0.598060 -0.524829
O17   O     O_R   0.348980 0.499950 0.363910 -0.446599
O18   O     O_R   0.500020 0.678080 0.617110 -0.473037
O19   O     O_R   0.499980 0.678040 0.382950 -0.535439
O20   O     O_R   0.651020 0.500050 0.636090 -0.490226
O21   O     O_R   0.650990 0.500000 0.401940 -0.495801
O22   O     O_3   0.817362 0.351693 0.365356 -0.512625

loop_
_geom_bond_atom_site_label_1
_geom_bond_atom_site_label_2
_ccdc_geom_bond_type
C13   O11   S    
C18   O7    S    
C8    C26   A    
C16   O4    S    
C14   H1    S    
C19   H14   S    
C7    C8    S    
C22   H22   S    
Cu1   N1    S    
C12   C23   A    
C25   O22   S    
C28   C29   D    
N1    O4    S    
H28   O15   S    
N2    O6    S    
C7    O21   A    
C1    C2    S    
H32   O3    S    
C30   O15   S    
C19   O9    S    
C24   O14   S    
C14   O22   S    
C9    C13   A    
C16   H2    S    
C10   O8    S    
Cu2   O21   S    
C24   H25   S    
C17   H4    S    
Cu2   N2    S    
C14   H23   S    
Cu1   O18   S    
C8    C25   A    
C5    N2    D    
C21   H18   S    
C19   H11   S    
C22   H21   S    
C12   C27   A    
C22   O13   S    
C18   H9    S    
C22   H24   S    
C4    O17   A    
C27   O9    S    
Cu2   O19   S    
C1    O1    A    
Cu1   O16   S    
C3    O3    S    
C18   H7    S    
C20   H17   S    
C11   O10   S    
Cu2   O12   S    
C7    O20   A    
C4    O16   A    
C21   O11   S    
C26   O7    S    
C15   H29   S    
C17   H5    S    
C9    C11   A    
C20   H16   S    
C26   C27   A    
C17   O6    S    
C16   H34   S    
C21   H19   S    
C14   H12   S    
C15   O2    S    
H3    O5    S    
Cu1   O20   S    
C28   O13   S    
Cu1   Cu2   S    
C3    N1    D    
C3    C5    S    
C19   H13   S    
C10   C23   A    
H10   O8    S    
C6    O18   A    
C20   O10   S    
C2    C30   D    
C28   C30   S    
C29   O14   S    
C24   H27   S    
Cu2   O17   S    
C15   H30   S    
C17   H6    S    
C23   C25   A    
C5    O5    S    
C20   H15   S    
C10   C11   A    
C6    O19   A    
Cu1   O1    S    
C6    C29   S    
C18   H8    S    
C12   C13   A    
C24   H26   S    
C1    O12   A    
C15   H31   S    
C16   H33   S    
C4    C9    S    
C2    O2    S    
C21   H20   S    
