data_mof_unit_30374.cif
_audit_creation_date              2012-12-10T19:44:34-0500
_audit_creation_method            fapswitch 2.2
_symmetry_space_group_name_H-M    P1
_symmetry_Int_Tables_number       1
_space_group_crystal_system       triclinic
_cell_length_a                    8.579416
_cell_length_b                    14.981808
_cell_length_c                    14.247372
_cell_angle_alpha                 89.184456
_cell_angle_beta                  98.234546
_cell_angle_gamma                 91.321132
_cell_volume                      1811.81543287

loop_
_atom_site_label
_atom_site_type_symbol
_atom_type_description
_atom_site_fract_x
_atom_site_fract_y
_atom_site_fract_z
_atom_type_partial_charge
C1    C     C_R   0.504083 0.327640 0.500964 0.846757
C2    C     C_R   0.499892 0.671454 0.499381 0.841935
C3    C     C_R   0.365282 0.467626 0.094732 0.036679
C4    C     C_R   0.549334 0.579423 0.896156 0.015794
C5    C     C_R   0.373314 0.464939 0.194837 -0.022122
C6    C     C_R   0.553684 0.574115 0.797654 0.020377
C7    C     C_R   0.622739 0.538272 0.212597 0.113489
C8    C     C_R   0.438793 0.429015 0.793598 0.076477
C9    C     C_R   0.625687 0.533554 0.114226 -0.278653
C10   C     C_R   0.445972 0.428432 0.893026 -0.191961
C11   C     C_R   0.494910 0.501945 0.052779 0.088618
C12   C     C_R   0.497726 0.503956 0.946479 0.056016
C13   C     C_R   0.201359 0.498608 0.475372 0.960284
C14   C     C_R   0.798681 0.499815 0.524716 0.966337
C15   C     C_2   0.036436 0.495993 0.462240 -0.358665
C16   C     C_2   0.963684 0.499984 0.538174 -0.395424
C17   C     C_R   0.562658 0.088386 0.576772 -0.111796
C18   C     C_R   0.362195 0.904457 0.475997 -0.101996
C19   C     C_R   0.571259 0.180895 0.582075 -0.030555
C20   C     C_R   0.355707 0.811783 0.477639 -0.040903
C21   C     C_R   0.508115 0.230981 0.501184 -0.169529
C22   C     C_R   0.498329 0.766408 0.497533 -0.146147
C23   C     C_R   0.447045 0.188133 0.416401 -0.142954
C24   C     C_R   0.643581 0.811427 0.512704 -0.142514
C25   C     C_R   0.448918 0.095903 0.409504 -0.001696
C26   C     C_R   0.650592 0.904036 0.508208 0.013415
C27   C     C_R   0.505985 0.046476 0.491302 -0.057256
C28   C     C_R   0.507663 0.950052 0.490321 -0.072134
H1    H     H_    0.975368 0.490611 0.390233 0.208159
H2    H     H_    0.024914 0.504324 0.610387 0.183807
H3    H     H_    0.607355 0.048053 0.638181 0.190831
H4    H     H_    0.254257 0.941836 0.463461 0.199262
H5    H     H_    0.399535 0.227077 0.354608 0.200593
H6    H     H_    0.751164 0.773734 0.526139 0.182991
H7    H     H_    0.275077 0.437184 0.226272 0.148857
H8    H     H_    0.595820 0.631217 0.760551 0.164410
H9    H     H_    0.729271 0.557072 0.085541 0.185236
H10   H     H_    0.404764 0.369834 0.928332 0.207574
N1    N     N_R   0.500000 0.499980 0.252470 -0.145723
N2    N     N_R   0.500000 0.500020 0.747530 -0.161109
O1    O     O_R   0.500010 0.369070 0.579480 -0.662204
O2    O     O_R   0.499990 0.630930 0.420520 -0.637469
O3    O     O_R   0.500010 0.369060 0.420520 -0.608535
O4    O     O_R   0.499990 0.630940 0.579480 -0.618177
O5    O     O_R   0.271750 0.500000 0.560890 -0.641409
O6    O     O_R   0.728250 0.500000 0.439110 -0.643320
O7    O     O_R   0.271750 0.499990 0.401930 -0.614389
O8    O     O_R   0.728250 0.500010 0.598070 -0.620728
Zn1   Zn    Zn3+2 0.500000 0.500010 0.606140 0.932296
Zn2   Zn    Zn3+2 0.500000 0.499990 0.393860 0.948364
C29   C     C_2   0.656439 0.222110 0.669656 0.471933
H11   H     H_    0.708929 0.288473 0.667965 0.076024
O9    O     O_2   0.672581 0.181136 0.745033 -0.516776
C30   C     C_2   0.201330 0.763398 0.458440 0.474332
H12   H     H_    0.193505 0.691718 0.468671 0.048879
O10   O     O_2   0.080698 0.803006 0.429757 -0.532611
C31   C     C_2   0.395579 0.052719 0.316626 0.411685
H13   H     H_    0.410703 0.981860 0.307612 0.089025
O11   O     O_2   0.334885 0.096079 0.248354 -0.545020
C32   C     C_2   0.806206 0.951475 0.520564 0.441622
H14   H     H_    0.815549 0.021505 0.501361 0.065394
O12   O     O_2   0.926241 0.912923 0.552935 -0.526598
N3    N     N_3   0.223902 0.438017 0.036727 -0.459388
H15   H     H_    0.131087 0.476020 0.053368 0.205113
H16   H     H_    0.201510 0.371563 0.054894 0.207366
N4    N     N_3   0.587716 0.663926 0.940486 -0.447174
H17   H     H_    0.507907 0.676744 0.987382 0.214682
H18   H     H_    0.701770 0.662407 0.977392 0.200224
C33   C     C_2   0.747524 0.592052 0.269474 0.410272
H19   H     H_    0.725211 0.624482 0.333206 0.131006
O13   O     O_2   0.876237 0.603941 0.243626 -0.593424
C34   C     C_2   0.351170 0.355552 0.740251 0.434529
H20   H     H_    0.287529 0.367553 0.670313 0.107478
O14   O     O_2   0.343767 0.281026 0.775414 -0.539763

loop_
_geom_bond_atom_site_label_1
_geom_bond_atom_site_label_2
_ccdc_geom_bond_type
O4    Zn1   S    
C7    C33   S    
C1    O1    A    
N4    H18   S    
C11   C12   S    
N3    H16   S    
O3    Zn2   S    
C1    C21   S    
C3    N3    S    
C25   C27   A    
O6    Zn2   S    
C26   C28   A    
O2    Zn2   S    
C3    C11   A    
O5    Zn1   S    
C10   H10   S    
N1    Zn2   S    
C13   C15   S    
N4    H17   S    
C3    C5    A    
C33   O13   D    
C14   O6    A    
C2    C22   S    
C32   O12   D    
C13   O5    A    
C9    C11   A    
N2    Zn1   S    
C31   H13   S    
C18   H4    S    
C10   C12   A    
C2    O2    A    
C5    H7    S    
C22   C24   A    
C20   C30   S    
O8    Zn1   S    
C17   C19   A    
C6    H8    S    
C15   H1    S    
O7    Zn2   S    
C30   O10   D    
C5    N1    A    
C21   C23   A    
C33   H19   S    
C17   H3    S    
C14   C16   S    
C31   O11   D    
C4    C6    A    
C4    C12   A    
C20   C22   A    
C29   O9    D    
C16   H2    S    
C29   H11   S    
C17   C27   A    
C19   C29   S    
C25   C31   S    
C6    N2    A    
C18   C28   A    
C2    O4    A    
C4    N4    S    
C18   C20   A    
C34   O14   D    
C9    H9    S    
O1    Zn1   S    
C27   C28   S    
C7    C9    A    
C7    N1    A    
C30   H12   S    
C32   H14   S    
C14   O8    A    
C8    N2    A    
C19   C21   A    
C23   C25   A    
N3    H15   S    
C8    C34   S    
C13   O7    A    
C1    O3    A    
C8    C10   A    
C24   H6    S    
C15   C16   D    
C24   C26   A    
C34   H20   S    
C23   H5    S    
C26   C32   S    
