data_mof_unit_39228.cif
_audit_creation_date              2012-12-10T20:53:05-0500
_audit_creation_method            fapswitch 2.2
_symmetry_space_group_name_H-M    P1
_symmetry_Int_Tables_number       1
_space_group_crystal_system       triclinic
_cell_length_a                    18.406738
_cell_length_b                    18.413858
_cell_length_c                    18.225024
_cell_angle_alpha                 59.805069
_cell_angle_beta                  59.863452
_cell_angle_gamma                 59.993928
_cell_volume                      4356.74503352

loop_
_atom_site_label
_atom_site_type_symbol
_atom_type_description
_atom_site_fract_x
_atom_site_fract_y
_atom_site_fract_z
_atom_type_partial_charge
C1    C     C_R   0.389711 0.110260 0.110132 0.496849
C2    C     C_R   0.302115 0.827267 0.955672 -0.175993
C3    C     C_R   0.039272 0.523650 0.904944 0.041655
C4    C     C_R   0.445106 0.087919 0.965338 0.054062
C5    C     C_R   0.554980 0.912084 0.034639 0.054932
C6    C     C_R   0.930672 0.963263 0.551742 -0.019752
C7    C     C_R   0.069194 0.036837 0.448420 -0.019623
C8    C     C_R   0.945865 0.554070 0.945949 0.019214
C9    C     C_R   0.054048 0.445768 0.054111 0.020435
C10   C     C_R   0.554493 0.946048 0.945830 0.043686
C11   C     C_R   0.445558 0.053946 0.054163 0.042831
C12   C     C_3   0.100275 0.684796 0.019127 -0.258491
C13   C     C_R   0.190791 0.178324 0.661525 -0.183894
C14   C     C_3   0.081852 0.785200 0.978283 -0.409518
C15   C     C_3   0.901398 0.301979 0.981127 -0.258182
C16   C     C_3   0.819572 0.367154 0.026350 -0.395097
C17   C     C_3   0.724085 0.043621 0.010088 -0.257835
C18   C     C_3   0.702880 0.979176 0.106727 -0.424658
C19   C     C_3   0.277728 0.956636 0.988935 -0.257372
C20   C     C_3   0.298987 0.020462 0.891988 -0.424336
C21   C     C_3   0.072258 0.139499 0.812449 -0.236374
C22   C     C_3   0.988398 0.133813 0.820647 -0.417139
C23   C     C_3   0.930179 0.855648 0.191514 -0.238166
C24   C     C_R   0.809035 0.819166 0.340744 -0.182926
C25   C     C_3   0.013085 0.860791 0.186058 -0.416681
C26   C     C_R   0.103887 0.618410 0.252149 -0.173704
C27   C     C_R   0.895186 0.380618 0.746440 -0.172933
C28   C     C_R   0.653236 0.260504 0.044211 -0.187508
C29   C     C_R   0.346298 0.739373 0.956732 -0.187627
C30   C     C_R   0.270753 0.153258 0.594352 -0.155524
C31   C     C_R   0.728613 0.845289 0.406958 -0.154709
C32   C     C_R   0.030909 0.587836 0.308717 -0.004117
C33   C     C_R   0.610298 0.889727 0.889877 0.497316
C34   C     C_R   0.967792 0.411863 0.691470 -0.002485
C35   C     C_R   0.585800 0.316638 0.005536 -0.004286
C36   C     C_R   0.414255 0.683237 0.994723 -0.003729
C37   C     C_R   0.311947 0.064244 0.597722 0.003705
C38   C     C_R   0.687879 0.934612 0.402525 0.003166
C39   C     C_R   0.977822 0.592388 0.270887 0.414858
C40   C     C_R   0.020006 0.406281 0.730971 0.417884
C41   C     C_R   0.565124 0.284284 0.965464 0.445234
C42   C     C_R   0.435604 0.715558 0.034248 0.444466
C43   C     C_R   0.269980 0.001343 0.667566 0.403600
C44   C     C_R   0.116747 0.102904 0.390655 0.498241
C45   C     C_R   0.730469 0.996883 0.332286 0.402377
C46   C     C_R   0.999034 0.625061 0.177219 0.424864
C47   C     C_R   0.998885 0.370898 0.824731 0.424694
C48   C     C_R   0.609523 0.196033 0.966716 0.436142
C49   C     C_R   0.391630 0.803871 0.032777 0.436860
C50   C     C_R   0.191362 0.025915 0.735898 0.384378
C51   C     C_R   0.809629 0.971215 0.264933 0.384902
C52   C     C_R   0.073987 0.653103 0.120273 0.005279
C53   C     C_R   0.924934 0.341085 0.880052 -0.003796
C54   C     C_R   0.675922 0.139236 0.007255 -0.009370
C55   C     C_R   0.883211 0.897123 0.609381 0.498090
C56   C     C_R   0.325076 0.860808 0.992466 -0.008336
C57   C     C_R   0.151480 0.114533 0.733997 -0.018936
C58   C     C_R   0.849377 0.882148 0.268242 -0.019058
C59   C     C_R   0.966017 0.592598 0.461819 -0.133307
C60   C     C_R   0.034254 0.407478 0.538140 -0.133734
C61   C     C_R   0.590557 0.465760 0.954957 -0.150224
C62   C     C_R   0.409406 0.534249 0.044860 -0.145129
C63   C     C_R   0.465122 0.978104 0.592986 -0.100153
C64   C     C_R   0.534827 0.021612 0.407041 -0.100005
C65   C     C_R   0.947981 0.552570 0.554895 0.043051
C66   C     C_R   0.110201 0.389736 0.110242 0.483211
C67   C     C_R   0.052152 0.447479 0.445098 0.042966
C68   C     C_R   0.552364 0.555148 0.949068 0.055783
C69   C     C_R   0.447640 0.444821 0.050902 0.056731
C70   C     C_R   0.556695 0.944636 0.550970 0.019490
C71   C     C_R   0.443254 0.055121 0.449057 0.019419
C72   C     C_R   0.983073 0.458708 0.593629 0.022067
C73   C     C_R   0.016883 0.541332 0.406382 0.022335
C74   C     C_R   0.460371 0.589957 0.995270 0.020921
C75   C     C_R   0.539634 0.409990 0.004758 0.020461
C76   C     C_R   0.592590 0.967017 0.456032 0.014643
C77   C     C_R   0.889746 0.610246 0.889801 0.480698
C78   C     C_R   0.407325 0.032530 0.544023 0.014581
C79   C     C_R   0.109053 0.390241 0.390044 0.523807
C80   C     C_R   0.890954 0.609768 0.609959 0.524743
C81   C     C_R   0.390421 0.389667 0.108579 0.544146
C82   C     C_R   0.609581 0.610322 0.891416 0.543978
C83   C     C_R   0.389119 0.110670 0.391076 0.503486
C84   C     C_R   0.610870 0.889262 0.608928 0.503533
C85   C     C_R   0.092822 0.004736 0.319510 -0.067755
C86   C     C_R   0.906931 0.995367 0.680697 -0.067229
C87   C     C_R   0.920129 0.452246 0.189947 -0.015271
C88   C     C_R   0.125675 0.650074 0.158649 -0.172376
C89   C     C_R   0.079698 0.546572 0.810166 -0.016758
C90   C     C_R   0.391981 0.176016 0.928892 -0.037611
C91   C     C_R   0.608106 0.823981 0.071077 -0.037072
C92   C     C_R   0.057774 0.992998 0.275558 -0.115659
C93   C     C_R   0.941724 0.007476 0.724605 -0.117573
C94   C     C_R   0.827852 0.482276 0.229417 -0.055634
C95   C     C_R   0.171951 0.516238 0.770697 -0.057444
C96   C     C_R   0.392991 0.208783 0.840985 -0.091673
C97   C     C_R   0.607150 0.791216 0.158962 -0.091636
C98   C     C_R   0.973749 0.984893 0.318917 -0.110314
C99   C     C_R   0.873523 0.346176 0.840007 -0.175189
C100  C     C_R   0.025593 0.015931 0.681233 -0.113005
C101  C     C_R   0.774153 0.535854 0.175737 -0.106745
C102  C     C_R   0.225679 0.462981 0.824345 -0.105968
C103  C     C_R   0.447876 0.155694 0.786954 -0.117230
C104  C     C_R   0.552338 0.844334 0.212969 -0.117344
C105  C     C_R   0.928615 0.979666 0.408706 -0.068066
C106  C     C_R   0.070902 0.020921 0.591499 -0.067024
C107  C     C_R   0.812437 0.560056 0.082276 -0.095279
C108  C     C_R   0.187441 0.439321 0.917785 -0.086253
C109  C     C_R   0.501701 0.069380 0.820711 -0.103467
C110  C     C_R   0.698017 0.172756 0.044852 -0.171806
C111  C     C_R   0.498499 0.930653 0.179226 -0.103691
C112  C     C_R   0.967071 0.983024 0.457023 0.010015
C113  C     C_R   0.032686 0.017221 0.543166 0.010358
C114  C     C_R   0.906042 0.530473 0.040582 0.016732
C115  C     C_R   0.093850 0.469133 0.959485 0.018471
C116  C     C_R   0.500381 0.033678 0.910601 0.024117
C117  C     C_R   0.499732 0.966335 0.089369 0.024093
C118  C     C_R   0.043672 0.008713 0.407951 0.012402
C119  C     C_R   0.956152 0.991392 0.592253 0.012507
C120  C     C_R   0.960606 0.475778 0.095136 0.043465
F1    F     F_    0.907222 0.562627 0.324716 -0.623996
F2    F     F_    0.414163 0.833566 0.070659 -0.628422
F3    F     F_    0.157219 0.962049 0.806769 -0.667810
F4    F     F_    0.844634 0.034360 0.193718 -0.656397
F5    F     F_    0.089936 0.437132 0.678726 -0.624562
F6    F     F_    0.501740 0.338168 0.925541 -0.614449
F7    F     F_    0.499305 0.661604 0.073759 -0.616839
F8    F     F_    0.309249 0.914462 0.673258 -0.606507
F9    F     F_    0.691573 0.084071 0.325455 -0.606871
F10   F     F_    0.946470 0.629305 0.142265 -0.629295
F11   F     F_    0.050169 0.366327 0.861390 -0.628430
F12   F     F_    0.587617 0.166290 0.928318 -0.627652
H1    H     H_    0.055242 0.020048 0.716451 0.167356
H2    H     H_    0.339383 0.560836 0.081018 0.129505
H3    H     H_    0.437513 0.962808 0.665488 0.158762
H4    H     H_    0.562434 0.036874 0.334545 0.159438
H5    H     H_    0.159308 0.008705 0.284194 0.149533
H6    H     H_    0.840513 0.991223 0.716023 0.149784
H7    H     H_    0.959208 0.410687 0.234434 0.128721
H8    H     H_    0.040603 0.587910 0.765695 0.131008
H9    H     H_    0.349613 0.220854 0.967304 0.133792
H10   H     H_    0.650426 0.779129 0.032678 0.134227
H11   H     H_    0.094847 0.992483 0.207111 0.114906
H12   H     H_    0.943799 0.981274 0.283660 0.171639
H13   H     H_    0.904546 0.008080 0.793019 0.113127
H14   H     H_    0.797906 0.463776 0.301988 0.141103
H15   H     H_    0.201859 0.534290 0.698150 0.141591
H16   H     H_    0.351552 0.275925 0.814415 0.130307
H17   H     H_    0.648572 0.724050 0.185528 0.131646
H18   H     H_    0.862189 0.976554 0.438096 0.162737
H19   H     H_    0.137265 0.024152 0.562190 0.162904
H20   H     H_    0.767965 0.601826 0.043277 0.118697
H21   H     H_    0.231935 0.397657 0.956761 0.120614
H22   H     H_    0.544233 0.031370 0.775382 0.117130
H23   H     H_    0.297331 0.439957 0.793434 0.129027
H24   H     H_    0.456010 0.968672 0.224546 0.117518
H25   H     H_    0.183459 0.671520 0.115998 0.124763
H26   H     H_    0.816800 0.322963 0.881397 0.126900
H27   H     H_    0.749904 0.130763 0.074966 0.200256
H28   H     H_    0.250061 0.869401 0.925798 0.195588
H29   H     H_    0.162084 0.246727 0.659328 0.156411
H30   H     H_    0.837511 0.750493 0.343847 0.158043
H31   H     H_    0.145877 0.614449 0.280392 0.139306
H32   H     H_    0.853888 0.385325 0.716908 0.140260
H33   H     H_    0.670825 0.284644 0.074369 0.156610
H34   H     H_    0.702487 0.558701 0.206635 0.129081
H35   H     H_    0.327860 0.715124 0.927409 0.159326
H36   H     H_    0.303174 0.202151 0.542752 0.145968
H37   H     H_    0.695653 0.796887 0.458800 0.146337
H38   H     H_    0.010001 0.820923 0.006530 0.156754
H39   H     H_    0.121795 0.803389 0.992072 0.164063
H40   H     H_    0.100248 0.806647 0.904172 0.204475
H41   H     H_    0.172320 0.649885 0.990193 0.148731
H42   H     H_    0.063480 0.668510 0.999362 0.206885
H43   H     H_    0.802408 0.335791 0.100631 0.161128
H44   H     H_    0.833479 0.428213 0.005201 0.190400
H45   H     H_    0.551142 0.818430 0.281508 0.127303
H46   H     H_    0.761658 0.385669 0.008480 0.152253
H47   H     H_    0.888204 0.239337 0.006244 0.155692
H48   H     H_    0.957531 0.284463 0.001260 0.205581
H49   H     H_    0.730178 0.983827 0.145840 0.160119
H50   H     H_    0.629772 0.994606 0.140327 0.177783
H51   H     H_    0.733239 0.909851 0.106360 0.156521
H52   H     H_    0.705291 0.029443 0.970608 0.204939
H53   H     H_    0.797043 0.031197 0.979233 0.128482
H54   H     H_    0.269348 0.089943 0.891744 0.157099
H55   H     H_    0.372119 0.004414 0.858098 0.177620
H56   H     H_    0.449118 0.181609 0.718397 0.126739
H57   H     H_    0.271007 0.015783 0.853519 0.159221
H58   H     H_    0.204690 0.969585 0.020108 0.129816
H59   H     H_    0.297233 0.970917 0.027743 0.204971
H60   H     H_    0.974800 0.173611 0.755929 0.151224
H61   H     H_    0.995173 0.063635 0.840673 0.189720
H62   H     H_    0.930709 0.160284 0.873949 0.136538
H63   H     H_    0.087858 0.095063 0.875893 0.173955
H64   H     H_    0.058378 0.208329 0.804791 0.134657
H65   H     H_    0.072291 0.831912 0.135270 0.133557
H66   H     H_    0.007256 0.931031 0.164123 0.190348
H67   H     H_    0.939658 0.664220 0.431844 0.135504
H68   H     H_    0.023610 0.822926 0.252309 0.151945
H69   H     H_    0.943967 0.786664 0.199671 0.136459
H70   H     H_    0.916659 0.899527 0.126969 0.170250
H71   H     H_    0.060668 0.335846 0.568109 0.135728
H72   H     H_    0.660509 0.439240 0.918548 0.127935
O1    O     O_3   0.250000 0.250000 0.250000 -0.445207
O2    O     O_R   0.865800 0.694910 0.573470 -0.550720
O3    O     O_R   0.305090 0.426530 0.134200 -0.553604
O4    O     O_R   0.694910 0.573470 0.865800 -0.556472
O5    O     O_R   0.426530 0.134200 0.305090 -0.551637
O6    O     O_R   0.573470 0.865800 0.694910 -0.551599
O7    O     O_R   0.134190 0.426530 0.134200 -0.532105
O8    O     O_R   0.865810 0.573470 0.865800 -0.537292
O9    O     O_R   0.426530 0.134200 0.134190 -0.527868
O10   O     O_R   0.573470 0.865800 0.865810 -0.527695
O11   O     O_R   0.134200 0.134190 0.426530 -0.552275
O12   O     O_3   0.750000 0.750000 0.750000 -0.444648
O13   O     O_R   0.865800 0.865810 0.573470 -0.552201
O14   O     O_R   0.426530 0.305080 0.134210 -0.526767
O15   O     O_R   0.573470 0.694920 0.865790 -0.525678
O16   O     O_R   0.305080 0.134210 0.426530 -0.545230
O17   O     O_R   0.694920 0.865790 0.573470 -0.545185
O18   O     O_R   0.134210 0.426530 0.305080 -0.538205
O19   O     O_R   0.865790 0.573470 0.694920 -0.535470
O20   O     O_R   0.305080 0.134200 0.134200 -0.562996
O21   O     O_R   0.694920 0.865800 0.865800 -0.563226
O22   O     O_R   0.134200 0.134200 0.305080 -0.545054
O23   O     O_R   0.865800 0.865800 0.694920 -0.545363
O24   O     O_R   0.134200 0.305080 0.134200 -0.541745
O25   O     O_R   0.865800 0.694920 0.865800 -0.540487
O26   O     O_R   0.134200 0.305090 0.426530 -0.550443
Zn1   Zn    Zn3+2 0.206620 0.206630 0.380140 0.933488
Zn2   Zn    Zn3+2 0.793380 0.793370 0.619860 0.933843
Zn3   Zn    Zn3+2 0.206630 0.380140 0.206620 0.954924
Zn4   Zn    Zn3+2 0.793370 0.619860 0.793380 0.952654
Zn5   Zn    Zn3+2 0.380140 0.206620 0.206630 0.960241
Zn6   Zn    Zn3+2 0.619860 0.793380 0.793370 0.960564
Zn7   Zn    Zn3+2 0.206620 0.206620 0.206620 0.932293
Zn8   Zn    Zn3+2 0.793380 0.793380 0.793380 0.931930

loop_
_geom_bond_atom_site_label_1
_geom_bond_atom_site_label_2
_ccdc_geom_bond_type
C19   C56   S    
C94   H14   S    
C40   C47   A    
C80   O2    A    
C64   H4    S    
O18   Zn3   S    
C101  C107  A    
C51   F4    S    
C15   H47   S    
C23   C58   S    
C44   O11   A    
O12   Zn4   S    
C36   C42   A    
C19   C20   S    
C1    C11   S    
C6    C55   S    
C14   H38   S    
C82   O4    A    
C92   C98   A    
O9    Zn5   S    
C55   O13   A    
C38   C76   S    
C53   C99   A    
C48   C54   A    
C105  H18   S    
C29   C36   A    
C35   C75   S    
C98   C105  A    
C23   H69   S    
C1    O20   A    
O11   Zn1   S    
C15   C53   S    
C108  C115  A    
O19   Zn4   S    
O14   Zn5   S    
C30   H36   S    
C33   O21   A    
C84   O17   A    
C22   H62   S    
C61   H72   S    
C84   O6    A    
C64   C71   A    
C13   C57   A    
C18   H50   S    
C68   C74   A    
C15   C16   S    
C87   C94   A    
C46   C52   A    
C26   H31   S    
C54   C110  A    
C32   C39   A    
C55   O23   A    
C92   H11   S    
C9    C66   S    
C38   C45   A    
C25   H66   S    
C109  C116  A    
C113  C119  A    
C40   F5    S    
O10   Zn6   S    
C108  H21   S    
C94   C101  A    
C17   H53   S    
C103  H56   S    
C22   H61   S    
C93   H13   S    
C86   C119  A    
C67   C73   A    
O6    Zn6   S    
C70   C84   S    
C111  H24   S    
C59   C73   A    
C4    C90   A    
C77   O8    A    
C95   C102  A    
C8    C114  A    
C47   C53   A    
C91   H10   S    
C16   H44   S    
C103  C109  A    
C21   H64   S    
C65   C80   S    
C21   C22   S    
O21   Zn8   S    
C7    C118  A    
O26   Zn1   S    
O15   Zn6   S    
C12   C52   S    
C85   C92   A    
C16   H46   S    
C107  C114  A    
C99   H26   S    
C71   C83   S    
C45   C51   A    
C27   C34   A    
O22   Zn7   S    
C96   H16   S    
C24   H30   S    
C82   O15   A    
C23   H70   S    
O2    Zn2   S    
C9    C115  A    
C69   C81   S    
C13   C30   A    
O1    Zn5   S    
C67   C79   S    
C60   C67   A    
C14   H40   S    
C3    C8    A    
C59   H67   S    
C32   C73   S    
C5    C117  A    
C26   C32   A    
C31   H37   S    
C18   H49   S    
C28   C110  A    
C7    C44   S    
O23   Zn8   S    
C81   O3    A    
C61   C75   A    
O7    Zn3   S    
C30   C37   A    
C47   F11   S    
C21   H63   S    
C63   H3    S    
C89   C95   A    
O1    Zn7   S    
C101  H34   S    
O5    Zn5   S    
C79   O26   A    
C21   C57   S    
C86   C93   A    
C27   H32   S    
C112  C118  A    
C60   H71   S    
C104  H45   S    
C63   C70   A    
C52   C88   A    
C89   H8    S    
C27   C99   A    
C17   C18   S    
C64   C76   A    
C95   H15   S    
C51   C58   A    
C5    C91   A    
C88   H25   S    
C91   C97   A    
C4    C11   A    
C102  C108  A    
C109  H22   S    
C93   C100  A    
C83   O5    A    
C36   C74   S    
C42   F7    S    
C39   C46   A    
C107  H20   S    
C28   H33   S    
C16   H43   S    
C24   C58   A    
C105  C112  A    
C12   C14   S    
C2    C29   A    
C1    O9    A    
C8    C77   S    
O12   Zn6   S    
C34   C40   A    
C37   C43   A    
O1    Zn1   S    
C22   H60   S    
C13   H29   S    
C11   C117  A    
C34   C72   S    
C6    C119  A    
C20   H57   S    
C10   C116  A    
C100  H1    S    
O3    Zn3   S    
C79   O18   A    
C12   H42   S    
C19   H58   S    
O20   Zn7   S    
C85   H5    S    
C28   C35   A    
C7    C113  A    
C106  H19   S    
O16   Zn1   S    
C98   H12   S    
C49   F2    S    
C50   C57   A    
C6    C112  A    
C41   F6    S    
C4    C116  A    
C48   F12   S    
C50   F3    S    
C87   H7    S    
C14   H39   S    
C43   F8    S    
C46   F10   S    
C104  C111  A    
O8    Zn4   S    
C33   O10   A    
C43   C50   A    
C90   C96   A    
C100  C106  A    
C65   C72   A    
C37   C78   S    
C77   O25   A    
C39   F1    S    
C31   C38   A    
C3    C89   A    
C97   C104  A    
C111  C117  A    
C68   C82   S    
C62   H2    S    
O1    Zn3   S    
C66   O7    A    
C24   C31   A    
O12   Zn8   S    
C5    C10   A    
O13   Zn2   S    
C49   C56   A    
C3    C115  A    
C59   C65   A    
C20   H55   S    
C70   C76   A    
C83   O16   A    
C106  C113  A    
C61   C68   A    
C29   H35   S    
C45   F9    S    
C18   H51   S    
C17   H52   S    
C81   O14   A    
C102  H23   S    
O17   Zn2   S    
O12   Zn2   S    
C41   C48   A    
C69   C75   A    
C10   C33   S    
C23   C25   S    
C60   C72   A    
C85   C118  A    
C35   C41   A    
C114  C120  A    
C90   H9    S    
C25   H65   S    
C86   H6    S    
C42   C49   A    
C20   H54   S    
C26   C88   A    
O24   Zn7   S    
C62   C69   A    
C2    H28   S    
C96   C103  A    
C66   O24   A    
C25   H68   S    
C9    C120  A    
C97   H17   S    
C62   C74   A    
C2    C56   A    
O25   Zn8   S    
C15   H48   S    
O4    Zn4   S    
C44   O22   A    
C17   C54   S    
C71   C78   A    
C87   C120  A    
C110  H27   S    
C19   H59   S    
C12   H41   S    
C80   O19   A    
C63   C78   A    
