data_mof_unit_54990.cif
_audit_creation_date              2012-12-11T16:51:23-0500
_audit_creation_method            fapswitch 2.2
_symmetry_space_group_name_H-M    P1
_symmetry_Int_Tables_number       1
_space_group_crystal_system       triclinic
_cell_length_a                    24.570668
_cell_length_b                    17.399914
_cell_length_c                    15.624003
_cell_angle_alpha                 90.084103
_cell_angle_beta                  128.720192
_cell_angle_gamma                 89.907209
_cell_volume                      5211.55415922

loop_
_atom_site_label
_atom_site_type_symbol
_atom_type_description
_atom_site_fract_x
_atom_site_fract_y
_atom_site_fract_z
_atom_type_partial_charge
C1    C     C_R   0.832601 0.900389 0.194599 0.054906
C2    C     C_R   0.181127 0.114821 0.495041 -0.050658
C3    C     C_1   0.737797 0.424030 0.853327 0.217836
C4    C     C_1   0.906117 0.767261 0.726927 -0.040783
C5    C     C_1   0.155372 0.644493 0.607391 -0.050994
C6    C     C_1   0.345375 0.146083 0.393508 -0.043753
C7    C     C_1   0.669741 0.135239 0.653093 -0.026639
C8    C     C_1   0.857822 0.242196 0.034633 0.141061
C9    C     C_1   0.140774 0.242010 0.965397 0.136085
C10   C     C_1   0.346338 0.725839 0.011840 0.138001
C11   C     C_1   0.653040 0.726745 0.987199 0.143296
C12   C     C_1   0.228238 0.132776 0.830420 0.120891
C13   C     C_R   0.319438 0.616293 0.505313 -0.051728
C14   C     C_1   0.771786 0.133000 0.170054 0.122579
C15   C     C_1   0.731143 0.621031 0.838564 0.158717
C16   C     C_1   0.269137 0.625675 0.164017 0.121105
C17   C     C_R   0.666068 0.657875 0.503082 -0.112459
C18   C     C_R   0.878425 0.174199 0.194206 0.011829
C19   C     C_R   0.121591 0.173622 0.806853 0.016847
C20   C     C_R   0.373007 0.666011 0.180629 0.014194
C21   C     C_R   0.626711 0.665988 0.819057 0.018658
C22   C     C_R   0.785571 0.825157 0.611150 0.054466
C23   C     C_R   0.162283 0.687245 0.461803 0.105694
C24   C     C_R   0.337914 0.187843 0.539009 0.109334
C25   C     C_R   0.167474 0.902117 0.806209 0.077439
C26   C     C_R   0.683584 0.184169 0.519284 0.018738
C27   C     C_R   0.767146 0.853659 0.512597 0.066704
C28   C     C_R   0.181183 0.763802 0.491706 -0.039345
C29   C     C_R   0.318429 0.264329 0.509233 -0.039751
C30   C     C_R   0.677156 0.260649 0.490171 0.056509
C31   C     C_R   0.698218 0.841291 0.417660 -0.161673
C32   C     C_R   0.242001 0.792922 0.514267 -0.144955
C33   C     C_R   0.257341 0.292720 0.486608 -0.145981
C34   C     C_R   0.719810 0.289958 0.466710 -0.145240
C35   C     C_R   0.211384 0.242064 0.479058 -0.171810
C36   C     C_R   0.332272 0.401627 0.194198 0.079512
C37   C     C_R   0.767594 0.241967 0.473309 -0.184468
C38   C     C_R   0.661569 0.779091 0.415191 -0.184485
C39   C     C_R   0.288372 0.742878 0.521803 -0.171030
C40   C     C_R   0.227166 0.163597 0.495188 -0.033776
C41   C     C_R   0.773068 0.164920 0.504181 0.029559
C42   C     C_R   0.692089 0.734660 0.510672 0.013979
C43   C     C_R   0.273202 0.664349 0.505598 -0.033566
C44   C     C_R   0.292410 0.137641 0.533038 0.060897
C45   C     C_R   0.730114 0.137801 0.526073 0.049632
C46   C     C_R   0.746264 0.769331 0.610870 0.063996
C47   C     C_R   0.667659 0.401224 0.805878 0.077478
C48   C     C_R   0.208215 0.637669 0.467745 0.058383
C49   C     C_3   0.805838 0.745792 0.726560 0.204915
C50   C     C_3   0.190261 0.572357 0.507913 0.178151
C51   C     C_3   0.310988 0.072852 0.492745 0.175048
C52   C     C_3   0.709669 0.068419 0.555742 0.183782
C53   C     C_R   0.087517 0.857308 0.406574 -0.130040
C54   C     C_R   0.886281 0.900603 0.593094 -0.141448
C55   C     C_R   0.585308 0.356229 0.406088 -0.148582
C56   C     C_R   0.412067 0.357968 0.593797 -0.125108
C57   C     C_3   0.850530 0.804534 0.723431 0.329022
C58   C     C_R   0.887272 0.104535 0.594067 -0.210362
C59   C     C_3   0.138571 0.627145 0.500675 0.360437
C60   C     C_3   0.362227 0.128331 0.500136 0.356864
C61   C     C_3   0.656124 0.121843 0.548210 0.361338
C62   C     C_2   0.194026 0.854823 0.978339 0.369486
C63   C     C_2   0.805762 0.854075 0.021669 0.380314
C64   C     C_2   0.696680 0.360602 0.982841 0.370854
C65   C     C_2   0.303372 0.359236 0.018084 0.369569
C66   C     C_2   0.225908 0.789670 0.987403 0.471917
C67   C     C_2   0.773982 0.788740 0.011900 0.458825
C68   C     C_2   0.731908 0.296372 0.999433 0.467272
C69   C     C_R   0.112949 0.103645 0.406087 -0.206365
C70   C     C_2   0.267615 0.295941 0.003032 0.469777
C71   C     C_2   0.847163 0.237625 0.115895 -0.039290
C72   C     C_2   0.152665 0.236739 0.885599 -0.039902
C73   C     C_2   0.338863 0.725305 0.096827 -0.038749
C74   C     C_2   0.660635 0.725550 0.902375 -0.054044
C75   C     C_2   0.798109 0.279484 0.107535 -0.260915
C76   C     C_2   0.201974 0.278316 0.894803 -0.268748
C77   C     C_2   0.292271 0.769233 0.092186 -0.269364
C78   C     C_2   0.707444 0.768758 0.907076 -0.257481
C79   C     C_R   0.162764 0.857692 0.589294 0.554111
C80   C     C_R   0.387495 0.604620 0.594225 -0.202357
C81   C     C_R   0.814972 0.891187 0.412594 0.578806
C82   C     C_R   0.660712 0.355926 0.588475 0.538564
C83   C     C_R   0.336530 0.358234 0.411063 0.554770
C84   C     C_R   0.075809 0.897449 0.803051 0.545876
C85   C     C_R   0.923676 0.898380 0.196049 0.524723
C86   C     C_R   0.576925 0.399622 0.804881 0.518743
C87   C     C_R   0.422964 0.399536 0.195029 0.515911
C88   C     C_R   0.853413 0.883543 0.132903 -0.244962
C89   C     C_R   0.146564 0.884912 0.867647 -0.255853
C90   C     C_R   0.352401 0.385186 0.131529 -0.237017
C91   C     C_R   0.604603 0.627238 0.409718 -0.163219
C92   C     C_R   0.647509 0.385124 0.868586 -0.232576
C93   C     C_R   0.138837 0.815420 0.496723 -0.107621
C94   C     C_R   0.820105 0.879249 0.505200 -0.134124
C95   C     C_R   0.635266 0.312981 0.495509 -0.102633
C96   C     C_R   0.360315 0.316369 0.503825 -0.108695
C97   C     C_R   0.811876 0.098898 0.412396 0.504595
C98   C     C_R   0.188445 0.097386 0.587630 0.519963
C99   C     C_R   0.311780 0.598340 0.412533 0.522231
C100  C     C_R   0.682003 0.617562 0.592327 0.530641
C101  C     C_R   0.939559 0.135656 0.234468 -0.110784
C102  C     C_R   0.819540 0.116924 0.504878 -0.050182
C103  C     C_R   0.060455 0.135258 0.766148 -0.117719
C104  C     C_R   0.435286 0.629692 0.223986 -0.113319
C105  C     C_R   0.563535 0.630966 0.773755 -0.107640
C106  C     C_R   0.154122 0.133352 0.772693 -0.000769
C107  C     C_R   0.845919 0.133636 0.227957 -0.002465
C108  C     C_R   0.657182 0.627919 0.780048 -0.007083
C109  C     C_R   0.343097 0.628877 0.220823 0.001118
C110  C     C_1   0.762770 0.925973 0.144732 0.224510
C111  C     C_1   0.237164 0.927528 0.854706 0.230673
C112  C     C_1   0.262507 0.426285 0.146724 0.228394
H1    H     H_    0.163129 0.263638 0.458755 0.143867
H2    H     H_    0.202388 0.282721 0.825759 0.166901
H3    H     H_    0.295597 0.776243 0.164586 0.170154
H4    H     H_    0.703797 0.775441 0.834480 0.216538
H5    H     H_    0.062385 0.843821 0.321965 0.197242
H6    H     H_    0.904727 0.912804 0.674952 0.222668
H7    H     H_    0.559432 0.342533 0.321282 0.200132
H8    H     H_    0.437437 0.344806 0.678577 0.198271
H9    H     H_    0.975187 0.148261 0.217883 0.115737
H10   H     H_    0.024878 0.147605 0.782968 0.116735
H11   H     H_    0.467404 0.638047 0.199748 0.111594
H12   H     H_    0.800235 0.264729 0.454801 0.139052
H13   H     H_    0.528940 0.641849 0.792965 0.116019
H14   H     H_    0.909013 0.107168 0.679235 0.142527
H15   H     H_    0.090966 0.106518 0.320821 0.144989
H16   H     H_    0.409661 0.607822 0.679564 0.144453
H17   H     H_    0.580544 0.640118 0.325480 0.124201
H18   H     H_    0.675843 0.872381 0.342515 0.196606
H19   H     H_    0.254888 0.853492 0.530999 0.169751
H20   H     H_    0.243910 0.353181 0.469780 0.169723
H21   H     H_    0.717034 0.349926 0.445573 0.144558
H22   H     H_    0.835023 0.753986 0.873022 0.323437
H23   H     H_    0.613093 0.762875 0.337155 0.141569
H24   H     H_    0.151191 0.470569 0.464861 0.316453
H25   H     H_    0.351020 0.971416 0.535597 0.317363
H26   H     H_    0.665500 0.970318 0.497403 0.330025
H27   H     H_    0.911358 0.844744 0.872029 0.330048
H28   H     H_    0.059069 0.560987 0.443365 0.331321
H29   H     H_    0.442407 0.063133 0.557383 0.331747
H30   H     H_    0.575034 0.056377 0.479843 0.328560
H31   H     H_    0.215092 0.690532 0.920192 0.323803
H32   H     H_    0.784309 0.689400 0.078156 0.326800
H33   H     H_    0.726837 0.195184 0.941367 0.324463
H34   H     H_    0.336422 0.764973 0.542037 0.144892
H35   H     H_    0.271875 0.196366 0.064262 0.324765
H36   H     H_    0.190007 0.947605 0.042144 0.323607
H37   H     H_    0.809165 0.947626 0.958793 0.326888
H38   H     H_    0.687945 0.455797 0.036947 0.324639
H39   H     H_    0.313028 0.452366 0.961582 0.323452
H40   H     H_    0.239240 0.791791 0.696912 0.322255
H41   H     H_    0.742298 0.824083 0.305108 0.305143
H42   H     H_    0.736555 0.288754 0.694928 0.313386
H43   H     H_    0.259482 0.292759 0.303986 0.321482
H44   H     H_    0.064991 0.883112 0.913785 0.322650
H45   H     H_    0.826375 0.686842 0.740095 0.082646
H46   H     H_    0.932239 0.889463 0.081992 0.323159
H47   H     H_    0.568403 0.391867 0.919009 0.326944
H48   H     H_    0.431451 0.391049 0.080890 0.327020
H49   H     H_    0.711403 0.090964 0.315383 0.346759
H50   H     H_    0.289106 0.089868 0.687979 0.345495
H51   H     H_    0.211009 0.593265 0.311675 0.343483
H52   H     H_    0.772403 0.584230 0.644294 0.302572
H53   H     H_    0.235312 0.552890 0.591876 0.050645
H54   H     H_    0.266131 0.053240 0.408724 0.049797
H55   H     H_    0.752843 0.045632 0.638664 0.072809
H56   H     H_    0.798083 0.283942 0.176967 0.164034
N1    N     N_R   0.888400 0.921830 0.294620 -0.090904
N2    N     N_R   0.874350 0.922400 0.443380 -0.084771
N3    N     N_R   0.625650 0.422400 0.556620 -0.078894
N4    N     N_R   0.374350 0.422400 0.443380 -0.080831
N5    N     N_R   0.054230 0.922730 0.705400 -0.085951
N6    N     N_R   0.945770 0.922730 0.294600 -0.082982
N7    N     N_R   0.554230 0.422730 0.705400 -0.085182
N8    N     N_R   0.445770 0.422730 0.294600 -0.084903
N9    N     N_R   0.873790 0.077030 0.443380 -0.086518
N10   N     N_R   0.126210 0.077030 0.556620 -0.085632
N11   N     N_R   0.373790 0.577030 0.443380 -0.085829
N12   N     N_R   0.111600 0.921830 0.705380 -0.097570
N13   N     N_R   0.626210 0.577030 0.556620 -0.080269
N14   N     N_R   0.945200 0.076700 0.294600 -0.055621
N15   N     N_R   0.054800 0.076700 0.705400 -0.058160
N16   N     N_R   0.445200 0.576700 0.294600 -0.055488
N17   N     N_R   0.554800 0.576700 0.705400 -0.056328
N18   N     N_R   0.111030 0.077600 0.705380 -0.073291
N19   N     N_R   0.888970 0.077600 0.294620 -0.072020
N20   N     N_R   0.611030 0.577600 0.705380 -0.079486
N21   N     N_R   0.388970 0.577600 0.294620 -0.073875
N22   N     N_R   0.919490 0.077280 0.556590 -0.070842
N23   N     N_R   0.388400 0.421830 0.294620 -0.097977
N24   N     N_R   0.080510 0.077280 0.443410 -0.070227
N25   N     N_R   0.419490 0.577280 0.556590 -0.069989
N26   N     N_R   0.580510 0.577280 0.443410 -0.065582
N27   N     N_1   0.706492 0.946668 0.103269 -0.023324
N28   N     N_1   0.293195 0.947758 0.894069 -0.030823
N29   N     N_1   0.206337 0.445663 0.108026 -0.035016
N30   N     N_1   0.794322 0.441686 0.892034 -0.040994
N31   N     N_1   0.949557 0.737930 0.729819 -0.035233
N32   N     N_1   0.168479 0.657933 0.691028 -0.022889
N33   N     N_1   0.332257 0.159873 0.309976 -0.016102
N34   N     N_R   0.611600 0.421830 0.705380 -0.098405
N35   N     N_1   0.680406 0.145517 0.735538 -0.011584
N36   N     N_1   0.866244 0.245829 0.969687 -0.066911
N37   N     N_1   0.131356 0.246227 0.029156 -0.065261
N38   N     N_1   0.352251 0.726284 0.943943 -0.068669
N39   N     N_1   0.647000 0.727757 0.054951 -0.070822
N40   N     N_1   0.288106 0.133312 0.879596 -0.030815
N41   N     N_1   0.711904 0.133421 0.120746 -0.027823
N42   N     N_1   0.790802 0.615469 0.887761 -0.042313
N43   N     N_1   0.209327 0.624281 0.115308 -0.038333
N44   N     N_R   0.079940 0.922160 0.443410 -0.074835
N45   N     N_R   0.920060 0.922160 0.556590 -0.076709
N46   N     N_R   0.579940 0.422160 0.443410 -0.073332
N47   N     N_R   0.420060 0.422160 0.556590 -0.075395
N48   N     N_R   0.125650 0.922400 0.556620 -0.080099
Ni1   Ni    Ni4+2 0.882160 0.999430 0.370180 0.270885
Ni2   Ni    Ni4+2 0.117840 0.999430 0.629820 0.269111
Ni3   Ni    Ni4+2 0.382160 0.499430 0.370180 0.268377
Ni4   Ni    Ni4+2 0.617840 0.499430 0.629820 0.261157
Ni5   Ni    Ni4+2 0.012460 0.999430 0.370180 0.241013
Ni6   Ni    Ni4+2 0.987540 0.999430 0.629820 0.233202
Ni7   Ni    Ni4+2 0.512460 0.499430 0.370180 0.241973
Ni8   Ni    Ni4+2 0.487540 0.499430 0.629820 0.238344
O1    O     O_3   0.792358 0.767064 0.798192 -0.687656
O2    O     O_3   0.804022 0.741789 0.103181 -0.757319
O3    O     O_3   0.705167 0.246395 0.912075 -0.754129
O4    O     O_3   0.293420 0.247790 0.091881 -0.754775
O5    O     O_3   0.217456 0.899247 0.068883 -0.774579
O6    O     O_3   0.782032 0.899115 0.931592 -0.732035
O7    O     O_3   0.716990 0.408682 0.068685 -0.769118
O8    O     O_3   0.283966 0.405265 0.931032 -0.775418
O9    O     O_3   0.221756 0.843693 0.694597 -0.757001
O10   O     O_3   0.759403 0.875791 0.305934 -0.765987
O11   O     O_3   0.720459 0.341422 0.692833 -0.762371
O12   O     O_3   0.157876 0.513103 0.430040 -0.684577
O13   O     O_3   0.277317 0.344286 0.305994 -0.756482
O14   O     O_3   0.035964 0.901410 0.836887 -0.770795
O15   O     O_3   0.961319 0.907891 0.158874 -0.781008
O16   O     O_3   0.539263 0.409804 0.841942 -0.778059
O17   O     O_3   0.460539 0.409377 0.157797 -0.777177
O18   O     O_3   0.750075 0.077465 0.314026 -0.746183
O19   O     O_3   0.249642 0.075669 0.686685 -0.752993
O20   O     O_3   0.250338 0.577445 0.313366 -0.753949
O21   O     O_3   0.746527 0.587610 0.673769 -0.773210
O22   O     O_3   0.343877 0.013589 0.570465 -0.683511
O23   O     O_3   0.678572 0.013402 0.472003 -0.685190
O24   O     O_3   0.874217 0.865685 0.797846 -0.687654
O25   O     O_3   0.068128 0.608316 0.418644 -0.673740
O26   O     O_3   0.432830 0.110071 0.582240 -0.669985
O27   O     O_3   0.586024 0.105334 0.461040 -0.669509
O28   O     O_3   0.195909 0.743177 0.895637 -0.757693

loop_
_geom_bond_atom_site_label_1
_geom_bond_atom_site_label_2
_ccdc_geom_bond_type
C54   N45   A    
C71   C75   D    
C83   O13   S    
C13   C99   A    
C81   C94   A    
N8    Ni7   S    
C107  N19   A    
C63   C88   S    
N16   Ni7   S    
C36   N23   A    
C47   C92   A    
N12   Ni2   S    
C17   C91   A    
C9    C72   S    
C72   C76   D    
C70   O4    S    
C49   H45   S    
N47   Ni8   S    
C55   N46   A    
C25   N12   A    
N5    N12   A    
N2    N45   A    
C55   H7    S    
H33   O3    S    
C68   C75   S    
C23   C59   S    
C87   N8    A    
N18   Ni2   S    
C46   C49   S    
C37   C41   A    
C103  N15   A    
C50   C59   S    
C64   C68   D    
C26   C61   S    
N48   Ni2   S    
N24   Ni5   S    
C79   C93   A    
C15   N42   T    
C52   C61   S    
N22   Ni6   S    
C52   H55   S    
C17   C42   S    
C80   N25   A    
C10   C73   S    
C53   H5    S    
C87   O17   S    
H43   O13   S    
H27   O24   S    
C50   H53   S    
C78   H4    S    
C65   C70   D    
C34   C37   A    
C62   C89   S    
C29   C33   A    
C3    N30   T    
C49   C57   S    
C41   C102  S    
C86   N7    A    
C42   C46   A    
C32   C39   A    
N34   Ni4   S    
C99   O20   S    
C24   C29   A    
C7    C61   S    
C56   N47   A    
C7    N35   T    
C100  O21   S    
C26   C45   A    
C97   O18   S    
C18   C107  A    
N3    N46   A    
C19   C103  A    
N25   Ni8   S    
N44   N48   A    
H35   O4    S    
C109  N21   A    
N14   Ni5   S    
N17   Ni8   S    
H42   O11   S    
C36   C112  S    
C86   O16   S    
H47   O16   S    
C75   H56   S    
N9    N22   A    
H48   O17   S    
C98   N10   A    
N4    N47   A    
C43   C48   A    
C97   C102  A    
C65   O8    S    
C61   O27   S    
C111  N28   T    
N2    Ni1   S    
N11   Ni3   S    
C1    C88   A    
C48   C50   S    
C13   C80   A    
N11   N25   A    
C82   O11   S    
C60   O26   S    
H29   O26   S    
C56   H8    S    
H32   O2    S    
C19   C72   S    
C51   H54   S    
C67   C78   S    
C11   N39   T    
C22   C57   S    
C57   O24   S    
N5    Ni6   S    
C69   N24   A    
N10   Ni2   S    
C16   C109  S    
C5    N32   T    
C66   O28   S    
N44   Ni5   S    
C4    N31   T    
N6    Ni5   S    
C65   C90   S    
C82   C95   A    
C63   C67   D    
C68   O3    S    
H31   O28   S    
C30   C34   A    
C53   C93   A    
H22   O1    S    
C6    C60   S    
C8    N36   T    
C51   O22   S    
C79   O9    S    
C6    N33   T    
C55   C95   A    
N46   Ni7   S    
N15   N18   A    
N23   Ni3   S    
C104  H11   S    
C91   N26   A    
C5    C59   S    
N17   N20   A    
C39   C43   A    
H40   O9    S    
C80   H16   S    
C67   O2    S    
H44   O14   S    
C81   N2    A    
C27   C31   A    
C21   C74   S    
C105  N17   A    
C101  H9    S    
H38   O7    S    
C47   N34   A    
C28   C93   S    
C85   O15   S    
C18   C101  A    
C15   C108  S    
C4    C57   S    
N1    N6    A    
C58   N22   A    
C30   C95   S    
C100  N13   A    
C1    C110  S    
C64   O7    S    
C37   H12   S    
N10   N24   A    
N45   Ni6   S    
C97   N9    A    
H39   O8    S    
C28   C32   A    
N20   Ni4   S    
N7    Ni8   S    
C62   O5    S    
C83   N4    A    
N13   Ni4   S    
C85   N6    A    
C98   O19   S    
H51   O20   S    
C23   C28   A    
C50   O12   S    
N13   N26   A    
C106  N18   A    
H49   O18   S    
N4    Ni3   S    
C63   O6    S    
C58   C102  A    
C33   H20   S    
C14   C107  S    
C22   C46   A    
C26   C30   A    
C22   C27   A    
C54   H6    S    
C70   C76   S    
C59   O25   S    
C24   C44   A    
C51   C60   S    
C84   C89   A    
H37   O6    S    
C49   O1    S    
C84   N5    A    
C2    C69   A    
C99   N11   A    
C12   N40   T    
C112  N29   T    
C13   C43   S    
C44   C51   S    
C91   H17   S    
N19   Ni1   S    
C85   C88   A    
C36   C90   A    
C18   C71   S    
C56   C96   A    
C66   C77   S    
C82   N3    A    
C79   N48   A    
C8    C71   S    
C73   C77   D    
C23   C48   A    
C14   N41   T    
C104  N16   A    
C81   O10   S    
C108  N20   A    
C16   N43   T    
C84   O14   S    
H28   O25   S    
N3    Ni4   S    
N7    N34   A    
N9    Ni1   S    
N8    N23   A    
C11   C74   S    
C29   C96   S    
C52   O23   S    
C58   H14   S    
H36   O5    S    
C31   H18   S    
H46   O15   S    
C25   C89   A    
H30   O27   S    
C45   C52   S    
C31   C38   A    
C105  H13   S    
C35   C40   A    
C34   H21   S    
H52   O21   S    
C9    N37   T    
C12   C106  S    
H25   O22   S    
C76   H2    S    
C2    C98   A    
N15   Ni6   S    
C83   C96   A    
H24   O12   S    
C39   H34   S    
C1    N1    A    
C33   C35   A    
C20   C73   S    
C35   H1    S    
N14   N19   A    
C3    C47   S    
C10   N38   T    
C41   C45   A    
C17   C100  A    
C21   C105  A    
C54   C94   A    
C21   C108  A    
C62   C66   D    
C20   C104  A    
C25   C111  S    
C38   C42   A    
C20   C109  A    
C19   C106  A    
C2    C40   S    
C40   C44   A    
C38   H23   S    
C69   H15   S    
N1    Ni1   S    
C74   C78   D    
C87   C90   A    
C110  N27   T    
C64   C92   S    
N16   N21   A    
C27   C94   S    
C86   C92   A    
C24   C60   S    
H50   O19   S    
C77   H3    S    
C103  H10   S    
H26   O23   S    
C32   H19   S    
C53   N44   A    
C101  N14   A    
N21   Ni3   S    
N26   Ni7   S    
H41   O10   S    
