data_mof_unit_20822.cif
_audit_creation_date              2012-12-11T14:56:29-0500
_audit_creation_method            fapswitch 2.2
_symmetry_space_group_name_H-M    P1
_symmetry_Int_Tables_number       1
_space_group_crystal_system       triclinic
_cell_length_a                    10.508929
_cell_length_b                    10.666576
_cell_length_c                    17.08271
_cell_angle_alpha                 80.295797
_cell_angle_beta                  89.721023
_cell_angle_gamma                 119.152161
_cell_volume                      1639.95019473

loop_
_atom_site_label
_atom_site_type_symbol
_atom_type_description
_atom_site_fract_x
_atom_site_fract_y
_atom_site_fract_z
_atom_type_partial_charge
C1    C     C_R   0.278833 0.888676 0.132716 0.561347
C2    C     C_R   0.722439 0.269620 0.298528 -0.135196
C3    C     C_R   0.723600 0.262931 0.219328 -0.139770
C4    C     C_R   0.635626 0.300874 0.170328 0.029443
C5    C     C_1   0.684937 0.831828 0.201775 -0.048187
C6    C     C_1   0.703443 0.807631 0.270442 -0.046985
C7    C     C_1   0.227712 0.854091 0.215449 -0.037152
C8    C     C_1   0.179066 0.834609 0.283057 -0.035708
C9    C     C_1   0.661724 0.357802 0.780446 -0.045659
C10   C     C_1   0.684255 0.401819 0.709914 -0.047465
C11   C     C_R   0.624130 0.712985 0.804841 -0.139910
C12   C     C_R   0.633234 0.272596 0.090007 0.531688
C13   C     C_R   0.610025 0.697835 0.726612 -0.126312
C14   C     C_R   0.669441 0.822248 0.665439 0.034626
C15   C     C_R   0.748936 0.962256 0.682823 -0.142781
C16   C     C_R   0.759343 0.977815 0.761790 -0.138757
C17   C     C_R   0.690892 0.852856 0.822853 0.019617
C18   C     C_R   0.084128 0.882243 0.789702 -0.139008
C19   C     C_R   0.068495 0.878465 0.710313 -0.136286
C20   C     C_R   0.119707 0.802991 0.671263 0.017761
C21   C     C_R   0.175673 0.719808 0.714584 -0.033588
C22   C     C_R   0.191291 0.724306 0.794742 -0.129547
C23   C     C_R   0.643379 0.855798 0.124319 0.542436
C24   C     C_R   0.152973 0.812200 0.830851 0.013642
C25   C     C_R   0.711365 0.772730 0.353483 0.562407
C26   C     C_R   0.681296 0.383839 0.399890 0.549759
C27   C     C_R   0.108369 0.812531 0.359913 0.550975
C28   C     C_R   0.677383 0.800108 0.585483 0.546750
C29   C     C_R   0.717200 0.446162 0.626011 0.557111
C30   C     C_R   0.092208 0.799273 0.588805 0.544614
C31   C     C_R   0.216574 0.858161 0.902403 0.562811
C32   C     C_R   0.640281 0.290730 0.861857 0.553209
C33   C     C_R   0.647856 0.866856 0.899564 0.546922
C34   C     C_R   0.535833 0.336768 0.203588 -0.005267
C35   C     C_R   0.538591 0.344674 0.284536 -0.107034
C36   C     C_R   0.637750 0.320136 0.329882 0.010029
Cr1   Cr    Cr6+3 0.402240 0.783890 0.019450 1.006717
Cr2   Cr    Cr6+3 0.382360 0.097900 0.991800 1.010626
Cr3   Cr    Cr6+3 0.715380 0.118170 0.988700 1.021076
Cr4   Cr    Cr6+3 0.936650 0.882420 0.465510 1.016679
Cr5   Cr    Cr6+3 0.605770 0.565620 0.493360 1.037743
Cr6   Cr    Cr6+3 0.921340 0.550490 0.496380 1.038716
H1    H     H_    0.017031 0.936413 0.679298 0.154850
H2    H     H_    0.243722 0.668284 0.826987 0.144821
H3    H     H_    0.470890 0.378882 0.311928 0.140875
H4    H     H_    0.796706 0.246154 0.333613 0.146583
H5    H     H_    0.793950 0.226385 0.196844 0.149834
H6    H     H_    0.572240 0.615538 0.851416 0.129878
H7    H     H_    0.554754 0.588317 0.714025 0.146386
H8    H     H_    0.801133 0.058486 0.635557 0.139192
H9    H     H_    0.811175 0.087037 0.774808 0.150861
H10   H     H_    0.051432 0.947879 0.817331 0.138880
O1    O     O_R   0.521780 0.757110 0.108900 -0.531559
O2    O     O_R   0.513330 0.228330 0.898660 -0.493897
O3    O     O_R   0.739230 0.266130 0.888050 -0.507330
O4    O     O_R   0.712580 0.991850 0.918770 -0.502456
O5    O     O_3   0.499990 0.999980 0.999980 -0.261142
O6    O     O_R   0.083770 0.911170 0.376030 -0.511751
O7    O     O_R   0.808770 0.880340 0.383890 -0.491599
O8    O     O_R   0.584340 0.689460 0.394160 -0.503680
O9    O     O_R   0.614320 0.443940 0.423590 -0.519481
O10   O     O_R   0.805020 0.410040 0.421340 -0.513740
O11   O     O_R   0.049240 0.685450 0.403290 -0.489718
O12   O     O_R   0.275160 0.783810 0.101120 -0.490958
O13   O     O_R   0.077520 0.903010 0.551800 -0.519709
O14   O     O_R   0.802980 0.872780 0.546830 -0.510664
O15   O     O_R   0.578090 0.681300 0.569920 -0.496047
O16   O     O_R   0.608530 0.436370 0.586530 -0.489289
O17   O     O_R   0.798770 0.401880 0.597100 -0.501692
O18   O     O_R   0.043450 0.677890 0.566230 -0.502615
O19   O     O_3   0.821250 0.666180 0.485090 -0.299646
O20   O     O_R   0.237900 0.972600 0.090980 -0.515179
O21   O     O_R   0.511190 0.220540 0.061620 -0.533861
O22   O     O_R   0.736920 0.257720 0.063840 -0.519243
O23   O     O_R   0.710450 0.984050 0.081720 -0.498489
O24   O     O_R   0.524090 0.765520 0.933110 -0.523122
O25   O     O_R   0.277300 0.791600 0.938160 -0.501348
O26   O     O_R   0.240210 0.981010 0.915190 -0.509638
C37   C     C_3   0.431791 0.369113 0.152923 -0.264984
C38   C     C_3   0.342737 0.423026 0.193754 -0.427256
H11   H     H_    0.264418 0.335726 0.242983 0.145445
H12   H     H_    0.415777 0.522332 0.217457 0.180250
H13   H     H_    0.278658 0.451054 0.149732 0.156268
H14   H     H_    0.496507 0.453240 0.099038 0.158417
H15   H     H_    0.350564 0.267603 0.133704 0.183322
C39   C     C_1   0.224076 0.635693 0.677896 0.210692
N1    N     N_1   0.262505 0.567973 0.648620 -0.278557

loop_
_geom_bond_atom_site_label_1
_geom_bond_atom_site_label_2
_ccdc_geom_bond_type
Cr4   O19   S    
C12   O22   A    
C19   C20   A    
C16   H9    S    
Cr5   O9    S    
C18   H10   S    
C7    C8    T    
Cr5   O15   S    
C20   C30   S    
C2    H4    S    
C18   C24   A    
C21   C22   A    
C26   O9    A    
C34   C35   A    
C5    C6    T    
Cr3   O22   S    
C6    C25   S    
C15   C16   A    
Cr2   O5    S    
Cr6   O18   S    
C18   C19   A    
C15   H8    S    
C9    C32   S    
Cr3   O3    S    
C35   C36   A    
C16   C17   A    
C5    C23   S    
C31   O25   A    
C25   O8    A    
Cr3   O23   S    
C4    C12   S    
C9    C10   T    
Cr6   O10   S    
C32   O3    A    
Cr5   O19   S    
Cr1   O1    S    
C33   O4    A    
Cr4   O7    S    
Cr4   O14   S    
C13   C14   A    
C11   H6    S    
C17   C33   S    
C38   H13   S    
C32   O2    A    
C30   O18   A    
C19   H1    S    
C23   O1    A    
Cr5   O16   S    
C29   O17   A    
Cr2   O20   S    
C1    O20   A    
Cr4   O6    S    
C28   O15   A    
C38   H12   S    
C39   N1    T    
Cr2   O26   S    
Cr1   O25   S    
Cr6   O17   S    
C28   O14   A    
C34   C37   S    
C29   O16   A    
C33   O24   A    
Cr3   O4    S    
Cr2   O2    S    
C27   O11   A    
C13   H7    S    
C26   C36   S    
Cr1   O24   S    
Cr4   O13   S    
C22   C24   A    
C3    C4    A    
C35   H3    S    
C1    O12   A    
C37   H15   S    
Cr1   O12   S    
C31   O26   A    
C2    C36   A    
C21   C39   S    
C11   C17   A    
C22   H2    S    
C1    C7    S    
Cr5   O8    S    
C23   O23   A    
C38   H11   S    
C27   O6    A    
C2    C3    A    
C26   O10   A    
C24   C31   S    
C11   C13   A    
C10   C29   S    
C37   H14   S    
C3    H5    S    
Cr6   O19   S    
C4    C34   A    
C30   O13   A    
C37   C38   S    
C20   C21   A    
C8    C27   S    
C14   C15   A    
C25   O7    A    
C14   C28   S    
C12   O21   A    
Cr6   O11   S    
Cr1   O5    S    
Cr2   O21   S    
Cr3   O5    S    
