data_mof_unit_57616.cif
_audit_creation_date              2012-12-11T14:54:18-0500
_audit_creation_method            fapswitch 2.2
_symmetry_space_group_name_H-M    P1
_symmetry_Int_Tables_number       1
_space_group_crystal_system       triclinic
_cell_length_a                    19.046895
_cell_length_b                    10.859266
_cell_length_c                    18.810104
_cell_angle_alpha                 89.737162
_cell_angle_beta                  90.064914
_cell_angle_gamma                 89.747858
_cell_volume                      3890.51229387

loop_
_atom_site_label
_atom_site_type_symbol
_atom_type_description
_atom_site_fract_x
_atom_site_fract_y
_atom_site_fract_z
_atom_type_partial_charge
C1    C     C_R   0.729017 0.374191 0.644997 0.550023
C2    C     C_R   0.271392 0.374357 0.355411 0.541828
C3    C     C_R   0.229018 0.874195 0.644998 0.550010
C4    C     C_R   0.771399 0.874341 0.355416 0.541814
C5    C     C_3   0.519284 0.358565 0.451315 -0.250586
C6    C     C_3   0.539904 0.363011 0.529114 -0.249039
C7    C     C_3   0.019377 0.858491 0.451296 -0.250617
C8    C     C_3   0.039984 0.862947 0.529098 -0.249007
C9    C     C_R   0.691473 0.882989 0.536876 -0.142368
C10   C     C_R   0.262008 0.821646 0.453041 -0.121456
C11   C     C_R   0.191527 0.382749 0.536906 -0.142357
C12   C     C_R   0.762035 0.321643 0.453043 -0.121436
C13   C     C_R   0.696138 0.873011 0.463356 -0.151322
C14   C     C_R   0.258583 0.801752 0.525860 -0.102476
C15   C     C_R   0.196168 0.372801 0.463382 -0.151254
C16   C     C_R   0.758611 0.301746 0.525861 -0.102437
C17   C     C_R   0.759116 0.903214 0.429516 0.014667
C18   C     C_R   0.244660 0.900772 0.571894 0.048454
C19   C     C_R   0.259088 0.403292 0.429501 0.014708
C20   C     C_R   0.744660 0.400774 0.571894 0.048451
C21   C     C_R   0.817322 0.940838 0.469782 -0.131676
C22   C     C_R   0.235344 0.019532 0.545678 -0.131103
C23   C     C_R   0.317257 0.441219 0.469732 -0.131723
C24   C     C_R   0.735312 0.519544 0.545678 -0.131103
C25   C     C_R   0.813658 0.945585 0.542384 -0.138196
C26   C     C_R   0.240139 0.039523 0.473412 -0.119877
C27   C     C_R   0.313626 0.445921 0.542334 -0.138210
C28   C     C_R   0.740106 0.539542 0.473412 -0.119882
C29   C     C_R   0.750129 0.921910 0.576337 0.013159
C30   C     C_R   0.252500 0.940733 0.427085 0.044132
C31   C     C_R   0.250149 0.421935 0.576331 0.013188
C32   C     C_R   0.752499 0.440742 0.427087 0.044118
C33   C     C_R   0.464007 0.061931 0.950098 -0.113425
C34   C     C_R   0.444896 0.059202 0.020991 -0.109511
C35   C     C_R   0.964006 0.561931 0.950098 -0.113424
C36   C     C_R   0.944895 0.559203 0.020991 -0.109511
C37   C     C_R   0.455181 0.162395 0.063750 0.028775
C38   C     C_R   0.494859 0.167378 0.920987 0.020160
C39   C     C_R   0.955181 0.662395 0.063749 0.028774
C40   C     C_R   0.994859 0.667378 0.920987 0.020161
C41   C     C_R   0.482210 0.271026 0.033828 -0.135246
C42   C     C_R   0.501805 0.273629 0.962542 -0.137258
C43   C     C_R   0.982211 0.771026 0.033828 -0.135247
C44   C     C_R   0.001806 0.773629 0.962542 -0.137257
C45   C     C_R   0.529296 0.155437 0.647993 0.558145
C46   C     C_R   0.436328 0.149606 0.361420 0.571769
C47   C     C_R   0.029298 0.655438 0.647993 0.558174
C48   C     C_R   0.936336 0.649605 0.361420 0.571741
C49   C     C_R   0.814752 0.927256 0.956997 -0.123805
C50   C     C_R   0.204505 0.011097 0.029243 -0.134038
C51   C     C_R   0.314752 0.427256 0.956997 -0.123805
C52   C     C_R   0.704504 0.511097 0.029243 -0.134039
C53   C     C_R   0.819530 0.921638 0.029731 -0.139328
C54   C     C_R   0.204676 0.000791 0.956645 -0.158004
C55   C     C_R   0.319530 0.421638 0.029731 -0.139328
C56   C     C_R   0.704676 0.500791 0.956645 -0.158004
C57   C     C_R   0.759431 0.902273 0.071689 0.037408
C58   C     C_R   0.249833 0.917002 0.923582 0.034054
C59   C     C_R   0.259431 0.402273 0.071689 0.037409
C60   C     C_R   0.749833 0.417002 0.923582 0.034053
C61   C     C_R   0.693505 0.887535 0.039156 0.061257
C62   C     C_R   0.300544 0.851711 0.964679 0.068868
C63   C     C_R   0.193505 0.387535 0.039156 0.061256
C64   C     C_R   0.800544 0.351711 0.964679 0.068868
C65   C     C_R   0.688929 0.896544 0.965688 -0.115044
C66   C     C_R   0.299415 0.862376 0.038204 -0.127875
C67   C     C_R   0.188929 0.396544 0.965687 -0.115045
C68   C     C_R   0.799415 0.362376 0.038204 -0.127875
C69   C     C_R   0.749210 0.920628 0.924876 0.005824
C70   C     C_R   0.251401 0.941219 0.070638 0.006842
C71   C     C_R   0.249210 0.420628 0.924876 0.005823
C72   C     C_R   0.751401 0.441219 0.070638 0.006842
C73   C     C_R   0.741281 0.968555 0.647665 0.532697
C74   C     C_R   0.258667 0.969673 0.352756 0.538437
C75   C     C_R   0.241285 0.468552 0.647666 0.532706
C76   C     C_R   0.758668 0.469678 0.352757 0.538447
C77   C     C_R   0.730312 0.378692 0.852337 0.562524
C78   C     C_R   0.271427 0.376276 0.146327 0.560869
C79   C     C_R   0.230312 0.878692 0.852337 0.562524
C80   C     C_R   0.771428 0.876276 0.146327 0.560872
C81   C     C_R   0.531054 0.157436 0.852933 0.550545
C82   C     C_R   0.436945 0.153607 0.138939 0.555652
C83   C     C_R   0.031054 0.657436 0.852933 0.550541
C84   C     C_R   0.936945 0.653607 0.138939 0.555651
C85   C     C_R   0.741179 0.969386 0.853812 0.549214
C86   C     C_R   0.259196 0.973691 0.144657 0.541483
C87   C     C_R   0.241179 0.469386 0.853812 0.549214
C88   C     C_R   0.759196 0.473691 0.144657 0.541485
C89   C     C_R   0.450648 0.152159 0.438330 -0.009326
C90   C     C_R   0.484748 0.163178 0.584465 -0.001540
C91   C     C_R   0.950677 0.652154 0.438324 -0.009282
C92   C     C_R   0.984763 0.663183 0.584460 -0.001515
C93   C     C_R   0.465408 0.264439 0.471178 -0.024172
C94   C     C_R   0.484363 0.269052 0.542087 -0.025647
C95   C     C_R   0.965472 0.764423 0.471163 -0.024334
C96   C     C_R   0.984415 0.769043 0.542073 -0.025719
C97   C     C_R   0.453774 0.055272 0.556530 0.085385
C98   C     C_R   0.444118 0.045196 0.482313 0.078159
C99   C     C_R   0.953778 0.555285 0.556528 0.085400
C100  C     C_R   0.944127 0.545201 0.482311 0.078186
Cr1   Cr    Cr6+3 0.771950 0.169480 0.750100 1.083607
Cr2   Cr    Cr6+3 0.228050 0.169480 0.249900 1.052610
Cr3   Cr    Cr6+3 0.271950 0.669480 0.750100 1.083598
Cr4   Cr    Cr6+3 0.728050 0.669480 0.249900 1.052619
Cr5   Cr    Cr6+3 0.614930 0.323340 0.749170 1.031057
Cr6   Cr    Cr6+3 0.385070 0.323340 0.250830 1.029136
Cr7   Cr    Cr6+3 0.114930 0.823340 0.749170 1.031046
Cr8   Cr    Cr6+3 0.885070 0.823340 0.250830 1.029140
Cr9   Cr    Cr6+3 0.616590 0.010620 0.750610 1.054012
Cr10  Cr    Cr6+3 0.383410 0.010620 0.249390 1.067028
Cr11  Cr    Cr6+3 0.116590 0.510620 0.750610 1.054021
Cr12  Cr    Cr6+3 0.883410 0.510620 0.249390 1.067033
H1    H     H_    0.861795 0.944587 0.926250 0.161704
H2    H     H_    0.168438 0.076899 0.052533 0.172299
H3    H     H_    0.361795 0.444588 0.926250 0.161705
H4    H     H_    0.668438 0.576899 0.052533 0.172299
H5    H     H_    0.871121 0.931318 0.052959 0.149043
H6    H     H_    0.166501 0.054294 0.926736 0.148467
H7    H     H_    0.371121 0.431319 0.052960 0.149043
H8    H     H_    0.666501 0.554294 0.926736 0.148469
H9    H     H_    0.637463 0.892944 0.941233 0.164759
H10   H     H_    0.337763 0.812535 0.069885 0.152469
H11   H     H_    0.137463 0.392943 0.941233 0.164759
H12   H     H_    0.837763 0.312535 0.069885 0.152470
H13   H     H_    0.995332 0.945792 0.431866 0.154713
H14   H     H_    0.093843 0.827057 0.539232 0.156427
H15   H     H_    0.495211 0.445853 0.431900 0.154699
H16   H     H_    0.593776 0.327165 0.539233 0.156425
H17   H     H_    0.561381 0.320666 0.416666 0.158568
H18   H     H_    0.527370 0.452575 0.554613 0.158561
H19   H     H_    0.061468 0.820542 0.416659 0.158576
H20   H     H_    0.027472 0.952529 0.554584 0.158567
H21   H     H_    0.641452 0.865552 0.562245 0.163261
H22   H     H_    0.271983 0.745426 0.417422 0.134010
H23   H     H_    0.141549 0.365049 0.562310 0.163153
H24   H     H_    0.772034 0.245418 0.417424 0.134056
H25   H     H_    0.651257 0.841260 0.433271 0.156226
H26   H     H_    0.263994 0.708654 0.546072 0.145559
H27   H     H_    0.151318 0.340809 0.433327 0.156198
H28   H     H_    0.764045 0.208636 0.546072 0.145600
H29   H     H_    0.867119 0.963688 0.445613 0.154858
H30   H     H_    0.223635 0.095678 0.580844 0.127712
H31   H     H_    0.367012 0.464310 0.445539 0.154854
H32   H     H_    0.723579 0.595695 0.580843 0.127760
H33   H     H_    0.859614 0.975739 0.571429 0.153233
H34   H     H_    0.234266 0.132345 0.453289 0.137791
H35   H     H_    0.359560 0.476289 0.571344 0.153313
H36   H     H_    0.734207 0.632377 0.453290 0.137854
H37   H     H_    0.458558 0.979162 0.918984 0.173863
H38   H     H_    0.424669 0.974713 0.043273 0.154035
H39   H     H_    0.958557 0.479162 0.918984 0.173862
H40   H     H_    0.924669 0.474714 0.043272 0.154035
H41   H     H_    0.490682 0.352189 0.065881 0.140796
H42   H     H_    0.526190 0.355888 0.941342 0.144530
H43   H     H_    0.990682 0.852189 0.065881 0.140796
H44   H     H_    0.026190 0.855888 0.941343 0.144530
O1    O     O_R   0.787510 0.042610 0.670410 -0.516630
O2    O     O_R   0.212490 0.042610 0.329590 -0.516858
O3    O     O_R   0.287510 0.542610 0.670410 -0.516673
O4    O     O_R   0.712490 0.542610 0.329590 -0.516846
O5    O     O_R   0.556450 0.252890 0.823790 -0.503873
O6    O     O_R   0.443550 0.252890 0.176210 -0.498867
O7    O     O_R   0.056450 0.752890 0.823790 -0.503876
O8    O     O_R   0.943550 0.752890 0.176210 -0.498866
O9    O     O_R   0.545750 0.051070 0.830560 -0.508578
O10   O     O_R   0.454250 0.051070 0.169440 -0.472255
O11   O     O_R   0.045750 0.551070 0.830560 -0.508584
O12   O     O_R   0.954250 0.551070 0.169440 -0.472254
O13   O     O_R   0.681210 0.959150 0.825320 -0.511505
O14   O     O_R   0.318790 0.959150 0.174680 -0.524296
O15   O     O_R   0.181210 0.459150 0.825320 -0.511512
O16   O     O_R   0.818790 0.459150 0.174680 -0.524295
O17   O     O_3   0.667820 0.167810 0.749960 -0.263684
O18   O     O_3   0.332180 0.167810 0.250040 -0.307240
O19   O     O_3   0.167820 0.667810 0.749960 -0.263679
O20   O     O_3   0.832180 0.667810 0.250040 -0.307244
O21   O     O_R   0.765670 0.292090 0.675090 -0.476308
O22   O     O_R   0.234330 0.292090 0.324910 -0.497997
O23   O     O_R   0.265670 0.792090 0.675090 -0.476307
O24   O     O_R   0.734330 0.792090 0.324910 -0.497985
O25   O     O_R   0.670220 0.409020 0.668560 -0.528409
O26   O     O_R   0.329780 0.409020 0.331440 -0.526005
O27   O     O_R   0.170220 0.909020 0.668560 -0.528415
O28   O     O_R   0.829780 0.909020 0.331440 -0.525982
O29   O     O_R   0.556580 0.251590 0.674980 -0.506406
O30   O     O_R   0.443420 0.251590 0.325020 -0.495052
O31   O     O_R   0.056580 0.751590 0.674980 -0.506419
O32   O     O_R   0.943420 0.751590 0.325020 -0.495067
O33   O     O_R   0.545890 0.049670 0.670030 -0.481436
O34   O     O_R   0.454110 0.049670 0.329970 -0.461213
O35   O     O_R   0.045890 0.549670 0.670030 -0.481402
O36   O     O_R   0.954110 0.549670 0.329970 -0.461206
O37   O     O_R   0.681340 0.957860 0.676500 -0.505717
O38   O     O_R   0.318660 0.957860 0.323500 -0.489601
O39   O     O_R   0.181340 0.457860 0.676500 -0.505684
O40   O     O_R   0.818660 0.457860 0.323500 -0.489607
O41   O     O_R   0.787380 0.044010 0.830940 -0.484788
O42   O     O_R   0.212620 0.044010 0.169060 -0.505633
O43   O     O_R   0.287380 0.544010 0.830940 -0.484784
O44   O     O_R   0.712620 0.544010 0.169060 -0.505634
O45   O     O_R   0.765540 0.293390 0.823910 -0.458111
O46   O     O_R   0.234460 0.293390 0.176090 -0.469478
O47   O     O_R   0.265540 0.793390 0.823910 -0.458110
O48   O     O_R   0.734460 0.793390 0.176090 -0.469479
O49   O     O_R   0.670090 0.410410 0.829090 -0.528021
O50   O     O_R   0.329910 0.410410 0.170910 -0.531238
O51   O     O_R   0.170090 0.910410 0.829090 -0.528023
O52   O     O_R   0.829910 0.910410 0.170910 -0.531233
I1    I     I_    0.424304 0.904984 0.625251 -0.305793
I2    I     I_    0.439303 0.861219 0.440485 -0.338737
I3    I     I_    0.924286 0.405018 0.625254 -0.305756
I4    I     I_    0.939301 0.361220 0.440488 -0.338614
I5    I     I_    0.598007 0.863158 0.095798 -0.339400
I6    I     I_    0.383032 0.738866 0.924289 -0.395386
I7    I     I_    0.098007 0.363158 0.095798 -0.339396
I8    I     I_    0.883032 0.238866 0.924289 -0.395388

loop_
_geom_bond_atom_site_label_1
_geom_bond_atom_site_label_2
_ccdc_geom_bond_type
C58   C62   A    
C49   H1    S    
C74   O38   A    
Cr11  O35   S    
C93   C94   A    
C88   O16   A    
C73   O37   A    
C34   C37   A    
Cr4   O44   S    
C41   C42   A    
C14   C18   A    
Cr9   O17   S    
Cr1   O17   S    
C95   C96   A    
C8    C96   S    
Cr6   O6    S    
C87   O43   A    
C6    H18   S    
Cr3   O3    S    
Cr2   O2    S    
C3    O27   A    
C97   C98   A    
C34   H38   S    
C7    C8    S    
Cr4   O20   S    
C46   C89   S    
C55   H7    S    
C15   C19   A    
Cr8   O8    S    
C10   H22   S    
C50   C54   A    
C35   H39   S    
Cr11  O19   S    
C64   C68   A    
C42   H42   S    
Cr4   O4    S    
C39   C84   S    
C48   O32   A    
C11   H23   S    
Cr2   O42   S    
C2    O26   A    
C5    C6    S    
C30   C74   S    
C53   H5    S    
C29   C73   S    
C75   O3    A    
Cr12  O12   S    
Cr7   O31   S    
C92   C96   A    
C3    C18   S    
C51   H3    S    
C47   C92   S    
Cr1   O41   S    
Cr5   O29   S    
C26   H34   S    
C9    C13   A    
Cr6   O26   S    
C3    O23   A    
C76   O40   A    
C11   C15   A    
Cr12  O40   S    
C12   C16   A    
Cr9   O33   S    
C6    C94   S    
C48   C91   S    
C8    H20   S    
C66   H10   S    
Cr9   O37   S    
C65   H9    S    
C91   C100  A    
C97   I1    S    
C90   C97   A    
Cr3   O23   S    
C84   O8    A    
Cr8   O52   S    
C5    C93   S    
C80   O52   A    
C5    H17   S    
C11   C31   A    
C49   C69   A    
C67   H11   S    
C12   C32   A    
C89   C93   A    
C56   H8    S    
C40   C83   S    
C23   H31   S    
Cr6   O50   S    
Cr12  O16   S    
C61   I5    S    
C4    O24   A    
C41   H41   S    
C43   H43   S    
C59   C78   S    
C72   C88   S    
C85   O13   A    
C90   C94   A    
C15   H27   S    
C52   H4    S    
C25   C29   A    
C63   C67   A    
C60   C77   S    
C28   H36   S    
C82   O10   A    
C62   C66   A    
C27   C31   A    
C44   H44   S    
C14   H26   S    
C28   C32   A    
C62   I6    S    
Cr6   O30   S    
C10   C14   A    
Cr8   O28   S    
C36   H40   S    
C99   I3    S    
C82   O6    A    
C51   C55   A    
C78   O46   A    
C83   O11   A    
C100  I4    S    
C17   C21   A    
C56   C60   A    
Cr7   O27   S    
C68   C72   A    
C50   H2    S    
C35   C36   A    
C13   H25   S    
Cr4   O24   S    
C19   C23   A    
C43   C44   A    
C78   O50   A    
Cr10  O38   S    
C52   C72   A    
C77   O49   A    
Cr12  O36   S    
C98   I2    S    
C10   C30   A    
C31   C75   S    
C99   C100  A    
C16   C20   A    
C87   O15   A    
C68   H12   S    
C5    H15   S    
Cr3   O19   S    
C33   C34   A    
Cr6   O18   S    
C75   O39   A    
Cr3   O43   S    
C4    O28   A    
C74   O2    A    
C57   C61   A    
C45   C90   S    
Cr9   O9    S    
C58   C79   S    
C86   O42   A    
C71   C87   S    
C4    C17   S    
Cr10  O14   S    
C8    H14   S    
C7    H13   S    
C57   C80   S    
C26   C30   A    
C83   O7    A    
C23   C27   A    
C25   H33   S    
C54   H6    S    
C38   C81   S    
C12   H24   S    
Cr2   O22   S    
Cr5   O5    S    
C37   C82   S    
Cr11  O11   S    
Cr9   O13   S    
C47   O31   A    
C70   C86   S    
Cr4   O48   S    
C16   H28   S    
C69   C85   S    
C55   C59   A    
C54   C58   A    
C45   O33   A    
C59   C63   A    
C65   C69   A    
C21   C25   A    
C76   O4    A    
C1    C20   S    
C1    O25   A    
Cr12  O20   S    
C2    C19   S    
C86   O14   A    
C6    H16   S    
Cr7   O51   S    
Cr8   O32   S    
C36   C39   A    
C24   C28   A    
Cr7   O7    S    
C53   C57   A    
C32   C76   S    
C39   C43   A    
C22   H30   S    
C51   C71   A    
C47   O35   A    
Cr5   O49   S    
C73   O1    A    
C9    C29   A    
Cr2   O18   S    
C7    C95   S    
C66   C70   A    
C79   O47   A    
C33   C38   A    
C13   C17   A    
C89   C98   A    
C60   C64   A    
Cr5   O25   S    
C88   O44   A    
C18   C22   A    
C35   C40   A    
Cr2   O46   S    
C21   H29   S    
C7    H19   S    
Cr1   O45   S    
C81   O5    A    
C77   O45   A    
Cr10  O10   S    
C45   O29   A    
C46   O34   A    
Cr10  O18   S    
Cr7   O19   S    
C24   H32   S    
C49   C53   A    
Cr8   O20   S    
C33   H37   S    
Cr10  O34   S    
C67   C71   A    
C79   O51   A    
C37   C41   A    
Cr3   O47   S    
C50   C70   A    
C48   O36   A    
Cr1   O21   S    
Cr1   O1    S    
C38   C42   A    
C61   C65   A    
C40   C44   A    
C84   O12   A    
C46   O30   A    
C91   C95   A    
C27   H35   S    
C22   C26   A    
C81   O9    A    
C85   O41   A    
Cr5   O17   S    
C2    O22   A    
C63   I7    S    
C80   O48   A    
C1    O21   A    
C20   C24   A    
C64   I8    S    
C52   C56   A    
C92   C99   A    
Cr11  O39   S    
Cr11  O15   S    
C9    H21   S    
