data_mof_unit_17351.cif
_audit_creation_date              2012-12-10T17:28:56-0500
_audit_creation_method            fapswitch 2.2
_symmetry_space_group_name_H-M    P1
_symmetry_Int_Tables_number       1
_space_group_crystal_system       triclinic
_cell_length_a                    18.783601
_cell_length_b                    19.490074
_cell_length_c                    18.667037
_cell_angle_alpha                 110.469098
_cell_angle_beta                  107.950489
_cell_angle_gamma                 109.582303
_cell_volume                      5285.32393419

loop_
_atom_site_label
_atom_site_type_symbol
_atom_type_description
_atom_site_fract_x
_atom_site_fract_y
_atom_site_fract_z
_atom_type_partial_charge
C1    C     C_R   0.621795 0.501907 0.620195 0.812779
C2    C     C_R   0.377827 0.497653 0.379840 0.818322
C3    C     C_3   0.313926 0.218087 0.455121 0.104641
C4    C     C_3   0.685950 0.780542 0.545683 0.118859
C5    C     C_3   0.320684 0.308161 0.505389 -0.215421
C6    C     C_3   0.678597 0.690877 0.493635 -0.227333
C7    C     C_3   0.193008 0.187284 0.502110 -0.262245
C8    C     C_3   0.805687 0.812126 0.496742 -0.236544
C9    C     C_3   0.155304 0.221874 0.443049 0.132529
C10   C     C_3   0.843633 0.775997 0.553402 0.141481
C11   C     C_3   0.245738 0.147252 0.461189 0.447119
C12   C     C_3   0.753351 0.851716 0.539600 0.388562
C13   C     C_3   0.731071 0.583778 0.785494 0.384092
C14   C     C_3   0.268697 0.416115 0.214303 0.366688
C15   C     C_3   0.812987 0.588486 0.851975 0.036068
C16   C     C_3   0.187121 0.411973 0.148026 0.030988
C17   C     C_3   0.650546 0.418102 0.693850 0.110838
C18   C     C_3   0.349132 0.581830 0.307323 0.119530
C19   C     C_3   0.768539 0.501774 0.664809 0.310272
C20   C     C_3   0.230644 0.496650 0.335003 0.314949
C21   C     C_3   0.691083 0.501400 0.689509 -0.212152
C22   C     C_3   0.308445 0.497982 0.310591 -0.211057
C23   C     C_R   0.386564 0.380603 0.506010 0.834544
C24   C     C_R   0.613309 0.619152 0.493854 0.836046
C25   C     C_3   0.811284 0.499926 0.811917 -0.419575
C26   C     C_3   0.188535 0.500345 0.188800 -0.414996
C27   C     C_3   0.715518 0.428734 0.778794 0.221911
C28   C     C_3   0.284341 0.572127 0.222966 0.234172
C29   C     C_3   0.830300 0.488731 0.732641 0.248922
C30   C     C_3   0.168996 0.510203 0.267593 0.247487
C31   C     C_3   0.008286 0.314855 0.815168 -0.098117
C32   C     C_3   0.992166 0.684856 0.186230 -0.135964
C33   C     C_R   0.004420 0.122479 0.621216 0.768994
C34   C     C_R   0.997891 0.879580 0.379050 0.842567
C35   C     C_R   0.120488 0.120444 0.501356 0.915598
C36   C     C_R   0.879149 0.878826 0.497826 0.842887
C37   C     C_R   0.996481 0.618409 0.117829 0.850690
C38   C     C_R   0.004028 0.381595 0.882981 0.887314
C39   C     C_R   0.880020 0.501726 0.882695 0.917521
C40   C     C_R   0.119977 0.498813 0.117975 0.915549
C41   C     C_3   0.917127 0.163990 0.684285 -0.464059
C42   C     C_3   0.083702 0.836546 0.317224 -0.299213
C43   C     C_3   0.071456 0.216158 0.792049 0.269714
C44   C     C_3   0.926978 0.781263 0.209813 0.288383
C45   C     C_3   0.054831 0.348918 0.767940 0.222037
C46   C     C_3   0.956320 0.654505 0.242924 0.257146
C47   C     C_3   0.059357 0.279969 0.858436 -0.405289
C48   C     C_3   0.931278 0.711125 0.141620 -0.382774
C49   C     C_3   0.913647 0.239610 0.741875 -0.040991
C50   C     C_3   0.086533 0.765120 0.252336 -0.043445
C51   C     C_3   0.008301 0.190729 0.695314 -0.068291
C52   C     C_3   0.993358 0.809693 0.306425 -0.165599
C53   C     C_3   0.039500 0.272065 0.688506 -0.482949
C54   C     C_3   0.966747 0.731611 0.317977 -0.472148
C55   C     C_3   0.339184 0.325397 0.600030 -0.160985
C56   C     C_3   0.658637 0.674366 0.398942 -0.160676
C57   C     C_3   0.257032 0.267000 0.599313 0.271306
C58   C     C_3   0.739839 0.733732 0.398816 0.283890
C59   C     C_3   0.230053 0.297490 0.454210 -0.175851
C60   C     C_3   0.769228 0.700274 0.542136 -0.164463
Cu1   Cu    Cu3+1 0.499950 0.562450 0.562440 1.159887
Cu2   Cu    Cu3+1 0.500050 0.437550 0.437560 1.174705
Cu3   Cu    Cu3+1 0.062480 0.999960 0.562430 1.193129
Cu4   Cu    Cu3+1 0.937520 0.000040 0.437570 1.170378
Cu5   Cu    Cu3+1 0.062470 0.562430 0.999950 1.192467
Cu6   Cu    Cu3+1 0.937530 0.437570 0.000050 1.195412
H1    H     H_    0.287946 0.202770 0.387315 0.185599
H2    H     H_    0.713034 0.794098 0.612905 0.181403
H3    H     H_    0.122634 0.170423 0.375553 0.212888
H4    H     H_    0.877663 0.827114 0.621527 0.203780
H5    H     H_    0.805233 0.594474 0.910183 0.161289
H6    H     H_    0.195420 0.407043 0.090308 0.139959
H7    H     H_    0.098241 0.285459 0.681346 0.260459
H8    H     H_    0.906213 0.717259 0.321985 0.250704
H9    H     H_    0.702066 0.457160 0.831067 0.194473
H10   H     H_    0.298280 0.544627 0.170813 0.159705
H11   H     H_    0.896688 0.541051 0.762485 0.190675
H12   H     H_    0.102626 0.457506 0.237004 0.192227
H13   H     H_    0.901098 0.117804 0.705388 0.278762
H14   H     H_    0.101847 0.888834 0.305507 0.301026
H15   H     H_    0.988936 0.260916 0.628706 0.190134
H16   H     H_    0.016439 0.746669 0.381003 0.221848
H17   H     H_    0.867497 0.134311 0.615309 0.229631
H18   H     H_    0.131903 0.859591 0.384851 0.218082
H19   H     H_    0.884891 0.259887 0.697649 0.234128
H20   H     H_    0.126105 0.747539 0.292017 0.234742
H21   H     H_    0.023391 0.380541 0.742369 0.162367
H22   H     H_    0.997042 0.632156 0.273049 0.168263
H23   H     H_    0.137922 0.248040 0.802840 0.148633
H24   H     H_    0.861462 0.753810 0.203160 0.159997
H25   H     H_    0.022747 0.248437 0.884278 0.254435
H26   H     H_    0.953152 0.732141 0.100939 0.251723
H27   H     H_    0.123111 0.331228 0.915453 0.194913
H28   H     H_    0.865778 0.655909 0.094160 0.224396
H29   H     H_    0.388537 0.307303 0.621418 0.231186
H30   H     H_    0.608725 0.692057 0.378814 0.232765
H31   H     H_    0.233315 0.357331 0.493469 0.246741
H32   H     H_    0.765014 0.640554 0.500948 0.259241
O1    O     O_R   0.591120 0.552750 0.643890 -0.521787
O2    O     O_R   0.408880 0.447250 0.356110 -0.527380
O3    O     O_R   0.947240 0.538460 0.091150 -0.528925
O4    O     O_R   0.052760 0.461540 0.908850 -0.538593
O5    O     O_R   0.961590 0.552710 0.908800 -0.525445
O6    O     O_R   0.038410 0.447290 0.091200 -0.520425
O7    O     O_R   0.856080 0.447270 0.908890 -0.514374
O8    O     O_R   0.143920 0.552730 0.091110 -0.511686
O9    O     O_R   0.591210 0.447270 0.538420 -0.529907
O10   O     O_R   0.408790 0.552730 0.461580 -0.527764
O11   O     O_R   0.408810 0.461590 0.552740 -0.574592
O12   O     O_R   0.591190 0.538410 0.447260 -0.576793
O13   O     O_R   0.408900 0.356100 0.447280 -0.528160
O14   O     O_R   0.591100 0.643900 0.552720 -0.516722
O15   O     O_R   0.052750 0.091090 0.643890 -0.530892
O16   O     O_R   0.947250 0.908910 0.356110 -0.549608
O17   O     O_R   0.947230 0.091150 0.538450 -0.570479
O18   O     O_R   0.052770 0.908850 0.461550 -0.538624
O19   O     O_R   0.143910 0.091120 0.552710 -0.553590
O20   O     O_R   0.856090 0.908880 0.447290 -0.560717
O21   O     O_R   0.038380 0.091180 0.447270 -0.495281
O22   O     O_R   0.961620 0.908820 0.552730 -0.487213
O23   O     O_R   0.052740 0.643910 0.091070 -0.568793
O24   O     O_R   0.947260 0.356090 0.908930 -0.523007
S1    S     S_3+6 0.170089 0.427287 0.835057 0.025763
O25   O     O_2   0.188735 0.488747 0.803183 -0.179886
O26   O     O_2   0.197168 0.475984 0.930325 -0.283099
O27   O     O_3   0.231971 0.382666 0.825967 -0.578664
H33   H     H_    0.263219 0.390551 0.884268 0.372536
S2    S     S_3+6 0.845145 0.569056 0.190046 0.028509
O28   O     O_2   0.824781 0.487717 0.118130 -0.198024
O29   O     O_2   0.832390 0.552327 0.259177 -0.245312
O30   O     O_3   0.774022 0.597803 0.150424 -0.574630
H34   H     H_    0.717460 0.553640 0.135259 0.393391
S3    S     S_3+6 0.408280 0.207229 0.458888 0.046408
O31   O     O_2   0.463633 0.262376 0.436585 -0.277263
O32   O     O_2   0.461959 0.221779 0.546498 -0.287793
O33   O     O_3   0.375170 0.109715 0.381461 -0.413258
H35   H     H_    0.428214 0.105545 0.392275 0.396759
S4    S     S_3+6 0.593249 0.793227 0.546789 0.060389
O34   O     O_2   0.627264 0.881993 0.615720 -0.163318
O35   O     O_2   0.536957 0.778911 0.460370 -0.268521
O36   O     O_3   0.532439 0.735028 0.575825 -0.509123
H36   H     H_    0.503251 0.765171 0.596438 0.383517
S5    S     S_3+6 0.295169 0.100951 0.520681 0.130184
O37   O     O_2   0.229065 0.030387 0.519291 -0.262944
O38   O     O_2   0.337587 0.060638 0.478519 -0.131789
O39   O     O_3   0.371628 0.172753 0.624645 -0.495472
H37   H     H_    0.390189 0.140317 0.649101 0.402045
S6    S     S_3+6 0.701988 0.897513 0.480416 0.097115
O40   O     O_2   0.665886 0.943040 0.527622 -0.143700
O41   O     O_2   0.764378 0.963181 0.473211 -0.295637
O42   O     O_3   0.619655 0.823789 0.379549 -0.488876
H38   H     H_    0.600911 0.855574 0.354155 0.396411
S7    S     S_3+6 0.172954 0.058632 0.348856 0.029908
O43   O     O_2   0.090267 0.008079 0.344146 -0.297090
O44   O     O_2   0.152412 0.085267 0.282046 -0.312477
O45   O     O_3   0.215618 0.997170 0.319696 -0.439833
H39   H     H_    0.195423 0.975643 0.256557 0.403035
S8    S     S_3+6 0.825539 0.938761 0.653054 0.031803
O46   O     O_2   0.788641 0.994071 0.681615 -0.208588
O47   O     O_2   0.848053 0.911362 0.718782 -0.274320
O48   O     O_3   0.915852 0.995743 0.657474 -0.500005
H40   H     H_    0.893294 0.006214 0.609945 0.323850
N1    N     N_3   0.212005 0.288732 0.368071 -0.594340
H41   H     H_    0.150001 0.279931 0.338347 0.286172
H42   H     H_    0.207834 0.234955 0.324493 0.269106
N2    N     N_3   0.788959 0.707552 0.627831 -0.595933
H43   H     H_    0.850555 0.714812 0.655259 0.288063
H44   H     H_    0.794909 0.761577 0.673129 0.264827
S9    S     S_3+6 0.658444 0.586063 0.835275 0.011085
O49   O     O_2   0.711836 0.664929 0.923371 -0.226143
O50   O     O_2   0.585631 0.593930 0.783727 -0.244089
O51   O     O_3   0.615494 0.507183 0.853319 -0.541517
H45   H     H_    0.581137 0.521643 0.880682 0.400759
S10   S     S_3+6 0.340983 0.413908 0.164202 0.019447
O52   O     O_2   0.414457 0.406925 0.215863 -0.209272
O53   O     O_2   0.287791 0.334139 0.076585 -0.243492
O54   O     O_3   0.383507 0.492825 0.145869 -0.521163
H46   H     H_    0.347552 0.470610 0.082961 0.370318
N3    N     N_3   0.751979 0.660016 0.776245 -0.511918
H47   H     H_    0.752097 0.708240 0.824080 0.304880
H48   H     H_    0.810435 0.688846 0.778242 0.288941
N4    N     N_3   0.247622 0.339632 0.223172 -0.510057
H49   H     H_    0.248985 0.291946 0.176310 0.311447
H50   H     H_    0.188541 0.309890 0.219644 0.290033
S11   S     S_3+6 0.915940 0.687031 0.904026 0.008454
O55   O     O_2   0.950260 0.692234 0.842235 -0.276650
O56   O     O_2   0.902409 0.761091 0.938227 -0.228633
O57   O     O_3   0.993761 0.700546 0.990185 -0.539644
H51   H     H_    0.047454 0.747403 0.003559 0.385936
S12   S     S_3+6 0.084329 0.312867 0.094424 0.015741
O58   O     O_2   0.098862 0.239604 0.059393 -0.205057
O59   O     O_2   0.049405 0.305848 0.155374 -0.265685
O60   O     O_3   0.006567 0.300013 0.008743 -0.532435
H52   H     H_    0.955982 0.245074 0.986075 0.390100
N5    N     N_3   0.567666 0.401932 0.692729 -0.511527
H53   H     H_    0.543895 0.352878 0.704466 0.312375
H54   H     H_    0.521254 0.384184 0.631709 0.199793
N6    N     N_3   0.431759 0.598023 0.307858 -0.504353
H55   H     H_    0.478380 0.615679 0.368712 0.196713
H56   H     H_    0.455212 0.647285 0.296321 0.321855
S13   S     S_3+6 0.741609 0.436783 0.548005 0.090879
O61   O     O_2   0.706647 0.471721 0.494520 -0.272276
O62   O     O_2   0.823994 0.448202 0.546235 -0.192931
O63   O     O_3   0.672759 0.332367 0.493094 -0.445708
H57   H     H_    0.668291 0.311476 0.434417 0.391224
S14   S     S_3+6 0.257370 0.560560 0.451931 0.085040
O64   O     O_2   0.174906 0.548087 0.453986 -0.192810
O65   O     O_2   0.293113 0.525561 0.504874 -0.278479
O66   O     O_3   0.325540 0.665107 0.507213 -0.470175
H58   H     H_    0.329917 0.685535 0.565848 0.384262
N7    N     N_3   0.819309 0.586025 0.682454 -0.592547
H59   H     H_    0.777568 0.592719 0.638008 0.262960
H60   H     H_    0.870851 0.591932 0.669559 0.297880
N8    N     N_3   0.179762 0.411993 0.316504 -0.592088
H61   H     H_    0.220912 0.404881 0.361052 0.261808
H62   H     H_    0.127689 0.405562 0.328580 0.302375
S15   S     S_3+6 0.847864 0.400332 0.689174 0.053116
O67   O     O_2   0.887067 0.386530 0.761274 -0.359944
O68   O     O_2   0.767323 0.319214 0.617580 -0.191971
O69   O     O_3   0.920102 0.424439 0.654058 -0.471637
H63   H     H_    0.914173 0.369770 0.617197 0.368495
S16   S     S_3+6 0.150997 0.598014 0.312031 0.055916
O70   O     O_2   0.231440 0.679057 0.383959 -0.190845
O71   O     O_2   0.111426 0.612637 0.240744 -0.369810
O72   O     O_3   0.078997 0.572395 0.347120 -0.467097
H64   H     H_    0.090779 0.626899 0.391783 0.377458
N9    N     N_3   0.636646 0.347442 0.618201 -0.419989
H65   H     H_    0.615847 0.290803 0.617577 0.334006
H66   H     H_    0.588670 0.336434 0.563273 0.315264
N10   N     N_3   0.363571 0.651995 0.383993 -0.421733
H67   H     H_    0.413187 0.664150 0.438616 0.306215
H68   H     H_    0.382024 0.708473 0.384324 0.341376
S17   S     S_3+6 0.690424 0.328714 0.779744 0.070302
O73   O     O_2   0.596502 0.263228 0.722234 -0.262999
O74   O     O_2   0.741826 0.291644 0.751529 -0.201034
O75   O     O_3   0.711589 0.346775 0.881113 -0.469014
H69   H     H_    0.708814 0.294785 0.880173 0.380299
S18   S     S_3+6 0.309474 0.673127 0.224274 0.051449
O76   O     O_2   0.291235 0.659490 0.134605 -0.228202
O77   O     O_2   0.257484 0.708806 0.253055 -0.235233
O78   O     O_3   0.414315 0.747200 0.289911 -0.522990
H70   H     H_    0.418478 0.798498 0.288003 0.396233
N11   N     N_3   0.854298 0.212214 0.774905 -0.455156
H71   H     H_    0.874747 0.185531 0.811060 0.262390
H72   H     H_    0.793148 0.165565 0.721902 0.292390
N12   N     N_3   0.134409 0.801105 0.213343 -0.511664
H73   H     H_    0.094345 0.796532 0.156975 0.274058
H74   H     H_    0.173173 0.775351 0.202434 0.305815
S19   S     S_3+6 0.070825 0.138971 0.826150 0.091348
O79   O     O_2   0.143607 0.187165 0.917903 -0.199334
O80   O     O_2   0.988409 0.098299 0.828094 -0.185315
O81   O     O_3   0.087513 0.064137 0.767459 -0.439572
H75   H     H_    0.077764 0.024092 0.789289 0.401978
S20   S     S_3+6 0.932397 0.858200 0.174458 0.083885
O82   O     O_2   0.921650 0.928229 0.227816 -0.189716
O83   O     O_2   0.015019 0.894354 0.171468 -0.225362
O84   O     O_3   0.850606 0.805760 0.072423 -0.452586
H76   H     H_    0.855575 0.848742 0.054659 0.410875
N13   N     N_3   0.376673 0.414120 0.666157 -0.555675
H77   H     H_    0.344858 0.442577 0.642552 0.274743
H78   H     H_    0.441814 0.447622 0.684626 0.290160
N14   N     N_3   0.621215 0.585838 0.332307 -0.546204
H79   H     H_    0.653192 0.557246 0.355366 0.272117
H80   H     H_    0.556305 0.552115 0.314447 0.298298
N15   N     N_3   0.284525 0.241084 0.663497 -0.466372
H81   H     H_    0.339800 0.292831 0.720652 0.258601
H82   H     H_    0.238212 0.224390 0.683426 0.243637
N16   N     N_3   0.710835 0.761893 0.337220 -0.461547
H83   H     H_    0.755625 0.779115 0.315710 0.240526
H84   H     H_    0.654603 0.711034 0.280350 0.255236
N17   N     N_3   0.213405 0.313405 0.626936 -0.524292
H85   H     H_    0.209960 0.351245 0.599719 0.278200
H86   H     H_    0.249590 0.355530 0.694156 0.292538
N18   N     N_3   0.782146 0.687541 0.367218 -0.536922
H87   H     H_    0.785160 0.647469 0.391581 0.288612
H88   H     H_    0.746298 0.648377 0.299331 0.262066
S21   S     S_3+6 0.066686 0.242703 0.440890 0.039462
O85   O     O_2   0.088031 0.328985 0.453233 -0.240958
O86   O     O_2   0.989007 0.178594 0.352519 -0.218065
O87   O     O_3   0.040124 0.235177 0.516686 -0.538881
H89   H     H_    0.978814 0.220587 0.492328 0.380240
S22   S     S_3+6 0.930202 0.753194 0.550598 0.022969
O88   O     O_2   0.950172 0.760092 0.480855 -0.297614
O89   O     O_2   0.010200 0.815943 0.637447 -0.230410
O90   O     O_3   0.905358 0.655857 0.534844 -0.511212
H90   H     H_    0.957890 0.652004 0.540564 0.407874

loop_
_geom_bond_atom_site_label_1
_geom_bond_atom_site_label_2
_ccdc_geom_bond_type
S5    O39   S    
S8    O47   D    
C58   N18   S    
C42   H14   S    
S12   O58   D    
C29   H11   S    
C32   C48   S    
S13   O61   D    
C35   O21   A    
N1    H41   S    
C24   O14   A    
S6    O42   S    
C20   S14   S    
Cu1   O11   S    
S2    O28   D    
C1    O1    A    
N10   H68   S    
O48   H40   S    
S1    O25   D    
C30   S16   S    
C20   C30   S    
C26   C28   S    
C45   S1    S    
S15   O69   S    
C1    C21   S    
O60   H52   S    
C15   S11   S    
S18   O78   S    
S19   O79   D    
S20   O82   D    
Cu4   O21   S    
C48   H28   S    
C19   N7    S    
C16   C26   S    
C30   H12   S    
C46   S2    S    
O45   H39   S    
C19   C21   S    
S6    O41   D    
O78   H70   S    
C60   H32   S    
Cu3   O19   S    
S14   O65   D    
S1    O26   D    
N7    H60   S    
C57   N17   S    
C34   O18   A    
N11   H71   S    
C41   H17   S    
S18   O77   D    
C19   S13   S    
Cu4   O20   S    
O75   H69   S    
C39   O7    A    
N18   H87   S    
C8    C36   S    
C2    O10   A    
Cu1   O10   S    
S10   O52   D    
C17   N9    S    
S20   O83   D    
S12   O60   S    
C14   N4    S    
C45   C53   S    
C54   H8    S    
Cu2   O13   S    
N7    H59   S    
N11   H72   S    
C16   H6    S    
C2    C22   S    
S3    O33   S    
O42   H38   S    
Cu6   O24   S    
N6    H55   S    
C14   C16   S    
Cu5   O23   S    
S7    O44   D    
C18   C22   S    
C36   O20   A    
N15   H81   S    
N12   H73   S    
N18   H88   S    
S8    O48   S    
N13   H77   S    
C38   O4    A    
C28   S18   S    
C33   O15   A    
C44   C52   S    
C29   S15   S    
C2    O2    A    
Cu4   O17   S    
C31   C47   S    
S21   O85   D    
N3    H48   S    
N2    H44   S    
S13   O62   D    
Cu6   O3    S    
C9    S21   S    
Cu1   O1    S    
C47   H25   S    
Cu5   O4    S    
C31   C49   S    
C24   O12   A    
C27   H9    S    
C41   C49   S    
O69   H63   S    
C49   N11   S    
C52   C54   S    
O66   H58   S    
C46   H22   S    
C25   C29   S    
C34   O16   A    
C23   O11   A    
N12   H74   S    
S19   O80   D    
C33   O17   A    
C5    C59   S    
C17   C27   S    
S9    O49   D    
Cu6   O6    S    
N5    H53   S    
C7    C35   S    
C18   C28   S    
O87   H89   S    
C4    C6    S    
C18   N10   S    
C6    C56   S    
C23   O13   A    
C4    H2    S    
C11   S7    S    
S14   O64   D    
S11   O57   S    
N14   H80   S    
Cu2   O9    S    
S16   O72   S    
C3    C5    S    
S15   O67   D    
C13   N3    S    
Cu4   O16   S    
C4    S4    S    
C14   C22   S    
C60   N2    S    
C33   C51   S    
N3    H47   S    
O57   H51   S    
C51   C53   S    
C20   N8    S    
C7    C11   S    
C18   N6    S    
O90   H90   S    
C6    C60   S    
C40   O6    A    
S3    O31   D    
S17   O74   D    
S17   O75   S    
C43   S19   S    
N9    H65   S    
C5    C23   S    
C42   H18   S    
C8    C12   S    
C56   N14   S    
C6    C24   S    
C46   C54   S    
O84   H76   S    
O72   H64   S    
S22   O88   D    
C13   C21   S    
C43   H23   S    
C32   C37   S    
S6    O40   D    
S7    O45   S    
S16   O71   D    
N4    H49   S    
N15   H82   S    
S10   O54   S    
C32   C50   S    
C38   O24   A    
S4    O35   D    
C42   C50   S    
C37   O23   A    
Cu3   O18   S    
C10   H4    S    
C55   H29   S    
N9    H66   S    
C20   C22   S    
C26   C30   S    
C55   C57   S    
C1    O9    A    
C31   C45   S    
S8    O46   D    
C59   H31   S    
S13   O63   S    
Cu2   O2    S    
C35   O19   A    
C4    C12   S    
Cu5   O5    S    
Cu6   O7    S    
O30   H34   S    
C28   H10   S    
S2    O30   S    
N17   H86   S    
Cu5   O8    S    
C54   H16   S    
C44   H24   S    
O51   H45   S    
C40   O8    A    
O39   H37   S    
S9    O50   D    
S5    O38   D    
S18   O76   D    
C16   S12   S    
S19   O81   S    
S12   O59   D    
C47   H27   S    
N4    H50   S    
C45   H21   S    
N8    H61   S    
C32   C46   S    
C5    C55   S    
C3    H1    S    
N16   H84   S    
O33   H35   S    
N13   H78   S    
S4    O36   S    
S2    O29   D    
C41   H13   S    
S1    O27   S    
C44   S20   S    
C39   O5    A    
N14   H79   S    
C41   C51   S    
S15   O68   D    
C15   H5    S    
S22   O90   S    
C34   C52   S    
S20   O84   S    
C31   C38   S    
C10   C60   S    
C12   S8    S    
C10   S22   S    
S22   O89   D    
S21   O86   D    
S5    O37   D    
N8    H62   S    
C3    C11   S    
N10   H67   S    
C14   S10   S    
C44   C48   S    
O36   H36   S    
C25   C39   S    
C37   O3    A    
Cu3   O22   S    
C9    H3    S    
S14   O66   S    
C26   C40   S    
S11   O55   D    
N2    H43   S    
C11   S5    S    
Cu2   O12   S    
C43   C51   S    
O27   H33   S    
C53   H7    S    
C13   S9    S    
S9    O51   S    
S10   O53   D    
C56   C58   S    
C27   S17   S    
C55   N13   S    
C13   C15   S    
Cu5   Cu6   S    
C17   N5    S    
C56   H30   S    
Cu1   Cu2   S    
C36   O22   A    
C53   H15   S    
C17   C21   S    
C12   S6    S    
S11   O56   D    
S4    O34   D    
C50   H20   S    
C57   N15   S    
Cu3   Cu4   S    
Cu3   O15   S    
C7    C9    S    
C8    C58   S    
O63   H57   S    
C15   C25   S    
C8    C10   S    
O54   H46   S    
C48   H26   S    
S21   O87   S    
C58   N16   S    
S3    O32   D    
C59   N1    S    
O81   H75   S    
N1    H42   S    
N6    H56   S    
C3    S3    S    
C49   H19   S    
C9    C59   S    
S7    O43   D    
C50   N12   S    
Cu1   O14   S    
C43   C47   S    
S16   O70   D    
C7    C57   S    
N17   H85   S    
S17   O73   D    
C42   C52   S    
N16   H83   S    
N5    H54   S    
C25   C27   S    
C19   C29   S    
