data_mof_unit_46790.cif
_audit_creation_date              2012-12-10T18:52:10-0500
_audit_creation_method            fapswitch 2.2
_symmetry_space_group_name_H-M    P1
_symmetry_Int_Tables_number       1
_space_group_crystal_system       triclinic
_cell_length_a                    15.733352
_cell_length_b                    10.719808
_cell_length_c                    9.836712
_cell_angle_alpha                 90.00528
_cell_angle_beta                  90.056041
_cell_angle_gamma                 90.13604
_cell_volume                      1659.03973772

loop_
_atom_site_label
_atom_site_type_symbol
_atom_type_description
_atom_site_fract_x
_atom_site_fract_y
_atom_site_fract_z
_atom_type_partial_charge
C1    C     C_R   0.499901 0.259853 0.499944 0.863694
C2    C     C_R   0.500021 0.740146 0.500054 0.861740
C3    C     C_R   0.515499 0.936130 0.378549 -0.195231
C4    C     C_R   0.484180 0.063867 0.621408 -0.195726
C5    C     C_R   0.499953 0.872581 0.500039 -0.010433
C6    C     C_R   0.499797 0.127414 0.499937 -0.010781
C7    C     C_R   0.549487 0.582303 0.072016 -0.064788
C8    C     C_R   0.450471 0.417748 0.927982 -0.072429
C9    C     C_R   0.549467 0.582269 0.928093 -0.070638
C10   C     C_R   0.450495 0.417777 0.071906 -0.074606
C11   C     C_R   0.337864 0.499752 0.499901 0.904811
C12   C     C_R   0.662153 0.500227 0.500102 0.905729
C13   C     C_3   0.971574 0.415515 0.589954 -0.253690
C14   C     C_3   0.028337 0.589283 0.411954 -0.328981
C15   C     C_3   0.027290 0.386991 0.463516 -0.335900
C16   C     C_3   0.972138 0.616967 0.538676 -0.346171
C17   C     C_1   0.249028 0.499536 0.499662 -0.192147
C18   C     C_1   0.751026 0.501338 0.500423 -0.179186
C19   C     C_3   0.028291 0.528630 0.623658 0.577680
C20   C     C_3   0.972050 0.475845 0.377954 0.586045
C21   C     C_3   0.083034 0.500619 0.499595 0.048336
C22   C     C_3   0.917078 0.503132 0.502025 0.089395
C23   C     C_1   0.173804 0.499679 0.499449 -0.033125
C24   C     C_1   0.826273 0.502350 0.501092 0.009007
C25   C     C_R   0.515397 0.063923 0.378492 -0.196051
C26   C     C_R   0.484277 0.936067 0.621464 -0.199410
H1    H     H_    0.051331 0.293953 0.432616 0.150733
H2    H     H_    0.947236 0.709471 0.569714 0.150639
H3    H     H_    0.946654 0.346856 0.664524 0.156267
H4    H     H_    0.053300 0.658543 0.338103 0.156514
H5    H     H_    0.528027 0.112588 0.284068 0.158327
H6    H     H_    0.471639 0.887392 0.715880 0.156487
H7    H     H_    0.528215 0.887513 0.284164 0.153400
H8    H     H_    0.471465 0.112494 0.715788 0.153109
H9    H     H_    0.589047 0.648080 0.126622 0.127236
H10   H     H_    0.410881 0.352011 0.873375 0.125358
H11   H     H_    0.589019 0.648015 0.873569 0.128936
H12   H     H_    0.410919 0.352061 0.126428 0.126756
N1    N     N_R   0.499980 0.499970 0.857200 -0.080131
N2    N     N_R   0.500020 0.500030 0.142800 -0.080047
O1    O     O_R   0.499990 0.316750 0.614620 -0.628207
O2    O     O_R   0.500010 0.683250 0.385380 -0.629794
O3    O     O_R   0.500000 0.316780 0.385290 -0.629363
O4    O     O_R   0.500000 0.683220 0.614710 -0.630503
O5    O     O_R   0.376780 0.499970 0.614640 -0.612083
O6    O     O_R   0.623220 0.500030 0.385360 -0.605327
O7    O     O_R   0.376780 0.500000 0.385310 -0.615624
O8    O     O_R   0.623220 0.500000 0.614690 -0.614263
Zn1   Zn    Zn3+2 0.500000 0.499980 0.653120 0.950007
Zn2   Zn    Zn3+2 0.500000 0.500020 0.346880 0.952670
O9    O     O_3   0.935542 0.450648 0.249758 -0.607893
C27   C     C_3   0.000009 0.416640 0.157490 0.081848
H13   H     H_    0.028352 0.325551 0.186918 0.136601
H14   H     H_    0.050911 0.488871 0.152520 0.140810
C28   C     C_3   0.961718 0.402789 0.016241 -0.752945
H15   H     H_    0.935734 0.493591 0.981365 0.267948
H16   H     H_    0.011401 0.371714 0.943753 0.233566
H17   H     H_    0.909847 0.332351 0.017796 0.243917
O10   O     O_3   0.060273 0.547708 0.756157 -0.625910
C29   C     C_3   0.092298 0.670105 0.768725 0.103266
H18   H     H_    0.039235 0.738490 0.768203 0.138310
H19   H     H_    0.137742 0.693090 0.685609 0.144011
C30   C     C_3   0.139131 0.681972 0.903432 -0.827882
H20   H     H_    0.192442 0.614306 0.907414 0.261221
H21   H     H_    0.165083 0.777871 0.914391 0.205163
H22   H     H_    0.094909 0.663148 0.988970 0.249724

loop_
_geom_bond_atom_site_label_1
_geom_bond_atom_site_label_2
_ccdc_geom_bond_type
O4    Zn1   S    
C25   H5    S    
C4    C26   A    
C28   H15   S    
C30   H21   S    
O3    Zn2   S    
C26   H6    S    
C18   C24   T    
C8    N1    A    
C5    C26   A    
O7    Zn2   S    
O6    Zn2   S    
C11   O7    A    
C16   H2    S    
C27   C28   S    
O5    Zn1   S    
C10   H12   S    
C19   O10   S    
C27   H14   S    
C22   C24   S    
C9    H11   S    
C30   H22   S    
O10   C29   S    
C17   C23   T    
C7    H9    S    
C2    O2    A    
C29   C30   S    
N2    Zn2   S    
C14   C21   S    
C1    O1    A    
O8    Zn1   S    
N1    Zn1   S    
C12   O8    A    
O2    Zn2   S    
C13   C22   S    
C20   O9    S    
C14   C16   S    
C28   H16   S    
C13   C15   S    
C16   C19   S    
C15   C20   S    
C8    C10   A    
C4    H8    S    
C11   O5    A    
C2    C5    S    
C3    H7    S    
C12   C18   S    
C30   H20   S    
C6    C25   A    
C14   C20   S    
C15   C21   S    
C3    C25   A    
C27   H13   S    
C29   H19   S    
C4    C6    A    
C8    H10   S    
C28   H17   S    
O1    Zn1   S    
C1    C6    S    
C7    C9    A    
C13   C19   S    
C11   C17   S    
C10   N2    A    
C16   C22   S    
C19   C21   S    
C14   H4    S    
C7    N2    A    
C15   H1    S    
C21   C23   S    
C1    O3    A    
C9    N1    A    
C2    O4    A    
O9    C27   S    
C13   H3    S    
C20   C22   S    
C29   H18   S    
C3    C5    A    
C12   O6    A    
