data_mof_unit_41304.cif
_audit_creation_date              2012-12-10T17:49:39-0500
_audit_creation_method            fapswitch 2.2
_symmetry_space_group_name_H-M    P1
_symmetry_Int_Tables_number       1
_space_group_crystal_system       triclinic
_cell_length_a                    10.495007
_cell_length_b                    10.724823
_cell_length_c                    9.900154
_cell_angle_alpha                 89.073705
_cell_angle_beta                  89.608161
_cell_angle_gamma                 91.743782
_cell_volume                      1113.64098524

loop_
_atom_site_label
_atom_site_type_symbol
_atom_type_description
_atom_site_fract_x
_atom_site_fract_y
_atom_site_fract_z
_atom_type_partial_charge
C1    C     C_R   0.506915 0.259745 0.502159 0.862611
C2    C     C_3   0.961008 0.501764 0.370967 -0.131395
C3    C     C_3   0.039645 0.397670 0.435980 -0.181569
C4    C     C_3   0.122385 0.498987 0.501656 0.039180
C5    C     C_R   0.511257 0.105523 0.762523 -0.173501
C6    C     C_R   0.465589 0.041177 0.877401 -0.148372
C7    C     C_R   0.399564 0.927925 0.864185 -0.157720
C8    C     C_R   0.390952 0.873356 0.737770 -0.157908
C9    C     C_R   0.448161 0.932757 0.622610 0.098723
C10   C     C_R   0.490631 0.057071 0.631434 0.096070
C11   C     C_R   0.510506 0.125578 0.508150 -0.124591
C12   C     C_R   0.257404 0.499268 0.500536 0.839979
C13   C     C_R   0.514108 0.064608 0.384463 -0.226859
C14   C     C_R   0.498425 0.937687 0.380984 -0.224744
C15   C     C_R   0.469600 0.870984 0.499862 -0.131879
C16   C     C_R   0.330424 0.338092 0.143730 -0.162230
C17   C     C_R   0.245929 0.259795 0.075093 -0.217604
C18   C     C_R   0.245574 0.260580 0.935295 -0.188626
C19   C     C_R   0.330179 0.339206 0.863349 -0.167582
C20   C     C_R   0.416312 0.420603 0.929477 0.147997
C21   C     C_R   0.416410 0.420380 0.074155 0.170475
C22   C     C_R   0.579684 0.576382 0.069616 -0.133312
C23   C     C_R   0.486824 0.738727 0.499511 0.878314
C24   C     C_R   0.579673 0.576326 0.926415 -0.115613
C25   C     C_R   0.742648 0.500187 0.499492 0.870051
C26   C     C_3   0.039246 0.496788 0.629161 -0.144854
C27   C     C_3   0.953720 0.395518 0.563314 -0.181820
C28   C     C_3   0.877792 0.499646 0.498456 0.028580
C29   C     C_3   0.960642 0.600899 0.564150 -0.183134
C30   C     C_3   0.046479 0.603045 0.436817 -0.178893
H1    H     H_    0.911072 0.311181 0.614546 0.129921
H2    H     H_    0.359080 0.880228 0.952387 0.137745
H3    H     H_    0.511686 0.891854 0.285358 0.169741
H4    H     H_    0.644736 0.638782 0.121916 0.143214
H5    H     H_    0.325383 0.330958 0.250894 0.204982
H6    H     H_    0.180759 0.197669 0.130927 0.145463
H7    H     H_    0.180508 0.198748 0.882067 0.151419
H8    H     H_    0.326528 0.332202 0.756358 0.210111
H9    H     H_    0.644684 0.638739 0.870950 0.150961
H10   H     H_    0.075306 0.494564 0.734350 0.146941
H11   H     H_    0.923659 0.683525 0.616067 0.131848
H12   H     H_    0.925172 0.503815 0.265703 0.142279
H13   H     H_    0.076854 0.315158 0.384007 0.123545
H14   H     H_    0.531300 0.114639 0.289765 0.171858
H15   H     H_    0.566684 0.189975 0.779915 0.171180
H16   H     H_    0.479503 0.080480 0.976480 0.145371
N1    N     N_R   0.498800 0.498800 0.142780 -0.120662
N2    N     N_R   0.498760 0.498720 0.857170 -0.125684
O1    O     O_R   0.500000 0.316780 0.614690 -0.652818
O2    O     O_R   0.499990 0.316750 0.385360 -0.638610
O3    O     O_R   0.313960 0.499980 0.614650 -0.651592
O4    O     O_R   0.313940 0.499960 0.385310 -0.636420
O5    O     O_R   0.500010 0.683250 0.614640 -0.621450
O6    O     O_R   0.500000 0.683220 0.385310 -0.619487
O7    O     O_R   0.686060 0.500040 0.614690 -0.618836
O8    O     O_R   0.686040 0.500020 0.385350 -0.623018
Zn1   Zn    Zn3+2 0.500010 0.500020 0.653130 0.917419
Zn2   Zn    Zn3+2 0.499990 0.499980 0.346870 0.926557
H17   H     H_    0.339545 0.784690 0.731041 0.157266
H18   H     H_    0.089209 0.687379 0.385652 0.130986

loop_
_geom_bond_atom_site_label_1
_geom_bond_atom_site_label_2
_ccdc_geom_bond_type
C4    C26   S    
C16   C21   A    
O3    Zn1   S    
C17   H6    S    
C26   C29   S    
C4    C12   S    
N2    Zn1   S    
C1    O2    A    
C19   C20   A    
C1    C11   S    
C25   O8    A    
C2    C30   S    
C26   H10   S    
C24   H9    S    
C14   H3    S    
C15   C23   S    
C17   C18   A    
C9    C15   A    
O2    Zn2   S    
C7    C8    A    
C8    H17   S    
C20   N2    A    
C13   C14   A    
C13   H14   S    
N1    Zn2   S    
C11   C13   A    
C3    H13   S    
C26   C27   S    
C29   C30   S    
O4    Zn2   S    
C2    H12   S    
C9    C10   A    
C3    C27   S    
C28   C29   S    
C12   O4    A    
C18   H7    S    
O8    Zn2   S    
C23   O5    A    
C6    C7    A    
C2    C3    S    
O7    Zn1   S    
C16   H5    S    
C5    C6    A    
C22   H4    S    
C22   C24   A    
C10   C11   A    
C27   H1    S    
C3    C4    S    
C24   N2    A    
C5    C10   A    
C12   O3    A    
O1    Zn1   S    
C20   C21   A    
C23   O6    A    
C18   C19   A    
O6    Zn2   S    
C27   C28   S    
C21   N1    A    
O5    Zn1   S    
C19   H8    S    
C16   C17   A    
C2    C28   S    
C7    H2    S    
C6    H16   S    
C29   H11   S    
C14   C15   A    
C5    H15   S    
C22   N1    A    
C4    C30   S    
C25   O7    A    
C30   H18   S    
C8    C9    A    
C25   C28   S    
C1    O1    A    
