data_mof_unit_13825.cif
_audit_creation_date              2012-12-10T19:01:18-0500
_audit_creation_method            fapswitch 2.2
_symmetry_space_group_name_H-M    P1
_symmetry_Int_Tables_number       1
_space_group_crystal_system       triclinic
_cell_length_a                    9.561048
_cell_length_b                    10.840943
_cell_length_c                    15.475259
_cell_angle_alpha                 89.56968
_cell_angle_beta                  74.425307
_cell_angle_gamma                 90.739879
_cell_volume                      1544.89574014

loop_
_atom_site_label
_atom_site_type_symbol
_atom_type_description
_atom_site_fract_x
_atom_site_fract_y
_atom_site_fract_z
_atom_type_partial_charge
C1    C     C_R   0.997948 0.262471 0.502637 0.802678
C2    C     C_R   0.669582 0.476052 0.906458 0.099926
C3    C     C_R   0.767121 0.433984 0.954526 0.077314
C4    C     C_R   0.519044 0.487533 0.951367 0.075186
C5    C     C_R   0.470015 0.462202 0.045316 0.059512
C6    C     C_R   0.571462 0.418998 0.090060 -0.230198
C7    C     C_R   0.716745 0.405636 0.045409 -0.204871
C8    C     C_R   0.415622 0.521891 0.905344 -0.196785
C9    C     C_R   0.271008 0.538161 0.950351 -0.204950
C10   C     C_R   0.223192 0.521032 0.042710 0.145059
C11   C     C_R   0.321434 0.482041 0.091351 0.098350
C12   C     C_R   0.918307 0.497821 0.672209 0.841604
C13   C     C_R   0.077654 0.544060 0.087126 -0.215152
C14   C     C_R   0.029063 0.533369 0.180025 -0.193063
C15   C     C_R   0.268100 0.469044 0.184991 -0.263381
C16   C     C_R   0.110121 0.065960 0.525597 0.144618
C17   C     C_R   0.990978 0.129612 0.513540 -0.100367
C18   C     C_R   0.863363 0.062823 0.515171 -0.216791
C19   C     C_R   0.864681 0.934128 0.514734 -0.214494
C20   C     C_R   0.993683 0.871141 0.512396 -0.100414
C21   C     C_R   0.111641 0.938874 0.525163 0.139155
C22   C     C_3   0.268238 0.938115 0.474680 -0.504888
C23   C     C_R   0.999488 0.737857 0.502125 0.794903
C24   C     C_3   0.266474 0.077730 0.475823 -0.456079
C25   C     C_R   0.607093 0.539097 0.426298 0.223591
C26   C     C_R   0.543402 0.448644 0.568910 -0.081973
C27   C     C_R   0.394741 0.448862 0.568978 -0.065618
C28   C     C_R   0.460080 0.538652 0.425374 0.209223
C29   C     C_3   0.481035 0.664713 0.381511 -0.172131
C30   C     C_3   0.639285 0.662214 0.383181 -0.495378
C31   C     C_R   0.081432 0.498772 0.327914 0.784350
C32   C     C_R   0.872570 0.485033 0.770549 -0.164553
C33   C     C_R   0.125325 0.498862 0.229489 -0.054053
C34   C     C_R   0.914607 0.418976 0.910954 -0.296118
C35   C     C_R   0.967269 0.443525 0.819469 0.591234
C36   C     C_R   0.726676 0.504791 0.814851 -0.342689
Cu1   Cu    Cu3+1 0.140670 0.499980 0.500000 0.958878
Cu2   Cu    Cu3+1 0.859330 0.500020 0.500000 0.938447
H1    H     H_    0.790415 0.372453 0.082533 0.149436
H2    H     H_    0.002237 0.573647 0.050173 0.141827
H3    H     H_    0.765394 0.109252 0.511614 0.167086
H4    H     H_    0.767065 0.884998 0.511405 0.159746
H5    H     H_    0.336827 0.899190 0.515598 0.198790
H6    H     H_    0.284551 0.900429 0.406252 0.193695
H7    H     H_    0.332883 0.118551 0.517668 0.202469
H8    H     H_    0.283714 0.120249 0.408054 0.198353
H9    H     H_    0.573207 0.408364 0.625437 0.151280
H10   H     H_    0.314206 0.408847 0.625338 0.205503
H11   H     H_    0.336008 0.439238 0.225992 0.141735
H12   H     H_    0.418014 0.734582 0.426252 0.178122
H13   H     H_    0.719581 0.656102 0.316656 0.184010
H14   H     H_    0.665863 0.732479 0.428343 0.195174
H15   H     H_    0.917525 0.555134 0.213106 0.144288
H16   H     H_    0.196286 0.566405 0.912482 0.177355
H17   H     H_    0.988830 0.385363 0.947468 0.167200
H18   H     H_    0.659960 0.542338 0.775529 0.173621
H19   H     H_    0.542766 0.392542 0.159773 0.132737
H20   H     H_    0.441597 0.536151 0.833906 0.156512
N1    N     N_R   0.648210 0.500930 0.499430 -0.183276
N2    N     N_R   0.352300 0.500890 0.499430 -0.199689
O1    O     O_R   0.118810 0.319640 0.500000 -0.577713
O2    O     O_R   0.881230 0.319680 0.499990 -0.585311
O3    O     O_R   0.055580 0.499970 0.629840 -0.530038
O4    O     O_R   0.818000 0.500010 0.629830 -0.599842
O5    O     O_R   0.118770 0.680320 0.500010 -0.580735
O6    O     O_R   0.881190 0.680360 0.500000 -0.585742
O7    O     O_R   0.182000 0.499990 0.370170 -0.598545
O8    O     O_R   0.944420 0.500030 0.370160 -0.578409
C37   C     C_3   0.461341 0.667574 0.286006 -0.351643
C38   C     C_3   0.520577 0.787297 0.234845 -0.366976
C39   C     C_3   0.495161 0.787808 0.141561 -0.823315
H21   H     H_    0.554189 0.710891 0.101261 0.261722
H22   H     H_    0.377411 0.778036 0.146557 0.257162
H23   H     H_    0.535937 0.876215 0.106591 0.244155
H24   H     H_    0.465898 0.867967 0.272370 0.216592
H25   H     H_    0.639006 0.797418 0.227164 0.226249
H26   H     H_    0.516385 0.587572 0.247533 0.197254
H27   H     H_    0.343870 0.661676 0.291007 0.224309
F1    F     F_    0.109245 0.422676 0.778886 -0.695229

loop_
_geom_bond_atom_site_label_1
_geom_bond_atom_site_label_2
_ccdc_geom_bond_type
C27   H10   S    
C8    C9    A    
C30   H13   S    
C16   C21   A    
C37   H26   S    
C19   C20   A    
C4    C8    A    
C1    O2    A    
C14   C33   A    
C25   C28   A    
C31   O7    A    
C26   C27   A    
Cu1   Cu2   S    
C24   H7    S    
C32   C36   A    
C23   O6    A    
C28   C29   S    
C5    C11   A    
C3    C7    A    
C27   N2    A    
C5    C6    A    
C12   O4    A    
C34   C35   A    
C13   H2    S    
C8    H20   S    
C11   C15   A    
C22   H6    S    
Cu2   O6    S    
C16   C17   A    
Cu1   O5    S    
C31   C33   S    
C38   C39   S    
C26   N1    A    
C29   C37   S    
C19   H4    S    
C34   H17   S    
C16   C24   S    
C21   C22   S    
C12   C32   S    
C6    H19   S    
C37   H27   S    
Cu1   O3    S    
Cu2   O4    S    
C29   H12   S    
C28   N2    A    
C31   O8    A    
C32   C35   A    
C18   H3    S    
C39   H22   S    
C12   O3    A    
C18   C19   A    
C3    C34   A    
C2    C4    A    
C29   C30   S    
C36   H18   S    
C22   H5    S    
C20   C23   S    
C17   C18   A    
C26   H9    S    
Cu2   O8    S    
C38   H25   S    
C22   C24   S    
C9    C10   A    
C2    C36   A    
C25   C30   S    
C30   H14   S    
C4    C5    A    
C10   C13   A    
C1    O1    A    
C39   H23   S    
Cu1   O1    S    
C6    C7    A    
C1    C17   S    
C24   H8    S    
C23   O5    A    
C2    C3    A    
C39   H21   S    
Cu1   O7    S    
C35   F1    S    
C15   H11   S    
C37   C38   S    
Cu1   N2    S    
C10   C11   A    
Cu2   N1    S    
C14   H15   S    
C20   C21   A    
C38   H24   S    
C7    H1    S    
C9    H16   S    
C25   N1    A    
C13   C14   A    
C15   C33   A    
Cu2   O2    S    
