data_mof_unit_35849.cif
_audit_creation_date              2012-12-11T15:37:28-0500
_audit_creation_method            fapswitch 2.2
_symmetry_space_group_name_H-M    P1
_symmetry_Int_Tables_number       1
_space_group_crystal_system       monoclinic
_cell_length_a                    17.389103
_cell_length_b                    24.284306
_cell_length_c                    14.83306
_cell_angle_alpha                 90.0
_cell_angle_beta                  125.922502
_cell_angle_gamma                 90.0
_cell_volume                      5072.44628852

loop_
_atom_site_label
_atom_site_type_symbol
_atom_type_description
_atom_site_fract_x
_atom_site_fract_y
_atom_site_fract_z
_atom_type_partial_charge
C1    C     C_R   0.852075 0.653180 0.908980 -0.138655
C2    C     C_3   0.584860 0.500000 0.565710 0.175534
C3    C     C_3   0.029594 0.954488 0.478759 -0.160352
C4    C     C_3   0.907998 0.000000 0.440989 0.173815
C5    C     C_3   0.090495 1.000000 0.561530 0.171151
C6    C     C_R   0.797066 0.230681 0.903119 -0.382933
C7    C     C_R   0.206605 0.768608 0.098198 -0.386046
C8    C     C_R   0.206606 0.231392 0.098199 -0.386046
C9    C     C_R   0.797067 0.769319 0.903119 -0.382932
C10   C     C_R   0.157076 0.816070 0.900447 -0.395495
C11   C     C_R   0.841237 0.187359 0.101764 -0.395377
C12   C     C_R   0.841237 0.812641 0.101764 -0.395378
C13   C     C_R   0.148673 0.347003 0.090688 -0.150765
C14   C     C_R   0.157076 0.183930 0.900447 -0.395494
C15   C     C_R   0.108124 0.770173 0.896949 0.773461
C16   C     C_R   0.894004 0.230675 0.104423 0.772793
C17   C     C_R   0.894004 0.769325 0.104423 0.772793
C18   C     C_R   0.108124 0.229827 0.896949 0.773462
C19   C     C_R   0.744815 0.186952 0.900677 0.764849
C20   C     C_R   0.255448 0.814506 0.101456 0.773583
C21   C     C_R   0.255449 0.185494 0.101457 0.773583
C22   C     C_R   0.744815 0.813048 0.900678 0.764849
C23   C     C_R   0.140336 0.742298 0.996366 -0.154618
C24   C     C_R   0.148673 0.652997 0.090688 -0.150766
C25   C     C_R   0.863811 0.257151 0.004370 -0.153254
C26   C     C_R   0.863811 0.742849 0.004370 -0.153255
C27   C     C_R   0.140336 0.257702 0.996366 -0.154618
C28   C     C_R   0.758902 0.170244 0.000002 -0.149419
C29   C     C_R   0.238872 0.833869 0.002278 -0.150017
C30   C     C_R   0.238873 0.166131 0.002278 -0.150017
C31   C     C_R   0.758902 0.829756 0.000002 -0.149419
C32   C     C_R   0.889507 0.450153 0.460344 -0.163189
C33   C     C_R   0.890501 0.549818 0.367767 -0.157756
C34   C     C_R   0.890501 0.450182 0.367767 -0.157756
C35   C     C_R   0.852075 0.346820 0.908980 -0.138655
C36   C     C_R   0.889507 0.549847 0.460344 -0.163189
C37   C     C_R   0.584535 0.950102 0.607121 -0.104632
C38   C     C_R   0.611649 0.049836 0.536500 -0.137208
C39   C     C_R   0.611649 0.950164 0.536500 -0.137209
C40   C     C_R   0.584535 0.049898 0.607121 -0.104632
C41   C     C_R   0.902748 0.500000 0.329915 0.130775
C42   C     C_R   0.899518 0.500000 0.513988 0.124216
C43   C     C_R   0.611436 1.000000 0.488984 0.092425
C44   C     C_R   0.560691 0.000000 0.632401 0.095160
C45   C     C_R   0.947392 0.348375 0.094151 -0.126547
C46   C     C_R   0.309077 0.124889 0.908175 -0.139328
C47   C     C_R   0.055525 0.650773 0.905259 -0.101729
C48   C     C_R   0.055525 0.349227 0.905259 -0.101730
C49   C     C_R   0.947391 0.651625 0.094151 -0.126546
C50   C     C_R   0.404486 0.876279 0.094805 -0.099660
C51   C     C_R   0.592546 0.129950 0.907247 -0.101831
C52   C     C_R   0.592546 0.870050 0.907247 -0.101831
C53   C     C_R   0.404486 0.123721 0.094805 -0.099660
C54   C     C_R   0.979920 0.546325 0.248046 -0.123525
C55   C     C_R   0.950962 0.453891 0.695043 -0.123215
C56   C     C_R   0.950962 0.546109 0.695043 -0.123214
C57   C     C_R   0.689939 0.873392 0.093104 -0.141338
C58   C     C_R   0.979920 0.453675 0.248046 -0.123525
C59   C     C_R   0.557023 0.045883 0.308105 -0.103642
C60   C     C_R   0.491337 0.953957 0.721752 -0.109668
C61   C     C_R   0.491337 0.046043 0.721752 -0.109668
C62   C     C_R   0.557023 0.954117 0.308105 -0.103642
C63   C     C_R   0.731337 0.453947 0.718181 -0.134024
C64   C     C_R   0.268735 0.545796 0.250221 -0.125408
C65   C     C_R   0.268735 0.454204 0.250221 -0.125407
C66   C     C_R   0.731337 0.546053 0.718181 -0.134024
C67   C     C_R   0.240821 0.954545 0.698095 -0.139192
C68   C     C_R   0.689939 0.126608 0.093104 -0.141338
C69   C     C_R   0.758407 0.045419 0.302719 -0.143907
C70   C     C_R   0.758407 0.954581 0.302719 -0.143909
C71   C     C_R   0.240821 0.045455 0.698095 -0.139195
C72   C     C_R   0.886487 0.684863 0.003057 0.150750
C73   C     C_R   0.116790 0.315845 0.996590 0.151582
C74   C     C_R   0.116790 0.684154 0.996590 0.151582
C75   C     C_R   0.886487 0.315137 0.003056 0.150750
C76   C     C_R   0.313086 0.137003 0.002536 0.147668
C77   C     C_R   0.684372 0.858189 0.999429 0.151224
C78   C     C_R   0.684372 0.141811 0.999429 0.151224
C79   C     C_R   0.309077 0.875111 0.908175 -0.139328
C80   C     C_R   0.313086 0.862997 0.002536 0.147668
C81   C     C_R   0.948199 0.500000 0.272592 0.043633
C82   C     C_R   0.934389 0.500000 0.630754 0.043594
C83   C     C_R   0.578710 1.000000 0.373804 0.060754
C84   C     C_R   0.512651 0.000000 0.685709 0.055720
C85   C     C_R   0.675435 0.500000 0.671650 0.036871
C86   C     C_R   0.325055 0.500000 0.277796 0.026878
C87   C     C_R   0.191148 1.000000 0.638068 0.043409
C88   C     C_R   0.807440 0.000000 0.363519 0.037758
C89   C     C_3   0.511010 0.454598 0.526745 -0.160897
C90   C     C_3   0.421894 0.500000 0.374195 0.176603
C91   C     C_3   0.495823 0.545479 0.413138 -0.159196
C92   C     C_3   0.495822 0.454520 0.413138 -0.159196
C93   C     C_3   0.511010 0.545402 0.526744 -0.160896
C94   C     C_3   0.031685 0.000001 0.608240 -0.124280
C95   C     C_3   0.966884 0.999999 0.394363 -0.119527
C96   C     C_3   0.968893 0.954486 0.523779 -0.163734
C97   C     C_3   0.029595 0.045511 0.478755 -0.160346
C98   C     C_3   0.435948 0.500000 0.486618 -0.128053
C99   C     C_3   0.571959 0.500000 0.454227 -0.135989
C100  C     C_3   0.968894 0.045515 0.523776 -0.163740
F1    F     F_    0.035037 0.751549 0.795762 -0.728573
F2    F     F_    0.968204 0.248779 0.205409 -0.727182
F3    F     F_    0.968203 0.751220 0.205410 -0.727182
F4    F     F_    0.035037 0.248450 0.795762 -0.728573
F5    F     F_    0.677088 0.164324 0.800786 -0.741702
F6    F     F_    0.323016 0.836466 0.202140 -0.718566
F7    F     F_    0.323017 0.163534 0.202141 -0.718566
F8    F     F_    0.677089 0.835676 0.800786 -0.741702
H1    H     H_    0.377873 0.500000 0.497367 0.123897
H2    H     H_    0.936695 0.999997 0.304414 0.131047
H3    H     H_    0.941045 0.917887 0.540840 0.130782
H4    H     H_    0.057389 0.082122 0.461652 0.133095
H5    H     H_    0.812389 0.666995 0.823666 0.103051
H6    H     H_    0.186985 0.332794 0.175599 0.107225
H7    H     H_    0.186985 0.667206 0.175598 0.107225
H8    H     H_    0.812389 0.333005 0.823666 0.103051
H9    H     H_    0.250447 0.130866 0.822412 0.105077
H10   H     H_    0.748748 0.868530 0.179128 0.104142
H11   H     H_    0.748748 0.131470 0.179128 0.104142
H12   H     H_    0.631109 0.500000 0.445402 0.120915
H13   H     H_    0.250447 0.869134 0.822412 0.105077
H14   H     H_    0.996979 0.335861 0.179548 0.182206
H15   H     H_    0.008542 0.662712 0.819098 0.177003
H16   H     H_    0.008542 0.337288 0.819098 0.177003
H17   H     H_    0.996979 0.664139 0.179548 0.182206
H18   H     H_    0.434224 0.871342 0.181546 0.180204
H19   H     H_    0.559880 0.143677 0.823607 0.161875
H20   H     H_    0.559880 0.856323 0.823607 0.161875
H21   H     H_    0.434224 0.128658 0.181546 0.180204
H22   H     H_    0.969100 0.588935 0.258075 0.107087
H23   H     H_    0.941046 0.082116 0.540834 0.130784
H24   H     H_    0.933806 0.411634 0.667511 0.098545
H25   H     H_    0.933806 0.588366 0.667510 0.098545
H26   H     H_    0.969100 0.411065 0.258075 0.107087
H27   H     H_    0.576201 0.088025 0.335762 0.091708
H28   H     H_    0.484831 0.912372 0.693329 0.106843
H29   H     H_    0.484831 0.087628 0.693329 0.106843
H30   H     H_    0.576201 0.911975 0.335762 0.091708
H31   H     H_    0.712561 0.411637 0.691030 0.101693
H32   H     H_    0.291305 0.588282 0.269474 0.105732
H33   H     H_    0.291305 0.411718 0.269474 0.105732
H34   H     H_    0.057387 0.917875 0.461659 0.133096
H35   H     H_    0.712561 0.588363 0.691030 0.101693
H36   H     H_    0.223878 0.912075 0.671678 0.102061
H37   H     H_    0.774947 0.087877 0.329346 0.099364
H38   H     H_    0.774947 0.912123 0.329346 0.099365
H39   H     H_    0.223878 0.087925 0.671678 0.102063
H40   H     H_    0.778555 0.246294 0.824514 0.185633
H41   H     H_    0.227243 0.751730 0.176789 0.187701
H42   H     H_    0.227244 0.248270 0.176790 0.187701
H43   H     H_    0.778556 0.753706 0.824514 0.185633
H44   H     H_    0.135347 0.833908 0.822071 0.181691
H45   H     H_    0.519282 0.417865 0.576292 0.122008
H46   H     H_    0.861044 0.171140 0.180498 0.181751
H47   H     H_    0.861043 0.828860 0.180498 0.181752
H48   H     H_    0.135346 0.166092 0.822071 0.181691
H49   H     H_    0.890419 0.410823 0.494972 0.121522
H50   H     H_    0.892239 0.589099 0.334791 0.122677
H51   H     H_    0.892239 0.410901 0.334791 0.122677
H52   H     H_    0.890419 0.589177 0.494972 0.121522
H53   H     H_    0.575469 0.910824 0.633935 0.174462
H54   H     H_    0.619563 0.089096 0.508462 0.127756
H55   H     H_    0.619563 0.910904 0.508462 0.127756
H56   H     H_    0.487183 0.582194 0.363381 0.121386
H57   H     H_    0.575469 0.089176 0.633935 0.174462
H58   H     H_    0.487183 0.417805 0.363382 0.121386
H59   H     H_    0.519282 0.582135 0.576291 0.122007
H60   H     H_    0.061978 0.000003 0.698215 0.130206
N1    N     N_R   0.892620 0.603790 0.941800 -0.044522
N2    N     N_R   0.047790 0.602400 0.942090 -0.055415
N3    N     N_R   0.047790 0.397600 0.942090 -0.055415
N4    N     N_R   0.952210 0.602400 0.057910 -0.054968
N5    N     N_R   0.452210 0.897600 0.057910 -0.059536
N6    N     N_R   0.547790 0.102400 0.942090 -0.056065
N7    N     N_R   0.547790 0.897600 0.942090 -0.056065
N8    N     N_R   0.452210 0.102400 0.057910 -0.059536
N9    N     N_R   0.026300 0.529110 0.206760 -0.043457
N10   N     N_R   0.973700 0.470890 0.793240 -0.041698
N11   N     N_R   0.973700 0.529110 0.793240 -0.041698
N12   N     N_R   0.107380 0.396210 0.058200 -0.044503
N13   N     N_R   0.026300 0.470890 0.206760 -0.043457
N14   N     N_R   0.526300 0.029110 0.206760 -0.043516
N15   N     N_R   0.473700 0.970890 0.793240 -0.042691
N16   N     N_R   0.473700 0.029110 0.793240 -0.042691
N17   N     N_R   0.526300 0.970890 0.206760 -0.043516
N18   N     N_R   0.818530 0.472270 0.792960 -0.039126
N19   N     N_R   0.181470 0.527730 0.207040 -0.042130
N20   N     N_R   0.181470 0.472270 0.207040 -0.042130
N21   N     N_R   0.818530 0.527730 0.792960 -0.039126
N22   N     N_R   0.318530 0.972270 0.792960 -0.038089
N23   N     N_R   0.107380 0.603790 0.058200 -0.044503
N24   N     N_R   0.681470 0.027730 0.207040 -0.036483
N25   N     N_R   0.681470 0.972270 0.207040 -0.036483
N26   N     N_R   0.318530 0.027730 0.792960 -0.038089
N27   N     N_R   0.892620 0.396210 0.941800 -0.044522
N28   N     N_R   0.392620 0.103790 0.941800 -0.047389
N29   N     N_R   0.607380 0.896210 0.058200 -0.047104
N30   N     N_R   0.607380 0.103790 0.058200 -0.047104
N31   N     N_R   0.392620 0.896210 0.941800 -0.047389
N32   N     N_R   0.952210 0.397600 0.057910 -0.054967
Ni1   Ni    Ni4+2 0.934150 0.565840 0.869060 0.215277
Ni2   Ni    Ni4+2 0.065850 0.434160 0.130940 0.220157
Ni3   Ni    Ni4+2 0.065850 0.565840 0.130940 0.220157
Ni4   Ni    Ni4+2 0.934150 0.434160 0.869060 0.215277
Ni5   Ni    Ni4+2 0.434150 0.065840 0.869060 0.223477
Ni6   Ni    Ni4+2 0.565850 0.934160 0.130940 0.216917
Ni7   Ni    Ni4+2 0.565850 0.065840 0.130940 0.216917
Ni8   Ni    Ni4+2 0.434150 0.934160 0.869060 0.223477

loop_
_geom_bond_atom_site_label_1
_geom_bond_atom_site_label_2
_ccdc_geom_bond_type
C71   H39   S    
C62   C83   A    
C59   N14   A    
N10   Ni4   S    
N5    N31   A    
C69   H37   S    
C14   C18   A    
C36   C42   A    
N13   Ni2   S    
C42   C82   S    
C3    H34   S    
C70   C88   A    
C97   C100  S    
C66   C85   A    
C46   C76   A    
C5    C94   S    
C52   H20   S    
C67   N22   A    
C65   C86   A    
C58   H26   S    
C45   N32   A    
C6    C19   A    
C79   H13   S    
C35   C75   A    
C1    H5    S    
C58   N13   A    
C17   C26   A    
N8    Ni7   S    
C59   C83   A    
C32   H49   S    
N12   Ni2   S    
C10   C15   A    
C68   H11   S    
N9    N13   A    
C9    C22   A    
C6    C25   A    
C48   N3    A    
C66   N21   A    
N19   Ni3   S    
N28   Ni5   S    
C33   C36   A    
C43   C83   S    
C2    C85   S    
C68   N30   A    
N14   Ni7   S    
C59   H27   S    
N3    Ni4   S    
N7    N29   A    
N2    Ni1   S    
C11   H46   S    
C10   H44   S    
C99   H12   S    
C4    C96   S    
C90   C92   S    
N11   Ni1   S    
C49   C72   A    
C12   C17   A    
N6    Ni5   S    
N9    Ni3   S    
N5    Ni6   S    
C50   H18   S    
C28   C78   S    
C60   H28   S    
C13   H6    S    
C7    C23   A    
C35   N27   A    
C14   H48   S    
C34   H51   S    
C60   N15   A    
C15   C23   A    
C65   N20   A    
C98   H1    S    
C7    H41   S    
C63   C85   A    
C55   C82   A    
N15   Ni8   S    
N29   Ni6   S    
C34   C41   A    
N23   Ni3   S    
N7    Ni8   S    
C14   C30   A    
C56   H25   S    
C67   H36   S    
N17   Ni6   S    
C69   N24   A    
C64   C86   A    
C9    C26   A    
C31   C77   S    
C20   F6    S    
C20   C29   A    
C68   C78   A    
C54   H22   S    
C96   H3    S    
C100  H23   S    
C1    C72   A    
N6    N30   A    
C22   C31   A    
C53   N8    A    
N10   N11   A    
C79   N31   A    
C65   H33   S    
C86   C90   S    
C58   C81   A    
C94   H60   S    
C97   H4    S    
N22   N26   A    
C71   N26   A    
C39   C43   A    
N27   Ni4   S    
C15   F1    S    
N21   Ni1   S    
C38   H54   S    
N2    N23   A    
C61   C84   A    
C62   H30   S    
N16   Ni5   S    
C46   H9    S    
C25   C75   S    
N14   N17   A    
C32   C34   A    
C2    C89   S    
C8    H42   S    
N15   N16   A    
C57   C77   A    
C91   C93   S    
C4    C95   S    
C6    H40   S    
C11   C16   A    
C89   H45   S    
C94   C100  S    
C63   N18   A    
C41   C81   S    
C8    C21   A    
N18   Ni4   S    
C35   H8    S    
C18   F4    S    
C26   C72   S    
N8    N28   A    
C89   C92   S    
C94   C96   S    
C19   C28   A    
C52   N7    A    
C40   H57   S    
C3    C96   S    
C69   C88   A    
C24   H7    S    
C62   N17   A    
C70   H38   S    
C19   F5    S    
N22   Ni8   S    
C21   F7    S    
C5    C97   S    
C2    C99   S    
C55   H24   S    
C51   N6    A    
C4    C100  S    
C12   C31   A    
N4    Ni3   S    
C71   C87   A    
N3    N12   A    
C53   C76   A    
C53   H21   S    
C30   C76   S    
C23   C74   S    
C39   H55   S    
C52   C77   A    
C47   N2    A    
C33   H50   S    
C37   H53   S    
N27   N32   A    
C64   H32   S    
C16   F2    S    
C16   C25   A    
N26   Ni5   S    
C9    H43   S    
C61   N16   A    
N25   Ni6   S    
C57   N29   A    
N30   Ni7   S    
C63   H31   S    
C48   C73   A    
C2    C93   S    
C18   C27   A    
C47   C74   A    
C13   C73   A    
C55   N10   A    
C3    C5    S    
C95   H2    S    
C50   C80   A    
C48   H16   S    
C49   N4    A    
C3    C95   S    
C95   C97   S    
C56   C82   A    
C47   H15   S    
C66   H35   S    
C45   H14   S    
C13   N12   A    
C49   H17   S    
C21   C30   A    
C67   C87   A    
C54   N9    A    
C44   C84   S    
C89   C98   S    
C45   C75   A    
C51   H19   S    
N24   N25   A    
N18   N21   A    
C17   F3    S    
C51   C78   A    
C33   C41   A    
C38   C43   A    
C37   C39   A    
C38   C40   A    
C60   C84   A    
C10   C29   A    
C61   H29   S    
C90   C91   S    
C29   C80   S    
C11   C28   A    
C37   C44   A    
C70   N25   A    
C22   F8    S    
C1    N1    A    
N31   Ni8   S    
N24   Ni7   S    
C24   N23   A    
C54   C81   A    
C91   H56   S    
C64   N19   A    
C36   H52   S    
N1    Ni1   S    
C79   C80   A    
C5    C87   S    
C92   H58   S    
C40   C44   A    
C93   H59   S    
C24   C74   A    
N32   Ni2   S    
C7    C20   A    
C46   N28   A    
C8    C27   A    
C32   C42   A    
N20   Ni2   S    
N19   N20   A    
N1    N4    A    
C12   H47   S    
C91   C99   S    
C27   C73   S    
C93   C98   S    
C90   C98   S    
C4    C88   S    
C92   C99   S    
C50   N5    A    
C57   H10   S    
C56   N11   A    
