data_mof_unit_27378.cif
_audit_creation_date              2012-12-10T17:49:39-0500
_audit_creation_method            fapswitch 2.2
_symmetry_space_group_name_H-M    P1
_symmetry_Int_Tables_number       1
_space_group_crystal_system       triclinic
_cell_length_a                    10.483512
_cell_length_b                    10.603545
_cell_length_c                    9.935997
_cell_angle_alpha                 87.866518
_cell_angle_beta                  90.546074
_cell_angle_gamma                 91.274957
_cell_volume                      1103.42843455

loop_
_atom_site_label
_atom_site_type_symbol
_atom_type_description
_atom_site_fract_x
_atom_site_fract_y
_atom_site_fract_z
_atom_type_partial_charge
C1    C     C_R   0.510228 0.260857 0.503609 0.891198
C2    C     C_3   0.960383 0.599196 0.423280 -0.218857
C3    C     C_3   0.039135 0.490105 0.371535 -0.123427
C4    C     C_3   0.122713 0.498852 0.497829 0.018213
C5    C     C_R   0.745483 0.114317 0.581352 0.210106
C6    C     C_R   0.859173 0.049570 0.567784 -0.158456
C7    C     C_R   0.857137 0.927942 0.520463 -0.187590
C8    C     C_R   0.740759 0.867480 0.494985 -0.181879
C9    C     C_R   0.625471 0.932817 0.504592 0.069689
C10   C     C_R   0.628566 0.061295 0.533195 0.040463
C11   C     C_R   0.513212 0.127476 0.514700 -0.054535
C12   C     C_R   0.257624 0.498957 0.499318 0.842495
C13   C     C_R   0.396420 0.065416 0.495713 -0.245226
C14   C     C_R   0.392306 0.936622 0.488619 -0.227925
C15   C     C_R   0.505971 0.871950 0.491092 -0.060295
C16   C     C_R   0.331185 0.335997 0.143384 -0.283832
C17   C     C_R   0.249903 0.253332 0.074846 0.509267
C18   C     C_R   0.250650 0.254836 0.935271 -0.274352
C19   C     C_R   0.334659 0.334691 0.864040 -0.226251
C20   C     C_R   0.418300 0.418480 0.929836 0.186143
C21   C     C_R   0.417446 0.418949 0.074224 0.116333
C22   C     C_R   0.578633 0.577588 0.069145 -0.102541
C23   C     C_R   0.497156 0.739338 0.497276 0.858761
C24   C     C_R   0.578525 0.577625 0.926191 -0.081720
C25   C     C_R   0.742617 0.501442 0.500415 0.876704
C26   C     C_3   0.040580 0.400731 0.575191 -0.160059
C27   C     C_3   0.954099 0.392137 0.449063 -0.141038
C28   C     C_3   0.877979 0.501238 0.500935 0.031065
C29   C     C_3   0.961871 0.509904 0.627118 -0.081725
C30   C     C_3   0.046764 0.607918 0.549445 -0.205858
H1    H     H_    0.911689 0.304560 0.408044 0.156820
H2    H     H_    0.945214 0.877618 0.512431 0.140297
H3    H     H_    0.741264 0.769961 0.467308 0.124979
H4    H     H_    0.301005 0.887396 0.479697 0.129873
H5    H     H_    0.642938 0.641090 0.120819 0.142743
H6    H     H_    0.323172 0.332216 0.250109 0.214664
H7    H     H_    0.186137 0.192971 0.881427 0.166709
H8    H     H_    0.331179 0.328048 0.757535 0.219031
H9    H     H_    0.642806 0.641154 0.870769 0.145816
H10   H     H_    0.078158 0.319951 0.636646 0.135228
H11   H     H_    0.926455 0.518178 0.731310 0.164719
H12   H     H_    0.089824 0.695383 0.590097 0.131177
H13   H     H_    0.924340 0.679437 0.360068 0.139411
H14   H     H_    0.074889 0.481790 0.267456 0.162236
H15   H     H_    0.308452 0.117204 0.487039 0.122746
H16   H     H_    0.948645 0.090144 0.602826 0.151246
N1    N     N_R   0.498800 0.498800 0.142780 -0.104576
N2    N     N_R   0.498760 0.498720 0.857170 -0.103758
O1    O     O_R   0.500000 0.316780 0.614690 -0.595717
O2    O     O_R   0.499990 0.316750 0.385360 -0.637083
O3    O     O_R   0.313960 0.499980 0.614650 -0.640127
O4    O     O_R   0.313940 0.499960 0.385310 -0.640691
O5    O     O_R   0.500010 0.683250 0.614640 -0.610641
O6    O     O_R   0.500000 0.683220 0.385310 -0.624384
O7    O     O_R   0.686060 0.500040 0.614690 -0.587359
O8    O     O_R   0.686040 0.500020 0.385350 -0.622625
Zn1   Zn    Zn3+2 0.500010 0.500020 0.653130 0.968835
Zn2   Zn    Zn3+2 0.499990 0.499980 0.346870 0.935668
O9    O     O_3   0.162337 0.176844 0.144113 -0.643323
C31   C     C_3   0.222774 0.067561 0.197343 0.066245
H17   H     H_    0.174125 0.039072 0.292911 0.162876
H18   H     H_    0.325692 0.083560 0.222786 0.146245
C32   C     C_3   0.208143 0.959088 0.100275 -0.364189
H19   H     H_    0.105535 0.944080 0.075038 0.238000
H20   H     H_    0.260267 0.983762 0.005753 0.220773
C33   C     C_3   0.260873 0.836637 0.162008 -0.902960
H21   H     H_    0.363586 0.849331 0.187808 0.277697
H22   H     H_    0.250870 0.760546 0.088559 0.263055
H23   H     H_    0.207325 0.807215 0.254325 0.253059
Br1   Br    Br    0.753120 0.240177 0.714120 -0.537585

loop_
_geom_bond_atom_site_label_1
_geom_bond_atom_site_label_2
_ccdc_geom_bond_type
C14   H4    S    
C4    C26   S    
C32   H20   S    
C16   C21   A    
C23   O5    A    
C29   C30   S    
O3    Zn1   S    
C19   H8    S    
C26   C29   S    
C4    C12   S    
N2    Zn1   S    
C1    O2    A    
C24   N2    A    
C33   H22   S    
C19   C20   A    
C1    C11   S    
C25   O8    A    
C2    H13   S    
C2    C30   S    
C24   H9    S    
C15   C23   S    
C17   C18   A    
C9    C15   A    
C32   C33   S    
O9    C31   S    
C13   C14   A    
C16   H6    S    
N1    Zn2   S    
C13   H15   S    
C22   H5    S    
C11   C13   A    
C26   H10   S    
C26   C27   S    
C20   N2    A    
O4    Zn2   S    
C17   O9    S    
C31   C32   S    
C9    C10   A    
C3    C27   S    
C28   C29   S    
C12   O4    A    
C18   H7    S    
O8    Zn2   S    
C33   H21   S    
C6    C7    A    
C2    C3    S    
C8    H3    S    
O7    Zn1   S    
C5    C6    A    
C22   C24   A    
C3    H14   S    
C33   H23   S    
C16   C17   A    
C10   C11   A    
C5    C10   A    
C32   H19   S    
O2    Zn2   S    
C7    C8    A    
C12   O3    A    
O1    Zn1   S    
C20   C21   A    
C23   O6    A    
C31   H18   S    
C18   C19   A    
O6    Zn2   S    
C27   C28   S    
C21   N1    A    
O5    Zn1   S    
C14   C15   A    
C30   H12   S    
C2    C28   S    
C7    H2    S    
C6    H16   S    
C31   H17   S    
C29   H11   S    
C27   H1    S    
C22   N1    A    
C4    C30   S    
C3    C4    S    
C25   O7    A    
C8    C9    A    
C25   C28   S    
C5    Br1   S    
C1    O1    A    
