data_mof_unit_45498.cif
_audit_creation_date              2012-12-10T20:42:41-0500
_audit_creation_method            fapswitch 2.2
_symmetry_space_group_name_H-M    P1
_symmetry_Int_Tables_number       1
_space_group_crystal_system       triclinic
_cell_length_a                    8.906622
_cell_length_b                    10.673856
_cell_length_c                    9.881845
_cell_angle_alpha                 89.907243
_cell_angle_beta                  89.976874
_cell_angle_gamma                 90.101543
_cell_volume                      939.444463062

loop_
_atom_site_label
_atom_site_type_symbol
_atom_type_description
_atom_site_fract_x
_atom_site_fract_y
_atom_site_fract_z
_atom_type_partial_charge
C1    C     C_R   0.503603 0.260018 0.500182 0.878945
C2    C     C_R   0.368198 0.495274 0.928839 0.248948
C3    C     C_3   0.253392 0.393653 0.923268 -0.516908
C4    C     C_R   0.218762 0.500186 0.500011 0.937249
C5    C     C_3   0.253810 0.393088 0.076982 -0.513458
C6    C     C_R   0.505315 0.739824 0.500116 0.886169
C7    C     C_R   0.781262 0.500191 0.500007 0.933381
C8    C     C_1   0.065433 0.500344 0.500057 -0.216330
C9    C     C_1   0.934613 0.500345 0.500016 -0.211212
C10   C     C_R   0.518731 0.063819 0.623506 0.005483
C11   C     C_R   0.525752 0.128631 0.501430 -0.077480
C12   C     C_R   0.563910 0.935309 0.382047 -0.224002
C13   C     C_R   0.561794 0.064933 0.381663 -0.225719
C14   C     C_3   0.191379 0.907915 0.599429 0.085447
C15   C     C_3   0.035672 0.953148 0.641924 -0.354997
C16   C     C_3   0.944368 0.996857 0.520225 -0.947494
C17   C     C_3   0.487356 0.874579 0.868855 -0.373313
C18   C     C_3   0.386981 0.884571 0.993809 -0.844159
C19   C     C_R   0.528609 0.871052 0.501763 -0.110749
C20   C     C_R   0.519772 0.935965 0.623715 -0.042196
C21   C     C_3   0.411659 0.929688 0.741435 0.651485
C22   C     C_3   0.411017 0.073593 0.739697 -0.551089
C23   C     C_R   0.368241 0.495028 0.071209 0.224182
C24   C     C_R   0.629493 0.515847 0.071736 -0.137849
C25   C     C_R   0.629518 0.515742 0.928064 -0.161615
H1    H     H_    0.579484 0.114118 0.286993 0.173581
H2    H     H_    0.145620 0.426830 0.879400 0.208847
H3    H     H_    0.178147 0.825651 0.531662 0.150652
H4    H     H_    0.247210 0.982251 0.538951 0.135513
H5    H     H_    0.974561 0.875727 0.693596 0.230392
H6    H     H_    0.047288 0.032138 0.714307 0.220758
H7    H     H_    0.004007 0.073380 0.465859 0.260425
H8    H     H_    0.834699 0.033147 0.555642 0.281057
H9    H     H_    0.924125 0.917611 0.449737 0.267498
H10   H     H_    0.362656 0.984184 0.017335 0.247539
H11   H     H_    0.279786 0.833440 0.977695 0.283032
H12   H     H_    0.297750 0.305932 0.878227 0.210844
H13   H     H_    0.444869 0.841710 0.081821 0.237654
H14   H     H_    0.512788 0.774168 0.851863 0.225135
H15   H     H_    0.595712 0.922885 0.889645 0.164985
H16   H     H_    0.146147 0.425703 0.121515 0.207332
H17   H     H_    0.298859 0.305039 0.121421 0.213641
H18   H     H_    0.583665 0.886322 0.287924 0.169661
H19   H     H_    0.302999 0.118114 0.711267 0.183264
H20   H     H_    0.465526 0.117845 0.828873 0.187979
H21   H     H_    0.734488 0.526861 0.125223 0.156585
H22   H     H_    0.734515 0.526741 0.874467 0.159238
N1    N     N_R   0.499010 0.499140 0.142800 -0.107782
N2    N     N_R   0.499010 0.499180 0.857150 -0.111539
O1    O     O_R   0.500020 0.316790 0.614690 -0.610610
O2    O     O_R   0.500000 0.316760 0.385350 -0.626876
O3    O     O_R   0.285350 0.500020 0.614650 -0.605831
O4    O     O_R   0.285340 0.499980 0.385310 -0.618208
O5    O     O_R   0.500000 0.683240 0.614650 -0.611675
O6    O     O_R   0.499980 0.683210 0.385310 -0.629504
O7    O     O_R   0.714660 0.500020 0.614690 -0.627330
O8    O     O_R   0.714650 0.499980 0.385350 -0.626374
O9    O     O_3   0.271408 0.868384 0.716092 -0.622842
Zn1   Zn    Zn3+2 0.500010 0.500020 0.653130 0.947359
Zn2   Zn    Zn3+2 0.499990 0.499980 0.346870 0.932880

loop_
_geom_bond_atom_site_label_1
_geom_bond_atom_site_label_2
_ccdc_geom_bond_type
C5    H17   S    
C24   C25   A    
C15   H6    S    
C16   H9    S    
O2    Zn2   S    
O3    Zn1   S    
C16   H8    S    
C16   H7    S    
C11   C13   A    
C1    O1    A    
C25   H22   S    
C19   C20   A    
C5    C23   S    
O7    Zn1   S    
C6    O6    A    
C4    C8    S    
C24   H21   S    
C3    H2    S    
C2    C3    S    
C18   H13   S    
C21   O9    S    
C21   C22   S    
C10   C22   S    
C6    C19   S    
C1    O2    A    
N2    Zn1   S    
C7    O7    A    
C4    O3    A    
C14   O9    S    
O1    Zn1   S    
C12   C19   A    
C2    N2    A    
O4    Zn2   S    
C6    O5    A    
N1    Zn2   S    
C12   H18   S    
O5    Zn1   S    
C17   H14   S    
C4    O4    A    
C25   N2    A    
C13   H1    S    
C10   C11   A    
C14   H4    S    
C12   C13   A    
C24   N1    A    
C22   H20   S    
C20   C21   S    
C3    H12   S    
C15   H5    S    
C17   C18   S    
C18   H10   S    
C2    C23   A    
C7    C9    S    
C5    H16   S    
C14   C15   S    
O8    Zn2   S    
C22   H19   S    
C23   N1    A    
C14   H3    S    
O6    Zn2   S    
C18   H11   S    
C7    O8    A    
C17   C21   S    
C15   C16   S    
C10   C20   A    
C8    C9    T    
C3    C5    S    
C17   H15   S    
C1    C11   S    
