data_mof_unit_11104.cif
_audit_creation_date              2012-12-11T16:28:21-0500
_audit_creation_method            fapswitch 2.2
_symmetry_space_group_name_H-M    P1
_symmetry_Int_Tables_number       1
_space_group_crystal_system       triclinic
_cell_length_a                    16.714157
_cell_length_b                    7.248898
_cell_length_c                    15.034197
_cell_angle_alpha                 90.000333
_cell_angle_beta                  94.679005
_cell_angle_gamma                 90.000209
_cell_volume                      1815.46103383

loop_
_atom_site_label
_atom_site_type_symbol
_atom_type_description
_atom_site_fract_x
_atom_site_fract_y
_atom_site_fract_z
_atom_type_partial_charge
O1    O     O_R   0.663460 0.361760 0.165970 -0.546810
O2    O     O_R   0.336540 0.638240 0.834030 -0.546801
O3    O     O_R   0.836540 0.861760 0.334030 -0.546813
O4    O     O_R   0.163460 0.138240 0.665970 -0.546802
O5    O     O_R   0.827100 0.689870 0.163730 -0.533514
O6    O     O_R   0.172900 0.310130 0.836270 -0.533510
O7    O     O_R   0.672900 0.189870 0.336270 -0.533523
O8    O     O_R   0.327100 0.810130 0.663730 -0.533506
C1    C     C_R   0.853522 0.523022 0.143850 0.774599
C2    C     C_R   0.146477 0.476978 0.856149 0.774603
C3    C     C_R   0.646477 0.023022 0.356149 0.774612
C4    C     C_R   0.353523 0.976978 0.643851 0.774604
O9    O     O_R   0.663490 0.691370 0.155500 -0.514959
O10   O     O_R   0.336510 0.308630 0.844500 -0.514949
O11   O     O_R   0.836510 0.191370 0.344500 -0.514896
O12   O     O_R   0.163490 0.808630 0.655500 -0.514976
O13   O     O_R   0.671770 0.863320 0.325740 -0.527450
O14   O     O_R   0.328230 0.136680 0.674260 -0.527453
O15   O     O_R   0.828230 0.363320 0.174260 -0.527459
O16   O     O_R   0.171770 0.636680 0.825740 -0.527452
C5    C     C_R   0.637559 0.523617 0.131741 0.890655
C6    C     C_R   0.362440 0.476383 0.868259 0.890686
C7    C     C_R   0.862444 0.023618 0.368255 0.890725
C8    C     C_R   0.137559 0.976382 0.631741 0.890657
O17   O     O_3   0.752910 0.528800 0.305860 -0.388518
O18   O     O_3   0.247090 0.471200 0.694140 -0.388535
O19   O     O_3   0.747090 0.028800 0.194140 -0.388550
O20   O     O_3   0.252910 0.971200 0.805860 -0.388530
V1    V     V_3+5 0.749460 0.803010 0.239640 1.475972
V2    V     V_3+5 0.250540 0.196990 0.760360 1.475970
V3    V     V_3+5 0.750540 0.303010 0.260360 1.476029
V4    V     V_3+5 0.249460 0.696990 0.739640 1.475944
C9    C     C_1   0.468886 0.994695 0.530165 0.001573
C10   C     C_1   0.531114 0.005306 0.469835 0.001560
C11   C     C_1   0.031114 0.494694 0.969835 0.001573
C12   C     C_1   0.968886 0.505305 0.030165 0.001572
H1    H     H_    0.771484 0.039304 0.671800 0.167980
H2    H     H_    0.228515 0.960596 0.328191 0.168110
H3    H     H_    0.728506 0.539478 0.828187 0.168100
H4    H     H_    0.271487 0.460602 0.171806 0.168062
C13   C     C_R   0.027263 0.037515 0.314490 0.238457
C14   C     C_R   0.972739 0.962467 0.685505 0.238456
C15   C     C_R   0.472740 0.537488 0.185511 0.238472
C16   C     C_R   0.527256 0.462543 0.814488 0.238484
C17   C     C_R   0.105764 0.018158 0.287563 0.373713
C18   C     C_R   0.894237 0.981795 0.712430 0.373787
C19   C     C_R   0.394239 0.518140 0.212438 0.373745
C20   C     C_R   0.605754 0.481924 0.787558 0.373718
C21   C     C_R   0.168632 0.976147 0.349929 -0.307322
C22   C     C_R   0.831368 0.023799 0.650063 -0.307425
C23   C     C_R   0.331370 0.476134 0.150070 -0.307355
C24   C     C_R   0.668624 0.523921 0.849926 -0.307344
C25   C     C_R   0.155853 0.946260 0.439202 0.347677
C26   C     C_R   0.844150 0.053716 0.560791 0.347782
C27   C     C_R   0.344150 0.446243 0.060797 0.347710
C28   C     C_R   0.655847 0.553780 0.939202 0.347703
C29   C     C_R   0.078865 0.979934 0.470964 -0.097067
C30   C     C_R   0.921138 0.020046 0.529032 -0.096994
C31   C     C_R   0.421137 0.479927 0.029035 -0.097045
C32   C     C_R   0.578862 0.520085 0.970965 -0.097056
C33   C     C_R   0.012318 0.012300 0.406675 -0.078623
C34   C     C_R   0.987686 0.987685 0.593321 -0.078630
C35   C     C_R   0.487685 0.512289 0.093324 -0.078614
C36   C     C_R   0.512313 0.487725 0.906676 -0.078621
C37   C     C_R   0.066986 0.979072 0.564204 -0.098578
C38   C     C_R   0.933018 0.020921 0.435792 -0.098513
C39   C     C_R   0.433015 0.479080 0.935795 -0.098560
C40   C     C_R   0.566984 0.520923 0.064206 -0.098563
C41   C     C_1   0.416156 0.986024 0.581637 -0.164242
C42   C     C_1   0.583843 0.013976 0.418363 -0.164248
C43   C     C_1   0.083843 0.486024 0.918363 -0.164250
C44   C     C_1   0.916156 0.513976 0.081636 -0.164254
O21   O     O_3   0.219600 0.879238 0.494092 -0.570661
C45   C     C_3   0.228617 0.689235 0.475909 -0.186776
H5    H     H_    0.244697 0.665231 0.406500 0.152071
H6    H     H_    0.173374 0.610707 0.488422 0.125538
H7    H     H_    0.278470 0.633101 0.520972 0.169358
O22   O     O_3   0.780415 0.120766 0.505888 -0.570653
C46   C     C_3   0.771274 0.310661 0.524224 -0.187285
H8    H     H_    0.826618 0.389358 0.512240 0.125366
H9    H     H_    0.754751 0.334197 0.593512 0.152604
H10   H     H_    0.721659 0.367007 0.478875 0.169512
O23   O     O_3   0.280408 0.379211 0.005901 -0.570656
C47   C     C_3   0.271348 0.189246 0.024134 -0.186959
H11   H     H_    0.255106 0.165409 0.093494 0.152272
H12   H     H_    0.326626 0.110665 0.011813 0.125472
H13   H     H_    0.221585 0.133030 0.978966 0.169408
O24   O     O_3   0.719593 0.620796 0.994098 -0.570653
C48   C     C_3   0.728636 0.810781 0.975894 -0.186893
H14   H     H_    0.673372 0.889339 0.988291 0.125494
H15   H     H_    0.744818 0.834700 0.906518 0.152180
H16   H     H_    0.778432 0.866957 0.021024 0.169389
O25   O     O_3   0.121847 0.047525 0.199847 -0.560069
C49   C     C_3   0.126698 0.874863 0.157288 -0.274882
H17   H     H_    0.070482 0.793627 0.160946 0.148681
H18   H     H_    0.179369 0.794392 0.185883 0.150443
H19   H     H_    0.134769 0.898534 0.085668 0.163774
O26   O     O_3   0.878152 0.952410 0.800144 -0.560053
C50   C     C_3   0.873284 0.125068 0.842705 -0.274846
H20   H     H_    0.820603 0.205516 0.814114 0.150423
H21   H     H_    0.929494 0.206337 0.839047 0.148671
H22   H     H_    0.865216 0.101382 0.914326 0.163762
O27   O     O_3   0.378157 0.547526 0.300153 -0.560033
C51   C     C_3   0.373250 0.374872 0.342705 -0.274823
H23   H     H_    0.429433 0.293529 0.339028 0.148657
H24   H     H_    0.320545 0.294508 0.314121 0.150430
H25   H     H_    0.365202 0.398551 0.414329 0.163771
O28   O     O_3   0.621833 0.452596 0.699838 -0.560118
C52   C     C_3   0.626704 0.625275 0.657302 -0.275045
H26   H     H_    0.679393 0.705674 0.685891 0.150484
H27   H     H_    0.570508 0.706557 0.660991 0.148712
H28   H     H_    0.634750 0.601643 0.585675 0.163797
O29   O     O_3   0.965406 0.087273 0.252229 -0.652392
H29   H     H_    0.984842 0.102634 0.192254 0.321167
O30   O     O_3   0.034598 0.912729 0.747768 -0.652375
H30   H     H_    0.015163 0.897377 0.807745 0.321162
O31   O     O_3   0.534599 0.587230 0.247773 -0.652375
H31   H     H_    0.515169 0.602518 0.307756 0.321170
O32   O     O_3   0.465399 0.412792 0.752225 -0.652378
H32   H     H_    0.484831 0.397479 0.692245 0.321173

loop_
_geom_bond_atom_site_label_1
_geom_bond_atom_site_label_2
_ccdc_geom_bond_type
O17   V3    S    
C16   C20   A    
C4    C41   S    
O1    C5    A    
O25   C49   S    
C27   C31   A    
O19   V1    S    
O13   V1    S    
O21   C45   S    
O3    C7    A    
C11   C12   S    
C47   H13   S    
C13   C33   A    
O15   V3    S    
C51   H24   S    
C3    C42   S    
C15   C35   A    
H2    C21   S    
C16   C36   A    
O7    C3    A    
C22   C26   A    
C45   H6    S    
C7    C38   S    
O9    V1    S    
C47   H12   S    
C52   H27   S    
O16   V4    S    
O4    C8    A    
C28   O24   S    
O30   H30   S    
O1    V3    S    
O28   C52   S    
O2    V4    S    
C14   C18   A    
O3    V1    S    
C31   C39   A    
C33   C38   A    
C30   C38   A    
C50   H20   S    
C2    O16   A    
C45   H7    S    
O2    C6    A    
C1    C44   S    
O14   V2    S    
C48   H15   S    
C14   C34   A    
C9    C41   T    
C2    C43   S    
O11   C7    A    
H3    C24   S    
C18   O26   S    
C11   C43   T    
O12   C8    A    
O10   V2    S    
C51   H23   S    
C1    O15   A    
O5    V1    S    
O7    V3    S    
C45   H5    S    
O8    V4    S    
C36   C39   A    
C19   O27   S    
C47   H11   S    
C52   H28   S    
C29   C37   A    
C46   H9    S    
C25   C29   A    
O22   C46   S    
C19   C23   A    
C16   O32   S    
O11   V3    S    
C28   C32   A    
O5    C1    A    
O23   C47   S    
C17   C21   A    
O8    C4    A    
C9    C10   S    
O9    C5    A    
C48   H16   S    
C49   H18   S    
C30   C34   A    
C15   O31   S    
C8    C37   S    
C50   H21   S    
C17   O25   S    
C5    C40   S    
C27   O23   S    
O29   H29   S    
C26   C30   A    
C10   C42   T    
C35   C40   A    
C3    O13   A    
C34   C37   A    
O6    V2    S    
C25   O21   S    
C13   O29   S    
O6    C2    A    
C46   H10   S    
O32   H32   S    
C29   C33   A    
O18   V4    S    
O12   V4    S    
H4    C23   S    
C18   C22   A    
C31   C35   A    
C49   H19   S    
C32   C36   A    
O10   C6    A    
O20   V2    S    
C52   H26   S    
H1    C22   S    
C20   O28   S    
C21   C25   A    
C23   C27   A    
C49   H17   S    
C6    C39   S    
C46   H8    S    
C12   C44   T    
C14   O30   S    
C20   C24   A    
C50   H22   S    
O24   C48   S    
C32   C40   A    
O26   C50   S    
C4    O14   A    
O27   C51   S    
C13   C17   A    
C48   H14   S    
O31   H31   S    
C15   C19   A    
C51   H25   S    
O4    V2    S    
C24   C28   A    
C26   O22   S    
