data_mof_unit_6696.cif
_audit_creation_date              2012-12-11T17:29:28-0500
_audit_creation_method            fapswitch 2.2
_symmetry_space_group_name_H-M    P1
_symmetry_Int_Tables_number       1
_space_group_crystal_system       triclinic
_cell_length_a                    6.94509
_cell_length_b                    21.513021
_cell_length_c                    23.716786
_cell_angle_alpha                 90.169982
_cell_angle_beta                  90.079481
_cell_angle_gamma                 90.009092
_cell_volume                      3543.50279163

loop_
_atom_site_label
_atom_site_type_symbol
_atom_type_description
_atom_site_fract_x
_atom_site_fract_y
_atom_site_fract_z
_atom_type_partial_charge
O1    O     O_R   0.385180 0.195030 0.193850 -0.539034
O2    O     O_R   0.614820 0.804970 0.806150 -0.538817
O3    O     O_R   0.714780 0.188250 0.308340 -0.527901
O4    O     O_R   0.285220 0.811750 0.691660 -0.526394
O5    O     O_R   0.885140 0.307540 0.308730 -0.537302
O6    O     O_R   0.114860 0.692460 0.691270 -0.536037
C1    C     C_R   0.546037 0.173215 0.327647 0.724457
C2    C     C_R   0.453914 0.826768 0.672343 0.720732
O7    O     O_R   0.714890 0.187670 0.194260 -0.538018
O8    O     O_R   0.285110 0.812330 0.805740 -0.539258
O9    O     O_R   0.885250 0.306950 0.193830 -0.537839
O10   O     O_R   0.114750 0.693050 0.806170 -0.538687
C3    C     C_R   0.545974 0.172531 0.174883 0.734124
C4    C     C_R   0.454024 0.827459 0.825125 0.722023
O11   O     O_R   0.385070 0.195610 0.308740 -0.532455
O12   O     O_R   0.614930 0.804390 0.691260 -0.530403
O13   O     O_3   0.551660 0.290420 0.251280 -0.369334
O14   O     O_3   0.448340 0.709580 0.748720 -0.368725
V1    V     V_3+5 0.826490 0.244020 0.251290 1.531348
V2    V     V_3+5 0.173510 0.755980 0.748710 1.524555
O15   O     O_R   0.214970 0.314310 0.194240 -0.528554
O16   O     O_R   0.785030 0.685690 0.805760 -0.529026
C5    C     C_R   0.046064 0.329340 0.174915 0.708185
C6    C     C_R   0.953939 0.670663 0.825087 0.706592
O17   O     O_R   0.214860 0.314890 0.308320 -0.535817
O18   O     O_R   0.785140 0.685110 0.691680 -0.535100
C7    C     C_R   0.046149 0.330027 0.327571 0.723720
C8    C     C_R   0.953850 0.669980 0.672424 0.727710
V3    V     V_3+5 0.326500 0.258540 0.251290 1.532308
V4    V     V_3+5 0.673500 0.741460 0.748710 1.529009
O19   O     O_3   0.051460 0.212150 0.251290 -0.365643
O20   O     O_3   0.948540 0.787850 0.748710 -0.365941
C9    C     C_3   0.877024 0.477532 0.539810 -0.318444
C10   C     C_3   0.122985 0.522515 0.460154 -0.317509
C11   C     C_3   0.066471 0.446222 0.519463 0.473277
C12   C     C_3   0.933538 0.553827 0.480501 0.468344
H1    H     H_    0.775314 0.458609 0.571485 0.226823
H2    H     H_    0.224695 0.541439 0.428479 0.227636
C13   C     C_1   0.036624 0.375664 0.372568 -0.126149
C14   C     C_1   0.963375 0.624358 0.627416 -0.125745
C15   C     C_3   0.829043 0.491021 0.477226 0.317617
C16   C     C_3   0.170964 0.509027 0.522738 0.318086
C17   C     C_3   0.015217 0.459208 0.457244 -0.170502
C18   C     C_3   0.984791 0.540838 0.542720 -0.170819
C19   C     C_1   0.027438 0.413499 0.410543 0.152679
C20   C     C_1   0.972565 0.586536 0.589430 0.152319
C21   C     C_R   0.156927 0.457897 0.002838 0.413591
C22   C     C_R   0.843803 0.542108 0.997070 0.467465
C23   C     C_R   0.016187 0.458068 0.046038 -0.262385
C24   C     C_R   0.984187 0.541771 0.953835 -0.263245
C25   C     C_R   0.861039 0.501174 0.043518 0.338563
C26   C     C_R   0.138330 0.498358 0.956124 0.337914
C27   C     C_1   0.027444 0.412686 0.091930 0.124482
C28   C     C_1   0.972884 0.587230 0.907987 0.169531
C29   C     C_1   0.963930 0.625130 0.870094 -0.108594
C30   C     C_1   0.036140 0.374841 0.129879 -0.123055
C31   C     C_R   0.345256 0.004009 0.538581 0.220983
C32   C     C_R   0.633415 0.989106 0.455168 0.273442
C33   C     C_R   0.478055 0.954282 0.542602 -0.133225
C34   C     C_R   0.511006 0.041711 0.453861 -0.129864
C35   C     C_R   0.625164 0.948085 0.502136 0.327847
C36   C     C_R   0.372656 0.050283 0.496544 0.263855
C37   C     C_1   0.469620 0.909574 0.588927 0.233989
C38   C     C_1   0.526034 0.088385 0.409296 0.269128
C39   C     C_1   0.536151 0.127133 0.372167 -0.082512
C40   C     C_1   0.462897 0.872025 0.627121 -0.095320
C41   C     C_R   0.332031 0.997298 0.966392 0.402783
C42   C     C_R   0.667880 0.002607 0.033687 0.406323
C43   C     C_R   0.487130 0.956017 0.954948 -0.254976
C44   C     C_R   0.512792 0.043894 0.045125 -0.254281
C45   C     C_R   0.655193 0.959211 0.989179 0.391994
C46   C     C_R   0.344713 0.040690 0.010902 0.395015
C47   C     C_1   0.474018 0.910778 0.908674 0.013222
C48   C     C_1   0.525947 0.089161 0.091377 0.021147
C49   C     C_1   0.535868 0.126950 0.129589 -0.150010
C50   C     C_1   0.464120 0.873013 0.870441 -0.162650
S1    S     S_3+6 0.160653 0.375170 0.546100 0.087018
O21   O     O_2   0.017383 0.323962 0.536048 -0.297792
O22   O     O_2   0.345901 0.360159 0.516366 -0.312865
O23   O     O_3   0.201682 0.382868 0.615629 -0.463046
H3    H     H_    0.256560 0.342441 0.627421 0.391327
S2    S     S_3+6 0.839377 0.624885 0.453871 0.099713
O24   O     O_2   0.654096 0.639887 0.483591 -0.308523
O25   O     O_2   0.982632 0.676092 0.463948 -0.288413
O26   O     O_3   0.798423 0.617207 0.384336 -0.460453
H4    H     H_    0.743683 0.657654 0.372542 0.397586
O27   O     O_3   0.352009 0.517061 0.547558 -0.581709
H5    H     H_    0.384944 0.561380 0.541628 0.339693
O28   O     O_3   0.647998 0.482988 0.452407 -0.581626
H6    H     H_    0.615060 0.438669 0.458337 0.339476
O29   O     O_3   0.272780 0.493467 0.913293 -0.545754
H7    H     H_    0.235584 0.519140 0.880573 0.318925
O30   O     O_3   0.723933 0.505071 0.085698 -0.546682
H8    H     H_    0.758499 0.478485 0.118051 0.324281
S3    S     S_3+6 0.355784 0.405319 0.006144 0.123507
O31   O     O_2   0.519230 0.426238 0.969326 -0.241201
O32   O     O_2   0.429440 0.400137 0.065583 -0.330037
O33   O     O_3   0.282413 0.334858 0.984008 -0.455010
H9    H     H_    0.193931 0.319840 0.013713 0.331560
S4    S     S_3+6 0.646610 0.595206 0.993185 0.099912
O34   O     O_2   0.562313 0.593776 0.934778 -0.332490
O35   O     O_2   0.490461 0.580093 0.034774 -0.258322
O36   O     O_3   0.730424 0.667099 0.006492 -0.485567
H10   H     H_    0.622103 0.695269 0.997289 0.368213
O37   O     O_3   0.263966 0.104018 0.495204 -0.582228
H11   H     H_    0.231386 0.115821 0.534411 0.379445
O38   O     O_3   0.757303 0.900855 0.509520 -0.569004
H12   H     H_    0.883283 0.915169 0.495079 0.358678
S5    S     S_3+6 0.142237 0.007803 0.584519 0.027540
O39   O     O_2   0.975575 0.038681 0.555361 -0.297875
O40   O     O_2   0.079087 0.944107 0.602687 -0.329988
O41   O     O_3   0.201561 0.049768 0.641853 -0.453210
H13   H     H_    0.308245 0.026442 0.659744 0.341717
S6    S     S_3+6 0.791761 0.973480 0.397658 0.090413
O42   O     O_2   0.833244 0.905057 0.392831 -0.269084
O43   O     O_2   0.703934 0.994475 0.342990 -0.288811
O44   O     O_3   0.999053 0.012328 0.407790 -0.462384
H14   H     H_    0.074017 0.986406 0.434348 0.347186
O45   O     O_3   0.187107 0.079145 0.018947 -0.576043
H15   H     H_    0.207652 0.107060 0.051552 0.305198
O46   O     O_3   0.812784 0.920749 0.981141 -0.575465
H16   H     H_    0.792151 0.892786 0.948574 0.305463
O47   O     O_3   0.163193 0.997438 0.935236 -0.569541
H17   H     H_    0.166412 0.964976 0.905702 0.312603
O48   O     O_3   0.836712 0.002464 0.064845 -0.565802
H18   H     H_    0.833444 0.034901 0.094402 0.316222

loop_
_geom_bond_atom_site_label_1
_geom_bond_atom_site_label_2
_ccdc_geom_bond_type
C15   O28   S    
O27   H5    S    
C2    C40   S    
O30   H8    S    
O13   V3    S    
S3    O31   D    
C10   C16   S    
O4    C2    A    
V1    O19   S    
S6    O42   D    
S3    O33   S    
C31   C36   A    
C21   C23   A    
C36   O37   S    
O26   H4    S    
C6    C29   S    
C14   C20   T    
O9    V1    S    
C24   C28   S    
O3    C1    A    
S5    O40   D    
S1    O23   S    
C8    C14   S    
O12   V4    S    
O33   H9    S    
C34   C36   A    
C41   C46   A    
C43   C45   A    
C11   C16   S    
O7    C3    A    
C9    C11   S    
O5    C7    A    
O7    V1    S    
C22   C25   A    
O6    C8    A    
C3    C49   S    
C7    C13   S    
C23   C25   A    
C44   C48   S    
C24   C26   A    
O38   H12   S    
O3    V1    S    
O14   V4    S    
C11   C17   S    
C10   C12   S    
C13   C19   T    
O47   H17   S    
C32   C35   A    
C22   C24   A    
C37   C40   T    
C2    O12   A    
C15   C17   S    
C12   C15   S    
C16   C18   S    
C35   O38   S    
O1    V3    S    
O41   H13   S    
C18   C20   S    
O11   V3    S    
S1    O22   D    
O17   V3    S    
C22   S4    S    
C31   S5    S    
C33   C35   A    
C48   C49   T    
C5    C30   S    
O8    C4    A    
S5    O41   S    
C12   S2    S    
O29   H7    S    
C1    O11   A    
S1    O21   D    
O15   V3    S    
C11   S1    S    
S4    O36   S    
C9    H1    S    
C41   C43   A    
C4    C50   S    
C1    C39   S    
O10   V2    S    
S4    O35   D    
C43   C47   S    
C17   C19   S    
O46   H16   S    
C25   O30   S    
O18   V4    S    
S2    O25   D    
O15   C5    A    
O48   H18   S    
C47   C50   T    
O16   C6    A    
C12   C18   S    
O1    C3    A    
V2    O20   S    
C27   C30   T    
C28   C29   T    
O16   V4    S    
C10   H2    S    
C9    C18   S    
O18   C8    A    
C45   O46   S    
C10   C17   S    
O23   H3    S    
C41   O47   S    
S6    O43   D    
O45   H15   S    
S3    O32   D    
C21   C26   A    
O5    V1    S    
O17   C7    A    
S2    O26   S    
O6    V2    S    
O37   H11   S    
O10   C6    A    
C33   C37   S    
C34   C38   S    
O2    V4    S    
C9    C15   S    
C38   C39   T    
V3    O19   S    
O44   H14   S    
V4    O20   S    
O8    V2    S    
C42   C45   A    
C23   C27   S    
C46   O45   S    
O9    C5    A    
S4    O34   D    
O13   V1    S    
O14   V2    S    
O2    C4    A    
S6    O44   S    
C31   C33   A    
O4    V2    S    
C42   C44   A    
S2    O24   D    
O36   H10   S    
C32   S6    S    
C21   S3    S    
C26   O29   S    
C44   C46   A    
C16   O27   S    
O28   H6    S    
S5    O39   D    
C32   C34   A    
C42   O48   S    
