data_mof_unit_50428.cif
_audit_creation_date              2012-12-11T15:21:36-0500
_audit_creation_method            fapswitch 2.2
_symmetry_space_group_name_H-M    P1
_symmetry_Int_Tables_number       1
_space_group_crystal_system       triclinic
_cell_length_a                    19.173229
_cell_length_b                    7.140482
_cell_length_c                    17.707496
_cell_angle_alpha                 90.000622
_cell_angle_beta                  108.868077
_cell_angle_gamma                 90.000212
_cell_volume                      2293.99798617

loop_
_atom_site_label
_atom_site_type_symbol
_atom_type_description
_atom_site_fract_x
_atom_site_fract_y
_atom_site_fract_z
_atom_type_partial_charge
O1    O     O_R   0.562310 0.505770 0.439670 -0.537301
O2    O     O_R   0.437690 0.005770 0.560330 -0.537300
O3    O     O_R   0.411650 0.169150 0.405330 -0.488095
O4    O     O_R   0.588350 0.669150 0.594670 -0.488095
C1    C     C_R   0.385650 0.345146 0.381894 0.825842
C2    C     C_R   0.614350 0.845147 0.618105 0.825842
O5    O     O_R   0.560140 0.175610 0.430010 -0.544628
O6    O     O_R   0.439860 0.675610 0.569990 -0.544628
O7    O     O_R   0.587240 0.012100 0.585200 -0.553742
O8    O     O_R   0.412760 0.512100 0.414800 -0.553746
C3    C     C_R   0.581128 0.344685 0.414947 0.744010
C4    C     C_R   0.418872 0.844685 0.585053 0.744007
O9    O     O_3   0.508720 0.341420 0.550890 -0.369881
O10   O     O_3   0.491280 0.841420 0.449110 -0.369884
V1    V     V_3+5 0.498380 0.063930 0.490560 1.629592
V2    V     V_3+5 0.501620 0.563930 0.509440 1.629587
C5    C     C_R   0.176129 0.755973 0.871342 -0.087196
C6    C     C_R   0.823876 0.255959 0.128663 -0.087207
C7    C     C_R   0.131317 0.915009 0.866173 -0.086273
C8    C     C_R   0.868684 0.415005 0.133827 -0.086261
C9    C     C_R   0.134875 0.061641 0.814585 -0.134091
C10   C     C_R   0.865125 0.561634 0.185415 -0.134097
C11   C     C_R   0.181770 0.049527 0.768055 0.151764
C12   C     C_R   0.818233 0.549516 0.231948 0.151760
C13   C     C_R   0.226846 0.889863 0.773961 0.015979
C14   C     C_R   0.773157 0.389853 0.226042 0.015980
C15   C     C_R   0.224662 0.742320 0.826453 -0.010540
C16   C     C_R   0.775343 0.242306 0.173553 -0.010537
C17   C     C_R   0.184698 0.195351 0.715985 -0.150067
C18   C     C_R   0.815302 0.695343 0.284016 -0.150057
C19   C     C_R   0.232180 0.184485 0.670554 -0.165702
C20   C     C_R   0.767817 0.684486 0.329445 -0.165706
C21   C     C_R   0.277231 0.026894 0.675848 0.107072
C22   C     C_R   0.722767 0.526896 0.324151 0.107076
C23   C     C_R   0.274425 0.878547 0.727469 0.064416
C24   C     C_R   0.725575 0.378543 0.272531 0.064428
C25   C     C_R   0.319279 0.719278 0.732723 0.018112
C26   C     C_R   0.680726 0.219270 0.267282 0.018111
C27   C     C_R   0.317483 0.574664 0.785564 -0.184745
C28   C     C_R   0.682529 0.074648 0.214448 -0.184763
C29   C     C_R   0.271365 0.585653 0.832724 0.394083
C30   C     C_R   0.728644 0.085637 0.167286 0.394093
C31   C     C_R   0.324953 0.015228 0.630318 -0.147426
C32   C     C_R   0.675048 0.515232 0.369683 -0.147425
C33   C     C_R   0.369290 0.855707 0.634393 -0.067311
C34   C     C_R   0.630711 0.355707 0.365608 -0.067307
C35   C     C_R   0.365788 0.707899 0.685646 -0.114157
C36   C     C_R   0.634217 0.207894 0.314358 -0.114160
H1    H     H_    0.326774 0.129761 0.590814 0.169228
H2    H     H_    0.673231 0.629765 0.409194 0.169233
C37   C     C_3   0.777077 0.706081 0.814133 0.223716
C38   C     C_3   0.222925 0.206088 0.185862 0.223721
C39   C     C_3   0.708252 0.670676 0.738012 0.629390
C40   C     C_3   0.291748 0.170678 0.261985 0.629384
C41   C     C_3   0.823896 0.935238 0.733921 -0.529904
C42   C     C_3   0.176103 0.435225 0.266079 -0.529909
C43   C     C_3   0.750351 0.057579 0.817772 0.291112
C44   C     C_3   0.249648 0.557589 0.182232 0.291112
C45   C     C_3   0.809704 0.909831 0.815043 -0.266057
C46   C     C_3   0.190296 0.409834 0.184957 -0.266057
C47   C     C_3   0.684718 0.861456 0.690640 -0.284774
C48   C     C_3   0.315282 0.361455 0.309359 -0.284776
C49   C     C_3   0.750064 0.936519 0.663245 0.216266
C50   C     C_3   0.249936 0.436514 0.336755 0.216271
C51   C     C_3   0.675185 0.017369 0.750151 0.148540
C52   C     C_3   0.324815 0.517373 0.249851 0.148541
O11   O     O_R   0.087220 0.271820 0.085230 -0.534554
O12   O     O_R   0.912780 0.771820 0.914770 -0.534548
O13   O     O_R   0.939860 0.595540 0.069990 -0.530173
O14   O     O_R   0.060140 0.095540 0.930010 -0.530174
C53   C     C_R   0.918759 0.426449 0.084971 0.738270
C54   C     C_R   0.081241 0.926450 0.915029 0.738262
O15   O     O_R   0.088340 0.601930 0.094680 -0.538738
O16   O     O_R   0.911660 0.101930 0.905320 -0.538741
O17   O     O_R   0.062310 0.765410 0.939660 -0.545665
O18   O     O_R   0.937690 0.265410 0.060340 -0.545667
C55   C     C_R   0.117069 0.431683 0.116318 0.794472
C56   C     C_R   0.882931 0.931682 0.883683 0.794472
O19   O     O_3   0.991270 0.429630 0.949130 -0.381836
O20   O     O_3   0.008730 0.929630 0.050870 -0.381838
V3    V     V_3+5 0.001620 0.707150 0.009440 1.531043
V4    V     V_3+5 0.998380 0.207150 0.990560 1.531035
H3    H     H_    0.173260 0.643536 0.911132 0.205205
H4    H     H_    0.826747 0.143519 0.088878 0.205200
Cl1   Cl    Cl    0.762346 0.648371 0.907179 -0.400064
Cl2   Cl    Cl    0.237662 0.148406 0.092817 -0.400043
Cl3   Cl    Cl    0.632928 0.561730 0.761918 -0.428601
Cl4   Cl    Cl    0.367073 0.061731 0.238080 -0.428597
Cl5   Cl    Cl    0.732848 0.495300 0.677943 -0.659474
Cl6   Cl    Cl    0.267148 0.995301 0.322049 -0.659480
H5    H     H_    0.860114 0.820272 0.726049 0.229051
H6    H     H_    0.139889 0.320248 0.273949 0.229057
Cl7   Cl    Cl    0.760103 0.825880 0.576270 -0.613237
Cl8   Cl    Cl    0.239898 0.325875 0.423730 -0.613232
H7    H     H_    0.770423 0.196255 0.804729 0.119497
H8    H     H_    0.229576 0.696258 0.195283 0.119498
Cl9   Cl    Cl    0.742442 0.090650 0.915287 -0.387505
Cl10  Cl    Cl    0.257556 0.590686 0.084718 -0.387518
Cl11  Cl    Cl    0.598229 0.978369 0.785266 -0.395208
Cl12  Cl    Cl    0.401768 0.478372 0.214730 -0.395192
H9    H     H_    0.659679 0.150529 0.716301 0.155217
H10   H     H_    0.340324 0.650530 0.283703 0.155218
H11   H     H_    0.853799 0.068812 0.733827 0.184824
H12   H     H_    0.146197 0.568790 0.266177 0.184824
H13   H     H_    0.100586 0.184628 0.809977 0.124987
H14   H     H_    0.899411 0.684627 0.190019 0.124994
H15   H     H_    0.738065 0.084690 0.643977 0.162901
H16   H     H_    0.261933 0.584685 0.356023 0.162895
H17   H     H_    0.150683 0.318940 0.710936 0.126784
H18   H     H_    0.849314 0.818933 0.289063 0.126786
H19   H     H_    0.233755 0.299759 0.631321 0.158065
H20   H     H_    0.766239 0.799770 0.368675 0.158057
H21   H     H_    0.400072 0.585048 0.689844 0.154466
H22   H     H_    0.599935 0.085039 0.310163 0.154464
H23   H     H_    0.352437 0.452798 0.790687 0.187220
H24   H     H_    0.647586 0.952776 0.209336 0.187212
Cl13  Cl    Cl    0.275576 0.401051 0.900199 -0.484318
Cl14  Cl    Cl    0.724433 0.901029 0.099815 -0.484344
H25   H     H_    0.820543 0.605013 0.812011 0.120154
H26   H     H_    0.179461 0.105012 0.187977 0.120156

loop_
_geom_bond_atom_site_label_1
_geom_bond_atom_site_label_2
_ccdc_geom_bond_type
C26   C28   A    
C41   C45   S    
C52   H10   S    
O11   C55   A    
C43   H7    S    
C51   H9    S    
O2    C4    A    
C37   Cl1   S    
C2    O7    A    
C27   C29   A    
O5    C3    A    
C18   H18   S    
O12   V3    S    
C11   C17   A    
C2    C47   S    
C17   H17   S    
C23   C25   A    
C12   C14   A    
C40   Cl6   S    
C53   O18   A    
C43   C45   S    
C44   C46   S    
C41   H11   S    
C6    C8    A    
C47   C49   S    
C52   Cl12  S    
O13   C53   A    
C44   H8    S    
C48   C50   S    
C38   C46   S    
C5    C7    A    
C39   C47   S    
C44   C52   S    
C32   C34   A    
C44   Cl10  S    
C37   H25   S    
C42   C50   S    
C8    C53   S    
C25   C35   A    
C26   C36   A    
C28   C30   A    
O6    V2    S    
C7    C54   S    
C41   H5    S    
O16   V4    S    
C54   O17   A    
C45   C56   S    
O15   V3    S    
C38   C40   S    
C50   H16   S    
C33   C35   A    
O12   C56   A    
C34   C36   A    
C46   C55   S    
C48   C52   S    
C5    C15   A    
C6    C16   A    
C51   Cl11  S    
O4    C2    A    
O18   V4    S    
C30   Cl14  S    
O5    V1    S    
C40   C48   S    
C10   H14   S    
C42   C46   S    
C41   C49   S    
C5    H3    S    
C21   C31   A    
O4    V2    S    
C18   C20   A    
C15   C29   A    
C6    H4    S    
O6    C4    A    
C43   Cl9   S    
C19   C21   A    
C31   H1    S    
C22   C32   A    
C39   Cl3   S    
O1    V2    S    
O2    V1    S    
C31   C33   A    
C42   H12   S    
C13   C23   A    
C38   H26   S    
C14   C24   A    
C8    C10   A    
C27   H23   S    
C9    C11   A    
C39   Cl5   S    
C10   C12   A    
C37   C45   S    
C49   H15   S    
C24   C26   A    
O3    V1    S    
C36   H22   S    
C32   H2    S    
C35   H21   S    
O15   C55   A    
C20   H20   S    
C7    C9    A    
O17   V3    S    
C43   C51   S    
O20   V3    S    
O3    C1    A    
O19   V4    S    
C4    C33   S    
C13   C15   A    
C49   Cl7   S    
C14   C16   A    
C38   Cl2   S    
O7    V1    S    
C50   Cl8   S    
C1    O8    A    
C17   C19   A    
O8    V2    S    
C40   Cl4   S    
C28   H24   S    
C16   C30   A    
C21   C23   A    
C1    C48   S    
C22   C24   A    
C11   C13   A    
O14   V4    S    
C12   C18   A    
O13   V3    S    
C37   C39   S    
C47   C51   S    
C42   H6    S    
O11   V4    S    
C25   C27   A    
O16   C56   A    
O9    V2    S    
C19   H19   S    
O10   V1    S    
C3    C34   S    
O14   C54   A    
O1    C3    A    
C29   Cl13  S    
C9    H13   S    
C20   C22   A    
