data_mof_unit_9042.cif
_audit_creation_date              2012-12-10T17:25:15-0500
_audit_creation_method            fapswitch 2.2
_symmetry_space_group_name_H-M    P1
_symmetry_Int_Tables_number       1
_space_group_crystal_system       triclinic
_cell_length_a                    27.812504
_cell_length_b                    10.8801
_cell_length_c                    9.579909
_cell_angle_alpha                 90.711183
_cell_angle_beta                  90.204391
_cell_angle_gamma                 93.299632
_cell_volume                      2893.85211283

loop_
_atom_site_label
_atom_site_type_symbol
_atom_type_description
_atom_site_fract_x
_atom_site_fract_y
_atom_site_fract_z
_atom_type_partial_charge
C1    C     C_R   0.497888 0.262713 0.498726 0.868950
C2    C     C_R   0.278474 0.434433 0.381396 0.361411
C3    C     C_R   0.252853 0.495962 0.483979 0.229192
C4    C     C_R   0.101392 0.506649 0.454890 -0.132146
C5    C     C_R   0.123183 0.393170 0.460378 -0.058265
C6    C     C_R   0.094992 0.283380 0.441431 -0.169480
C7    C     C_R   0.130402 0.617596 0.455393 -0.061407
C8    C     C_R   0.354340 0.503277 0.496886 -0.152369
C9    C     C_R   0.645828 0.492799 0.500869 -0.128630
C10   C     C_R   0.972091 0.401159 0.478072 0.017703
C11   C     C_R   0.977471 0.621675 0.424886 0.003650
C12   C     C_R   0.407569 0.503505 0.499704 0.838244
C13   C     C_R   0.949434 0.511995 0.451873 -0.003375
C14   C     C_R   0.944881 0.303385 0.541378 0.377335
C15   C     C_R   0.894495 0.303996 0.542171 -0.227444
C16   C     C_R   0.871202 0.407302 0.497589 -0.044139
C17   C     C_R   0.898601 0.513940 0.458108 -0.099540
C18   C     C_R   0.875282 0.622658 0.427734 -0.133479
C19   C     C_R   0.824900 0.622893 0.447245 0.617178
C20   C     C_R   0.820956 0.408928 0.500640 0.561994
C21   C     C_R   0.724038 0.490297 0.618769 0.114480
C22   C     C_R   0.673516 0.461533 0.619715 0.131732
C23   C     C_R   0.500239 0.738442 0.502079 0.839346
C24   C     C_R   0.669804 0.527279 0.377418 -0.359229
C25   C     C_R   0.720027 0.532875 0.369330 0.460920
C26   C     C_R   0.747252 0.516155 0.490194 0.251832
C27   C     C_R   0.022125 0.396177 0.452758 0.064005
C28   C     C_R   0.050576 0.508453 0.448814 0.027361
C29   C     C_R   0.028427 0.621893 0.437217 0.038488
C30   C     C_R   0.044968 0.284406 0.425357 0.211201
C31   C     C_R   0.108264 0.731113 0.448791 0.458650
C32   C     C_R   0.953556 0.727358 0.387318 -0.195034
C33   C     C_R   0.903449 0.727755 0.383872 0.425584
C34   C     C_R   0.592480 0.494528 0.500615 0.825385
C35   C     C_R   0.057870 0.731845 0.440010 -0.302903
C36   C     C_R   0.429856 0.112314 0.678422 0.151810
C37   C     C_R   0.419519 0.061944 0.810284 0.438202
C38   C     C_R   0.440349 0.953173 0.848221 -0.288670
C39   C     C_R   0.466951 0.889193 0.751677 -0.179763
C40   C     C_R   0.478317 0.939182 0.618965 0.007160
C41   C     C_R   0.466541 0.061636 0.595488 -0.085949
C42   C     C_R   0.493110 0.128948 0.493447 -0.179268
C43   C     C_R   0.520801 0.068681 0.394823 0.316117
C44   C     C_R   0.519521 0.939987 0.392666 0.288435
C45   C     C_R   0.173284 0.391910 0.475384 0.644754
C46   C     C_R   0.500422 0.874067 0.507676 -0.160954
C47   C     C_R   0.567434 0.656394 0.145351 -0.237231
C48   C     C_R   0.601983 0.730925 0.074677 0.299837
C49   C     C_R   0.600679 0.733122 0.928979 0.368483
C50   C     C_R   0.565926 0.659610 0.857847 -0.239239
C51   C     C_R   0.532556 0.578349 0.926321 0.095172
C52   C     C_R   0.532870 0.577619 0.075461 0.083243
C53   C     C_R   0.469329 0.423381 0.073305 0.539224
C54   C     C_R   0.469466 0.424169 0.924272 -0.151145
C55   C     C_R   0.180960 0.610990 0.461992 0.588609
C56   C     C_R   0.277709 0.561625 0.590560 -0.210307
C57   C     C_R   0.328114 0.573800 0.593036 0.056362
C58   C     C_R   0.329125 0.430358 0.393905 0.226209
Cu1   Cu    Cu3+1 0.500000 0.499990 0.640660 0.916303
Cu2   Cu    Cu3+1 0.500000 0.500010 0.359340 1.038245
H1    H     H_    0.257286 0.610186 0.667637 0.183393
H2    H     H_    0.973015 0.809989 0.352540 0.161840
H3    H     H_    0.649417 0.547515 0.284891 0.171305
H4    H     H_    0.042330 0.820386 0.440608 0.131683
H5    H     H_    0.433368 0.913334 0.949744 0.151017
H6    H     H_    0.479929 0.804756 0.789173 0.196659
H7    H     H_    0.568382 0.665887 0.255266 0.237863
H8    H     H_    0.566741 0.670460 0.748080 0.240333
H9    H     H_    0.444839 0.362240 0.866484 0.151062
H10   H     H_    0.112338 0.197278 0.428657 0.181957
H11   H     H_    0.873740 0.226133 0.585099 0.190739
N1    N     N_R   0.201195 0.499628 0.474558 -0.447275
N2    N     N_R   0.798902 0.516299 0.478992 -0.445502
N3    N     N_R   0.500460 0.501210 0.147910 -0.194767
N4    N     N_R   0.500480 0.501290 0.852040 -0.199664
O1    O     O_R   0.500000 0.319640 0.618810 -0.600429
O2    O     O_2   0.794233 0.304480 0.527777 -0.536418
O3    O     O_2   0.209872 0.714569 0.454186 -0.465826
O4    O     O_2   0.802070 0.728638 0.439206 -0.489613
O5    O     O_R   0.500000 0.319660 0.381240 -0.476066
O6    O     O_R   0.430260 0.500010 0.618770 -0.624492
O7    O     O_R   0.430270 0.500030 0.381200 -0.488936
O8    O     O_R   0.500000 0.680340 0.618760 -0.635791
O9    O     O_R   0.500000 0.680360 0.381190 -0.552184
O10   O     O_R   0.569730 0.499970 0.618800 -0.612610
O11   O     O_R   0.569740 0.499990 0.381230 -0.599639
O12   O     O_2   0.193991 0.283687 0.491081 -0.503928
O13   O     O_3   0.354639 0.353769 0.309467 -0.694549
H12   H     H_    0.333175 0.282411 0.279527 0.337717
O14   O     O_3   0.136096 0.840683 0.452697 -0.655736
H13   H     H_    0.115088 0.911028 0.446114 0.317626
O15   O     O_3   0.883705 0.832092 0.334518 -0.687714
H14   H     H_    0.857038 0.805003 0.270361 0.361751
O16   O     O_3   0.743546 0.556102 0.244787 -0.708767
H15   H     H_    0.719369 0.565311 0.169849 0.325643
O17   O     O_3   0.549557 0.137419 0.303466 -0.711509
H16   H     H_    0.576952 0.088921 0.274121 0.345847
C59   C     C_3   0.395793 0.203086 0.619259 -0.370802
C60   C     C_3   0.345772 0.141197 0.592253 -0.735884
H17   H     H_    0.329432 0.104548 0.689808 0.283590
H18   H     H_    0.321568 0.209163 0.549548 0.251754
H19   H     H_    0.348153 0.064674 0.515197 0.243813
H20   H     H_    0.392636 0.281693 0.692701 0.228610
H21   H     H_    0.408154 0.239870 0.517701 0.206270
O18   O     O_3   0.387970 0.118475 0.897942 -0.769204
H22   H     H_    0.384340 0.070624 0.985095 0.326960
O19   O     O_3   0.253180 0.382253 0.269077 -0.697042
H23   H     H_    0.275131 0.377627 0.188243 0.335359
O20   O     O_3   0.538732 0.877973 0.281882 -0.746149
H24   H     H_    0.535131 0.926638 0.196002 0.343510
O21   O     O_3   0.438578 0.343497 0.145211 -0.650235
H25   H     H_    0.418036 0.294925 0.077454 0.331317
O22   O     O_3   0.636396 0.804082 0.146139 -0.721275
H26   H     H_    0.633191 0.789786 0.247784 0.347200
O23   O     O_3   0.632383 0.806581 0.851100 -0.725408
H27   H     H_    0.655395 0.853205 0.913776 0.378965
C61   C     C_3   0.652483 0.380588 0.736621 -0.415501
C62   C     C_3   0.667722 0.248425 0.719318 -0.757174
H28   H     H_    0.707476 0.244435 0.718679 0.273738
H29   H     H_    0.653211 0.191718 0.806871 0.250147
H30   H     H_    0.653083 0.208017 0.619761 0.262686
H31   H     H_    0.663758 0.417669 0.840665 0.207252
H32   H     H_    0.612982 0.372706 0.740318 0.243992
C63   C     C_3   0.752782 0.499908 0.754760 -0.389962
C64   C     C_3   0.740711 0.614787 0.837945 -0.772695
H33   H     H_    0.749274 0.698530 0.775483 0.277583
H34   H     H_    0.702057 0.611868 0.866610 0.256290
H35   H     H_    0.762551 0.621219 0.935273 0.259446
H36   H     H_    0.746295 0.416914 0.819389 0.222850
H37   H     H_    0.792130 0.507571 0.736457 0.212040
O24   O     O_3   0.968205 0.216510 0.616292 -0.743371
H38   H     H_    0.944038 0.156623 0.656663 0.331241
C65   C     C_3   0.019883 0.174772 0.348424 -0.394891
C66   C     C_3   0.004194 0.210998 0.202389 -0.793843
H39   H     H_    0.976457 0.280288 0.208575 0.252897
H40   H     H_    0.035620 0.249668 0.142759 0.262940
H41   H     H_    0.988520 0.128492 0.145569 0.256409
H42   H     H_    0.044728 0.098872 0.336143 0.188367
H43   H     H_    0.988384 0.133097 0.403241 0.255187
C67   C     C_3   0.351133 0.668553 0.694237 -0.384938
C68   C     C_3   0.339031 0.798805 0.653874 -0.779781
H44   H     H_    0.355685 0.823169 0.551916 0.251070
H45   H     H_    0.299542 0.807623 0.646914 0.280159
H46   H     H_    0.353250 0.865231 0.734412 0.248331
H47   H     H_    0.337681 0.648989 0.801260 0.211047
H48   H     H_    0.390753 0.668224 0.698915 0.229277

loop_
_geom_bond_atom_site_label_1
_geom_bond_atom_site_label_2
_ccdc_geom_bond_type
C10   C27   A    
C22   C61   S    
C21   C26   A    
C11   C13   A    
C41   C42   A    
C53   N3    A    
C7    C55   A    
C43   C44   A    
C66   H41   S    
C65   C66   S    
C34   O10   A    
C53   C54   A    
C40   C46   A    
C23   O8    A    
C20   O2    S    
C28   C29   A    
C45   O12   S    
C51   N4    A    
C52   N3    A    
C68   H45   S    
C5    C6    A    
C59   H21   S    
C9    C22   A    
C59   H20   S    
C2    O19   S    
C26   N2    S    
C56   C57   A    
C17   C18   A    
C18   C19   A    
C34   O11   A    
C49   C50   A    
C62   H28   S    
C8    C58   A    
Cu2   O7    S    
Cu2   O5    S    
O21   H25   S    
C16   C17   A    
C63   H36   S    
C64   H35   S    
O19   H23   S    
C35   H4    S    
C55   N1    A    
C8    C12   S    
C44   O20   S    
C30   C65   S    
C65   H42   S    
C23   C46   S    
C21   C22   A    
C45   N1    A    
C36   C41   A    
C4    C7    A    
C47   H7    S    
C4    C28   A    
C44   C46   A    
C50   C51   A    
C14   O24   S    
C7    C31   A    
C23   O9    A    
C12   O7    A    
C51   C52   A    
C19   N2    A    
C24   C25   A    
C10   C14   A    
C68   H46   S    
C67   H48   S    
C39   C40   A    
C55   O3    S    
Cu2   O11   S    
C66   H40   S    
C25   C26   A    
C20   N2    A    
C5    C45   A    
C57   C67   S    
C62   H30   S    
C61   H31   S    
Cu1   O10   S    
C37   O18   S    
C37   C38   A    
C8    C57   A    
C3    C56   A    
C47   C48   A    
C38   H5    S    
C16   C20   A    
C31   O14   S    
O17   H16   S    
C43   O17   S    
C63   H37   S    
C67   C68   S    
C19   O4    S    
C47   C52   A    
C40   C41   A    
C49   O23   S    
C11   C32   A    
C65   H43   S    
C24   H3    S    
C68   H44   S    
C64   H33   S    
C39   H6    S    
C31   C35   A    
C33   O15   S    
C42   C43   A    
O24   H38   S    
Cu1   N4    S    
O22   H26   S    
C6    H10   S    
C36   C37   A    
C6    C30   A    
C14   C15   A    
C1    O1    A    
Cu1   O6    S    
Cu1   O8    S    
C4    C5    A    
C10   C13   A    
C58   O13   S    
C67   H47   S    
C2    C58   A    
C9    C24   A    
C66   H39   S    
C15   H11   S    
O18   H22   S    
C29   C35   A    
C60   H17   S    
C13   C17   A    
C32   C33   A    
C21   C63   S    
C3    N1    S    
C61   H32   S    
C32   H2    S    
C61   C62   S    
Cu2   O9    S    
C53   O21   S    
O14   H13   S    
C38   C39   A    
C54   H9    S    
C48   C49   A    
Cu2   N3    S    
O15   H14   S    
C12   O6    A    
C2    C3    A    
O16   H15   S    
C18   C33   A    
C62   H29   S    
C54   N4    A    
C1    C42   S    
Cu1   Cu2   S    
C60   H19   S    
O13   H12   S    
C11   C29   A    
C59   C60   S    
C25   O16   S    
C27   C28   A    
C64   H34   S    
C1    O5    A    
C56   H1    S    
C63   C64   S    
C36   C59   S    
O23   H27   S    
O20   H24   S    
C50   H8    S    
Cu1   O1    S    
C60   H18   S    
C15   C16   A    
C9    C34   S    
C48   O22   S    
C27   C30   A    
