data_mof_unit_14276.cif
_audit_creation_date              2012-12-11T17:01:25-0500
_audit_creation_method            fapswitch 2.2
_symmetry_space_group_name_H-M    P1
_symmetry_Int_Tables_number       1
_space_group_crystal_system       triclinic
_cell_length_a                    19.36636
_cell_length_b                    7.123285
_cell_length_c                    17.644169
_cell_angle_alpha                 89.713412
_cell_angle_beta                  108.578628
_cell_angle_gamma                 90.314625
_cell_volume                      2307.15694956

loop_
_atom_site_label
_atom_site_type_symbol
_atom_type_description
_atom_site_fract_x
_atom_site_fract_y
_atom_site_fract_z
_atom_type_partial_charge
O1    O     O_R   0.413720 0.494330 0.415730 -0.528699
O2    O     O_R   0.586280 0.994330 0.584270 -0.521866
O3    O     O_R   0.560210 0.819300 0.430070 -0.526511
O4    O     O_R   0.439790 0.319300 0.569930 -0.550816
C1    C     C_R   0.582825 0.656722 0.416090 0.759769
C2    C     C_R   0.417477 0.154502 0.584332 0.755863
O5    O     O_R   0.412670 0.823730 0.406310 -0.539976
O6    O     O_R   0.587330 0.323730 0.593690 -0.547104
O7    O     O_R   0.437690 0.998790 0.560340 -0.508043
O8    O     O_R   0.562310 0.498790 0.439660 -0.551222
C3    C     C_R   0.385894 0.655023 0.382932 0.728164
C4    C     C_R   0.614414 0.155188 0.616584 0.717071
O9    O     O_3   0.508380 0.662350 0.550560 -0.359149
O10   O     O_3   0.491620 0.162350 0.449440 -0.373511
V1    V     V_3+5 0.498450 0.935370 0.490620 1.493584
V2    V     V_3+5 0.501550 0.435370 0.509380 1.450223
C5    C     C_R   0.730993 0.994212 0.693402 0.047484
C6    C     C_R   0.269585 0.492641 0.305544 0.028666
C7    C     C_R   0.683511 0.146084 0.684261 -0.116543
C8    C     C_R   0.317149 0.645475 0.314645 -0.123251
C9    C     C_R   0.699990 0.279334 0.745651 -0.164034
C10   C     C_R   0.300969 0.779190 0.252898 -0.159644
H1    H     H_    0.660054 0.383940 0.745018 0.184952
H2    H     H_    0.341107 0.884288 0.253354 0.182876
C11   C     C_R   0.762759 0.263819 0.813033 0.157044
C12   C     C_R   0.238026 0.763737 0.185535 0.157759
C13   C     C_R   0.814845 0.121657 0.817208 -0.121702
C14   C     C_R   0.185641 0.621325 0.181979 -0.123721
C15   C     C_R   0.797245 0.986227 0.756245 0.001925
C16   C     C_R   0.203322 0.484509 0.242764 0.008695
C17   C     C_3   0.787466 0.781531 0.768211 -0.387781
C18   C     C_3   0.213118 0.280399 0.230517 -0.381634
C19   C     C_3   0.713721 0.793167 0.704555 0.036089
C20   C     C_3   0.286790 0.292351 0.294289 0.040549
H3    H     H_    0.785233 0.751541 0.828972 0.227970
H4    H     H_    0.215493 0.251939 0.169768 0.225417
H5    H     H_    0.827263 0.695109 0.750263 0.148025
H6    H     H_    0.173301 0.192103 0.248325 0.146073
H7    H     H_    0.709349 0.706115 0.651103 0.108129
H8    H     H_    0.291008 0.203921 0.347642 0.097702
C21   C     C_R   0.320565 0.984815 0.628145 0.243384
C22   C     C_R   0.689301 0.793430 0.379684 0.227073
C23   C     C_R   0.366372 0.143615 0.632033 -0.113314
C24   C     C_R   0.634344 0.653691 0.368987 -0.114079
C25   C     C_R   0.363193 0.295096 0.681625 -0.275879
C26   C     C_R   0.629009 0.508973 0.313774 -0.281305
C27   C     C_R   0.316305 0.291293 0.727780 0.084228
C28   C     C_R   0.677750 0.498332 0.269864 0.085324
C29   C     C_R   0.271078 0.133747 0.724603 0.019941
C30   C     C_R   0.730648 0.640405 0.277768 0.014778
C31   C     C_R   0.272867 0.979712 0.674836 0.030691
C32   C     C_R   0.736760 0.788906 0.332579 0.039036
C33   C     C_R   0.314029 0.443251 0.777321 -0.155478
C34   C     C_R   0.674702 0.346577 0.218386 -0.154476
C35   C     C_R   0.266977 0.440235 0.823183 -0.166803
C36   C     C_R   0.723409 0.335572 0.174674 -0.156963
C37   C     C_R   0.221363 0.285112 0.820401 0.082754
C38   C     C_R   0.774796 0.478660 0.180006 0.083368
C39   C     C_R   0.223551 0.130973 0.771151 0.075421
C40   C     C_R   0.778107 0.632502 0.231149 0.069592
C41   C     C_R   0.178151 0.974147 0.768373 0.098012
C42   C     C_R   0.829033 0.777976 0.235875 0.101426
C43   C     C_R   0.179489 0.823185 0.718529 -0.193780
C44   C     C_R   0.834618 0.925020 0.289799 -0.193622
C45   C     C_R   0.225848 0.825951 0.672126 -0.192091
C46   C     C_R   0.790400 0.928320 0.338764 -0.184085
C47   C     C_R   0.173838 0.281042 0.866217 -0.188603
C48   C     C_R   0.822744 0.470834 0.134873 -0.178437
C49   C     C_R   0.129215 0.123361 0.864436 -0.070002
C50   C     C_R   0.871331 0.619741 0.136477 -0.074502
C51   C     C_R   0.131883 0.970617 0.815275 -0.211237
C52   C     C_R   0.874015 0.773104 0.187191 -0.222584
H9    H     H_    0.398081 0.416471 0.685043 0.155389
H10   H     H_    0.586860 0.403039 0.305423 0.156593
H11   H     H_    0.348486 0.565231 0.780324 0.144065
H12   H     H_    0.635045 0.235124 0.212559 0.143236
H13   H     H_    0.266109 0.559696 0.860659 0.151223
H14   H     H_    0.720314 0.216057 0.135948 0.148865
H15   H     H_    0.172580 0.399134 0.904283 0.140416
H16   H     H_    0.821009 0.350433 0.097035 0.152831
H17   H     H_    0.097406 0.848875 0.812904 0.126816
H18   H     H_    0.912302 0.886619 0.190105 0.124194
H19   H     H_    0.144535 0.702126 0.715369 0.128446
H20   H     H_    0.874062 0.036745 0.295003 0.125615
H21   H     H_    0.224013 0.705974 0.634293 0.139759
H22   H     H_    0.798755 0.042176 0.380892 0.135709
O11   O     O_R   0.937800 0.775460 0.060470 -0.535527
O12   O     O_R   0.062200 0.275460 0.939530 -0.541840
O13   O     O_R   0.087350 0.441340 0.093710 -0.539308
O14   O     O_R   0.912650 0.941340 0.906290 -0.538762
C53   C     C_R   0.115950 0.609908 0.114699 0.718384
C54   C     C_R   0.884196 0.109837 0.885039 0.721555
O15   O     O_R   0.939820 0.446010 0.069950 -0.540384
O16   O     O_R   0.060180 0.946010 0.930050 -0.536734
O17   O     O_R   0.913690 0.271230 0.915700 -0.527145
O18   O     O_R   0.086310 0.771230 0.084300 -0.527700
C55   C     C_R   0.919366 0.613784 0.085657 0.733438
C56   C     C_R   0.080850 0.114948 0.914718 0.733331
O19   O     O_3   0.991670 0.603050 0.949510 -0.373914
O20   O     O_3   0.008330 0.103050 0.050490 -0.374234
V3    V     V_3+5 0.001550 0.329940 0.009370 1.448168
V4    V     V_3+5 0.998450 0.829940 0.990630 1.454352
I1    I     I_    0.763200 0.422816 0.914481 -0.409071
I2    I     I_    0.236999 0.922778 0.082879 -0.392546
I3    I     I_    0.625090 0.766150 0.754189 -0.360771
I4    I     I_    0.375639 0.268807 0.245040 -0.384431
N1    N     N_2   0.322076 0.833047 0.576328 -0.500010
H23   H     H_    0.324718 0.701187 0.601363 0.246633
C57   C     C_3   0.269938 0.847966 0.496919 -0.538343
H24   H     H_    0.275842 0.726102 0.460610 0.179253
H25   H     H_    0.279788 0.978523 0.467137 0.186523
H26   H     H_    0.213451 0.848600 0.499743 0.183236
N2    N     N_2   0.699869 0.927135 0.442322 -0.540299
H27   H     H_    0.752620 0.935246 0.480609 0.238416
C58   C     C_3   0.667381 0.109246 0.418116 -0.465990
H28   H     H_    0.664704 0.186284 0.471598 0.181114
H29   H     H_    0.611343 0.095306 0.375482 0.213066
H30   H     H_    0.700692 0.192819 0.389567 0.169770

loop_
_geom_bond_atom_site_label_1
_geom_bond_atom_site_label_2
_ccdc_geom_bond_type
C48   H16   S    
C43   C45   A    
O18   V4    S    
C13   C15   A    
C5    C15   A    
O1    C3    A    
O2    C4    A    
C2    O7    A    
O12   V3    S    
C32   C46   A    
C27   C29   A    
O5    C3    A    
C19   H7    S    
C5    C19   S    
C20   H8    S    
C18   H4    S    
C25   H9    S    
C7    C9    A    
C57   H25   S    
C35   H13   S    
C37   C39   A    
O16   C56   A    
C38   C40   A    
C58   H28   S    
C36   H14   S    
C40   C42   A    
C31   C45   A    
C49   C51   A    
O14   V4    S    
C42   C44   A    
C12   I2    S    
C53   O18   A    
C44   H20   S    
C58   H29   S    
C30   C32   A    
N1    H23   S    
C17   C19   S    
C6    C16   A    
C18   H6    S    
O13   C53   A    
C6    C8    A    
C50   C55   S    
C27   C33   A    
C49   C56   S    
C41   C51   A    
C25   C27   A    
O6    V2    S    
C21   C23   A    
C33   H11   S    
C22   C24   A    
C37   C47   A    
C24   C26   A    
C26   C28   A    
C33   C35   A    
C34   C36   A    
C3    C8    S    
C39   C41   A    
C20   I4    S    
C19   I3    S    
O4    C2    A    
C57   H26   S    
O15   V3    S    
C11   I1    S    
O5    V1    S    
C29   C31   A    
C54   O17   A    
C17   H5    S    
C43   H19   S    
C47   C49   A    
C18   C20   S    
O4    V2    S    
C28   C34   A    
O11   V4    S    
C23   C25   A    
C22   N2    S    
O14   C54   A    
O6    C4    A    
C58   H30   S    
O20   V4    S    
C42   C52   A    
C13   C54   S    
O1    V2    S    
O2    V1    S    
C6    C20   S    
C44   C46   A    
C34   H12   S    
C38   C48   A    
O19   V3    S    
C1    C24   S    
C8    C10   A    
C2    C23   S    
C9    H1    S    
C17   H3    S    
O15   C55   A    
C26   H10   S    
O3    V1    S    
N2    H27   S    
C9    C11   A    
C21   N1    S    
O13   V3    S    
C41   C43   A    
O3    C1    A    
C46   H22   S    
C45   H21   S    
C11   C13   A    
C12   C14   A    
C29   C39   A    
C30   C40   A    
C35   C37   A    
O7    V1    S    
C14   C16   A    
C15   C17   S    
O8    V2    S    
C57   H24   S    
C16   C18   S    
N1    C57   S    
N2    C58   S    
C4    C7    S    
C28   C30   A    
O20   V3    S    
C5    C7    A    
C36   C38   A    
C14   C53   S    
C10   H2    S    
O12   C56   A    
C1    O8    A    
O19   V4    S    
O16   V4    S    
C48   C50   A    
C10   C12   A    
O9    V2    S    
O10   V1    S    
C50   C52   A    
O11   C55   A    
C21   C31   A    
C47   H15   S    
C52   H18   S    
O17   V3    S    
C22   C32   A    
C51   H17   S    
