data_mof_unit_34759.cif
_audit_creation_date              2013-03-05T16:31:36-0500
_audit_creation_method            fapswitch 2.2
_symmetry_space_group_name_H-M    P1
_symmetry_Int_Tables_number       1
_space_group_crystal_system       triclinic
_cell_length_a                    9.616919
_cell_length_b                    10.899784
_cell_length_c                    15.402808
_cell_angle_alpha                 86.675954
_cell_angle_beta                  74.619707
_cell_angle_gamma                 90.511687
_cell_volume                      1553.62091355

loop_
_atom_site_label
_atom_site_type_symbol
_atom_site_description
_atom_site_fract_x
_atom_site_fract_y
_atom_site_fract_z
_atom_type_partial_charge
O1    O     O_R   0.118810 0.319640 0.500000 -0.552431
O2    O     O_R   0.881230 0.319680 0.499990 -0.594720
C1    C     C_R   0.997676 0.262440 0.504219 0.810573
O3    O     O_R   0.055580 0.499970 0.629840 -0.538057
O4    O     O_R   0.818000 0.500010 0.629830 -0.599750
C2    C     C_R   0.917840 0.497624 0.672532 0.803861
Cu1   Cu    Cu3+1 0.140670 0.499980 0.500000 1.025088
Cu2   Cu    Cu3+1 0.859330 0.500020 0.500000 0.980353
O5    O     O_R   0.118770 0.680320 0.500010 -0.595523
O6    O     O_R   0.881190 0.680360 0.500000 -0.579431
O7    O     O_R   0.182000 0.499990 0.370170 -0.562550
O8    O     O_R   0.944420 0.500030 0.370160 -0.561915
C3    C     C_R   0.000513 0.737830 0.499354 0.847744
C4    C     C_R   0.080957 0.492548 0.328290 0.839632
C5    C     C_R   0.869002 0.481564 0.771970 -0.067108
C6    C     C_R   0.123443 0.479046 0.230087 -0.077875
C7    C     C_R   0.906627 0.403778 0.914046 -0.207542
C8    C     C_R   0.960539 0.437055 0.822612 -0.149543
C9    C     C_R   0.722903 0.497330 0.815258 -0.226035
C10   C     C_R   0.664285 0.461921 0.907497 0.100092
C11   C     C_R   0.759745 0.415441 0.956795 0.148832
C12   C     C_R   0.514260 0.470079 0.951834 0.046817
C13   C     C_R   0.464150 0.438382 0.046390 0.073265
C14   C     C_R   0.563111 0.389875 0.091990 -0.107720
C15   C     C_R   0.707865 0.379090 0.047927 -0.192299
C16   C     C_R   0.412351 0.507305 0.904713 -0.157445
C17   C     C_R   0.267409 0.516332 0.948628 -0.180465
C18   C     C_R   0.218972 0.494079 0.041625 0.129926
C19   C     C_R   0.316712 0.456968 0.092140 0.104099
C20   C     C_R   0.073245 0.510274 0.085010 -0.183272
C21   C     C_R   0.025625 0.500011 0.178570 -0.119923
C22   C     C_R   0.264361 0.446918 0.187089 -0.155566
H1    H     H_    0.779958 0.341755 0.085689 0.156043
H2    H     H_    0.331344 0.417896 0.229787 0.177312
H3    H     H_    0.913116 0.510384 0.210667 0.214467
H4    H     H_    0.193254 0.544746 0.909605 0.160288
H5    H     H_    0.979564 0.366054 0.950955 0.153555
H6    H     H_    0.072501 0.423853 0.791266 0.235760
H7    H     H_    0.657285 0.536428 0.774636 0.151327
H8    H     H_    0.531631 0.356650 0.161807 0.164335
H9    H     H_    0.440032 0.529034 0.833175 0.176963
H10   H     H_    0.996842 0.534993 0.046843 0.159529
C23   C     C_R   0.099088 0.061026 0.539181 0.109968
C24   C     C_R   0.990386 0.128779 0.515108 -0.119548
C25   C     C_R   0.871823 0.063861 0.500940 -0.198142
H11   H     H_    0.781704 0.111948 0.486600 0.164324
C26   C     C_R   0.872750 0.935779 0.499088 -0.128743
H12   H     H_    0.779982 0.889014 0.488030 0.173273
C27   C     C_R   0.996317 0.871138 0.505041 -0.031109
C28   C     C_R   0.107018 0.937079 0.525814 -0.035821
C29   C     C_3   0.267595 0.945592 0.487756 0.020383
C30   C     C_3   0.259850 0.078187 0.514150 0.254406
H13   H     H_    0.327449 0.883520 0.524052 0.101629
H14   H     H_    0.301617 0.150056 0.458444 0.121250
C31   C     C_R   0.605055 0.552342 0.428233 0.147608
N1    N     N_R   0.648210 0.500930 0.499430 -0.228032
C32   C     C_R   0.546371 0.443688 0.568303 -0.157002
H15   H     H_    0.579557 0.398355 0.623597 0.185625
C33   C     C_R   0.397893 0.445110 0.570219 0.399836
N2    N     N_R   0.352300 0.500890 0.499430 -0.267754
C34   C     C_R   0.458445 0.546021 0.425995 0.059043
C35   C     C_3   0.464102 0.673358 0.384439 0.098969
C36   C     C_3   0.613950 0.686982 0.399596 0.063735
H16   H     H_    0.381376 0.730535 0.425249 0.116437
H17   H     H_    0.613055 0.744677 0.457035 0.066105
N3    N     N_R   0.316292 0.943961 0.389274 0.109145
O9    O     O_R   0.226517 0.923477 0.341293 -0.294731
O10   O     O_R   0.448754 0.977751 0.348489 -0.337386
O11   O     O_3   0.308017 0.090599 0.592265 -0.528735
C37   C     C_3   0.459183 0.109173 0.567953 0.092586
H18   H     H_    0.489920 0.198285 0.528184 0.143658
H19   H     H_    0.515089 0.033765 0.527630 0.132649
C38   C     C_3   0.509845 0.111343 0.653491 -0.720955
H20   H     H_    0.491836 0.019296 0.690050 0.242001
H21   H     H_    0.626348 0.136418 0.636601 0.190606
H22   H     H_    0.449266 0.179951 0.698343 0.294733
N4    N     N_R   0.298549 0.392083 0.650191 0.111013
O12   O     O_R   0.326980 0.402574 0.727487 -0.468623
O13   O     O_R   0.205489 0.307952 0.644821 -0.312400
N5    N     N_R   0.462297 0.674578 0.289400 0.204421
O14   O     O_R   0.449568 0.777807 0.245939 -0.210708
O15   O     O_R   0.495702 0.577336 0.243936 -0.372101
N6    N     N_R   0.731887 0.723283 0.319717 0.192740
O16   O     O_R   0.817924 0.814600 0.322935 -0.324543
O17   O     O_R   0.750726 0.669311 0.244662 -0.310503

loop_
_geom_bond_atom_site_label_1
_geom_bond_atom_site_label_2
_geom_bond_distance
_ccdc_geom_bond_type
C5    C8    1.395250 A    
N3    O10   1.301287 A    
C31   N1    1.364981 A    
C36   H17   1.113035 S    
C38   H20   1.110546 S    
C9    C10   1.411708 A    
Cu2   N1    2.032782 S    
Cu1   Cu2   2.705627 S    
C26   C27   1.407914 A    
N4    O12   1.301230 A    
C6    C21   1.394837 A    
Cu1   O7    1.932700 S    
C16   C17   1.385715 A    
C13   C19   1.428186 A    
C35   N5    1.467850 S    
C18   C19   1.418012 A    
C19   C22   1.412155 A    
O4    C2    1.299479 A    
O7    C4    1.305408 A    
C23   C30   1.498055 S    
C32   C33   1.420597 A    
N1    C32   1.354641 A    
O5    C3    1.305567 A    
C35   H16   1.097943 S    
C30   O11   1.412074 S    
C2    C5    1.477478 S    
C26   H12   1.080426 S    
C31   C36   1.502748 S    
C13   C14   1.413899 A    
C37   H18   1.111697 S    
C25   C26   1.398068 A    
N3    O9    1.302137 A    
C33   N2    1.390053 A    
C38   H21   1.108764 S    
C33   N4    1.430901 S    
O11   C37   1.411314 S    
O3    Cu1   1.949642 S    
C30   H14   1.115711 S    
C28   C29   1.499301 S    
N4    O13   1.296947 A    
C1    C24   1.455725 S    
C29   C30   1.521040 S    
C14   C15   1.386850 A    
O3    C2    1.312678 A    
C25   H11   1.082061 S    
C7    C11   1.401629 A    
C36   N6    1.466983 S    
N2    C34   1.370193 A    
C29   H13   1.111501 S    
C29   N3    1.465280 S    
C22   H2    1.073219 S    
C5    C9    1.403159 A    
C23   C24   1.401182 A    
C35   C36   1.527057 S    
N6    O16   1.300190 A    
Cu2   O8    1.949642 S    
C37   C38   1.522398 S    
C7    C8    1.390641 A    
C7    H5    1.083443 S    
C9    H7    1.074544 S    
C3    C27   1.460999 S    
N5    O15   1.299931 A    
N6    O17   1.298106 A    
O8    C4    1.305961 A    
C38   H22   1.109101 S    
C21   H3    1.073693 S    
Cu1   N2    2.032851 S    
C24   C25   1.408498 A    
Cu1   O5    1.978792 S    
C11   C15   1.391669 A    
O1    Cu1   1.975009 S    
O2    Cu2   1.978790 S    
C10   C12   1.429194 A    
N5    O14   1.299121 A    
O6    C3    1.299878 A    
O4    Cu2   1.932697 S    
C23   C28   1.378092 A    
C17   H4    1.084195 S    
C6    C22   1.398961 A    
C18   C20   1.401107 A    
O2    C1    1.301551 A    
C8    H6    1.071549 S    
C32   H15   1.081475 S    
C20   C21   1.388991 A    
C31   C34   1.420621 A    
C14   H8    1.076763 S    
C4    C6    1.474999 S    
C34   C35   1.488696 S    
C10   C11   1.417565 A    
Cu2   O6    1.975009 S    
C27   C28   1.395015 A    
C12   C16   1.414986 A    
C17   C18   1.389750 A    
C12   C13   1.427991 A    
C20   H10   1.082764 S    
C37   H19   1.113699 S    
O1    C1    1.300838 A    
C16   H9    1.074293 S    
C15   H1    1.084480 S    
