data_mof_unit_36311.cif
_audit_creation_date              2013-03-05T15:45:31-0500
_audit_creation_method            fapswitch 2.2
_symmetry_space_group_name_H-M    P1
_symmetry_Int_Tables_number       1
_space_group_crystal_system       triclinic
_cell_length_a                    9.829832
_cell_length_b                    10.964276
_cell_length_c                    13.488546
_cell_angle_alpha                 94.161665
_cell_angle_beta                  82.417558
_cell_angle_gamma                 111.210875
_cell_volume                      1342.93499127

loop_
_atom_site_label
_atom_site_type_symbol
_atom_site_description
_atom_site_fract_x
_atom_site_fract_y
_atom_site_fract_z
_atom_type_partial_charge
O1    O     O_R   0.426290 0.668220 0.490680 -0.569382
O2    O     O_R   0.659360 0.703290 0.520190 -0.523199
C1    C     C_R   0.557976 0.746068 0.503204 0.873560
O3    O     O_R   0.326580 0.473880 0.629020 -0.600630
O4    O     O_R   0.559660 0.508940 0.658530 -0.583295
C2    C     C_R   0.421457 0.475480 0.689421 0.817408
Cu1   Cu    Cu3+1 0.362000 0.479240 0.482530 1.088855
Cu2   Cu    Cu3+1 0.638000 0.520760 0.517470 1.049975
O5    O     O_R   0.340640 0.296710 0.479810 -0.501771
O6    O     O_R   0.573710 0.331780 0.509320 -0.634402
O7    O     O_R   0.440340 0.491060 0.341470 -0.554087
O8    O     O_R   0.673420 0.526120 0.370980 -0.546481
C3    C     C_R   0.444742 0.253580 0.489963 0.741352
C4    C     C_R   0.577661 0.515628 0.310079 0.858728
C5    C     C_R   0.807411 0.582599 0.057508 0.278510
H1    H     H_    0.840881 0.508107 0.863572 0.204836
C6    C     C_R   0.622344 0.526459 0.201948 -0.207287
C7    C     C_R   0.225715 0.411698 0.832850 -0.237475
C8    C     C_R   0.178006 0.393713 0.934899 0.412320
C9    C     C_R   0.282575 0.418758 0.002367 -0.186491
C10   C     C_R   0.433422 0.447695 0.968587 0.051228
C11   C     C_R   0.476141 0.446529 0.864151 0.078395
C12   C     C_R   0.544746 0.481595 0.034686 0.060753
C13   C     C_R   0.694989 0.522339 0.995060 -0.002513
C14   C     C_R   0.729504 0.496162 0.894269 -0.062583
C15   C     C_R   0.620070 0.449771 0.831682 -0.151978
C16   C     C_R   0.512032 0.476841 0.138517 -0.230565
C17   C     C_R   0.769670 0.587846 0.161668 0.253153
C18   C     C_R   0.374277 0.442513 0.796479 -0.158079
H2    H     H_    0.400705 0.431545 0.172020 0.208335
H3    H     H_    0.146316 0.402078 0.781485 0.196135
H4    H     H_    0.242637 0.415342 0.080655 0.205842
H5    H     H_    0.651703 0.415870 0.758436 0.180736
H6    H     H_    0.646193 0.145064 0.468862 0.165905
C19   C     C_2   0.588867 0.886357 0.503730 -0.324252
C20   C     C_2   0.523251 0.937876 0.446030 0.269841
C21   C     C_2   0.418574 0.112723 0.477654 0.183648
C22   C     C_2   0.535833 0.074292 0.464810 -0.309818
H7    H     H_    0.658198 0.947662 0.558073 0.157177
H8    H     H_    0.123923 0.569970 0.570087 0.152719
H9    H     H_    0.865813 0.414618 0.438813 0.165359
N1    N     N_2   0.845330 0.551960 0.543750 -0.118857
C23   C     C_2   0.919951 0.487138 0.493598 0.080462
N2    N     N_2   0.154690 0.448120 0.456210 -0.074179
C24   C     C_2   0.075135 0.506838 0.509003 0.041955
N3    N     N_R   0.876903 0.666740 0.224805 0.167537
O9    O     O_R   0.862558 0.771267 0.269624 -0.298183
O10   O     O_R   0.976279 0.625272 0.248524 -0.224608
I1    I     I_    0.415077 0.836025 0.320275 -0.056535
N4    N     N_R   0.270433 0.019366 0.481927 0.153378
O11   O     O_R   0.232706 0.912971 0.532183 -0.317125
O12   O     O_R   0.169658 0.045813 0.443778 -0.245338
N5    N     N_R   0.103476 0.375561 0.370889 0.220308
O13   O     O_R   0.128416 0.267618 0.349036 -0.260708
O14   O     O_R   0.068454 0.430307 0.300736 -0.293212
I2    I     I_    0.928688 0.693318 0.653926 -0.098023
N6    N     N_R   0.956277 0.649310 0.014651 0.138849
O15   O     O_R   0.983120 0.730163 0.942395 -0.319261
O16   O     O_R   0.065887 0.634505 0.050171 -0.259433
N7    N     N_R   0.023608 0.352540 0.970155 0.147233
O17   O     O_R   0.926050 0.314889 0.907018 -0.375437
O18   O     O_R   0.978673 0.342806 0.065449 -0.279304

loop_
_geom_bond_atom_site_label_1
_geom_bond_atom_site_label_2
_geom_bond_distance
_ccdc_geom_bond_type
O4    Cu2   1.951138 S    
N4    O12   1.301613 A    
C12   C13   1.419620 A    
C13   C14   1.392083 A    
C21   C22   1.350655 D    
C11   C18   1.428713 A    
C12   C16   1.395428 A    
C8    N7    1.441620 S    
H9    C23   1.083427 S    
C15   H5    1.077144 S    
C3    C21   1.471562 S    
C19   C20   1.341917 D    
C1    C19   1.455759 S    
Cu2   O8    1.962013 S    
C20   C22   1.461510 S    
N4    O11   1.301251 A    
C5    C17   1.407489 A    
Cu1   Cu2   2.683748 S    
C23   C24   1.501828 S    
C7    C18   1.401928 A    
O1    Cu1   1.934559 S    
N5    O13   1.299207 A    
N2    C24   1.297654 D    
C16   H2    1.075739 S    
Cu1   O7    1.951139 S    
C21   N4    1.442022 S    
C5    N6    1.440183 S    
C4    C6    1.467194 S    
C17   N3    1.433469 S    
N6    O15   1.301413 A    
O4    C2    1.290706 A    
O3    Cu1   1.962014 S    
C19   H7    1.087395 S    
C10   C11   1.416358 A    
C5    C13   1.415566 A    
Cu2   N1    2.016128 S    
O2    C1    1.296050 A    
N5    O14   1.300830 A    
C10   C12   1.430246 A    
N7    O18   1.301790 A    
H8    C24   1.081338 S    
O7    C4    1.294814 A    
N3    O10   1.299339 A    
N6    O16   1.300331 A    
O3    C2    1.311677 A    
N1    C23   1.295106 D    
C11   C15   1.413175 A    
C6    C16   1.397939 A    
C2    C18   1.486180 S    
C9    C10   1.417477 A    
Cu2   O6    1.934561 S    
C7    C8    1.398447 A    
C9    H4    1.075327 S    
H1    C14   1.082455 S    
Cu1   O5    1.933388 S    
O5    C3    1.298485 A    
N3    O9    1.301036 A    
C7    H3    1.082974 S    
N1    I2    2.085715 S    
C14   C15   1.382012 A    
H6    C22   1.087342 S    
C6    C17   1.409106 A    
N2    N5    1.393211 S    
Cu1   N2    2.016280 S    
O2    Cu2   1.933386 S    
C20   I1    2.144032 S    
C8    C9    1.402330 A    
O8    C4    1.298484 A    
N7    O17   1.301300 A    
O1    C1    1.292277 A    
O6    C3    1.295689 A    
