data_mof_unit_50535.cif
_audit_creation_date              2012-12-11T15:41:17-0500
_audit_creation_method            fapswitch 2.2
_symmetry_space_group_name_H-M    P1
_symmetry_Int_Tables_number       1
_space_group_crystal_system       triclinic
_cell_length_a                    19.111976
_cell_length_b                    11.10544
_cell_length_c                    18.794758
_cell_angle_alpha                 90.187925
_cell_angle_beta                  90.204047
_cell_angle_gamma                 89.857203
_cell_volume                      3989.07014638

loop_
_atom_site_label
_atom_site_type_symbol
_atom_type_description
_atom_site_fract_x
_atom_site_fract_y
_atom_site_fract_z
_atom_type_partial_charge
C1    C     C_R   0.726416 0.955114 0.853849 0.543223
C2    C     C_R   0.325252 0.382915 0.022958 0.026368
C3    C     C_R   0.762386 0.855598 0.355997 0.554843
C4    C     C_2   0.494011 0.172198 0.919993 -0.137762
C5    C     C_2   0.502185 0.170368 0.077438 -0.132876
C6    C     C_2   0.994012 0.672198 0.919993 -0.137762
C7    C     C_2   0.002186 0.670368 0.077438 -0.132876
C8    C     C_2   0.501696 0.068393 0.037437 0.263750
C9    C     C_2   0.490831 0.069240 0.957996 0.259826
C10   C     C_2   0.001696 0.568393 0.037437 0.263750
C11   C     C_2   0.990831 0.569240 0.957996 0.259827
C12   C     C_R   0.751871 0.390231 0.081337 0.024053
C13   C     C_R   0.182117 0.904501 0.973566 0.042044
C14   C     C_R   0.247646 0.392797 0.919816 0.021994
C15   C     C_R   0.251871 0.890231 0.081337 0.024053
C16   C     C_R   0.747646 0.892797 0.919816 0.021994
C17   C     C_3   0.574038 0.949032 0.104805 -0.105291
C18   C     C_3   0.425845 0.958526 0.876882 -0.097841
C19   C     C_3   0.074036 0.449030 0.104805 -0.105289
C20   C     C_3   0.925845 0.458527 0.876881 -0.097840
C21   C     C_3   0.873705 0.285909 0.069223 -0.351938
C22   C     C_3   0.121582 0.308405 0.937534 -0.349208
C23   C     C_3   0.373705 0.785910 0.069222 -0.351938
C24   C     C_R   0.825252 0.882915 0.022958 0.026368
C25   C     C_3   0.621582 0.808404 0.937533 -0.349209
C26   C     C_3   0.568733 0.502252 0.933567 -0.398106
C27   C     C_3   0.434234 0.492581 0.062391 -0.405969
C28   C     C_3   0.068733 0.002253 0.933567 -0.398106
C29   C     C_3   0.934234 0.992580 0.062391 -0.405969
C30   C     C_R   0.799094 0.332198 0.967252 -0.151858
C31   C     C_R   0.212208 0.293164 0.028600 -0.159933
C32   C     C_R   0.299094 0.832198 0.967252 -0.151858
C33   C     C_R   0.712209 0.793164 0.028600 -0.159934
C34   C     C_R   0.805120 0.332735 0.040386 -0.033774
C35   C     C_R   0.197085 0.326438 0.959552 -0.060940
C36   C     C_R   0.305120 0.832735 0.040386 -0.033775
C37   C     C_R   0.272334 0.951843 0.147832 0.543331
C38   C     C_R   0.697085 0.826437 0.959552 -0.060941
C39   C     C_3   0.633239 0.502965 0.054012 -0.263816
C40   C     C_3   0.350649 0.528160 0.958195 -0.253135
C41   C     C_3   0.133239 0.002964 0.054012 -0.263817
C42   C     C_3   0.850649 0.028160 0.958195 -0.253135
C43   C     C_3   0.637675 0.514583 0.973466 -0.150322
C44   C     C_3   0.358758 0.501531 0.036779 -0.135195
C45   C     C_3   0.137675 0.014583 0.973466 -0.150322
C46   C     C_3   0.858758 0.001530 0.036779 -0.135195
C47   C     C_R   0.740684 0.378727 0.932161 -0.015655
C48   C     C_R   0.226416 0.455114 0.853849 0.543223
C49   C     C_R   0.272879 0.329251 0.063300 -0.010088
C50   C     C_R   0.240684 0.878727 0.932161 -0.015655
C51   C     C_R   0.772879 0.829251 0.063300 -0.010089
C52   C     C_R   0.482979 0.170895 0.431583 0.022517
C53   C     C_R   0.491382 0.170648 0.579368 0.019602
C54   C     C_R   0.982979 0.670895 0.431583 0.022517
C55   C     C_R   0.991382 0.670648 0.579368 0.019602
C56   C     C_R   0.473805 0.276788 0.470209 0.045734
C57   C     C_R   0.477327 0.277761 0.542631 0.029269
C58   C     C_R   0.973805 0.776788 0.470209 0.045734
C59   C     C_R   0.772334 0.451843 0.147832 0.543331
C60   C     C_R   0.977327 0.777761 0.542631 0.029269
C61   C     C_R   0.486429 0.060826 0.542590 -0.171434
C62   C     C_R   0.484361 0.061009 0.468307 -0.166058
C63   C     C_R   0.986429 0.560826 0.542590 -0.171434
C64   C     C_R   0.984361 0.561009 0.468307 -0.166058
C65   C     C_R   0.529219 0.178295 0.850333 0.543701
C66   C     C_R   0.470313 0.177577 0.149078 0.544836
C67   C     C_R   0.029219 0.678295 0.850333 0.543701
C68   C     C_R   0.970313 0.677577 0.149078 0.544835
C69   C     C_3   0.509836 0.394701 0.461940 -0.277071
C70   C     C_R   0.686430 0.405878 0.047821 -0.022462
C71   C     C_3   0.513690 0.398089 0.542017 -0.267050
C72   C     C_3   0.009836 0.894701 0.461940 -0.277071
C73   C     C_3   0.013690 0.898089 0.542017 -0.267050
C74   C     C_R   0.749672 0.412371 0.421579 0.014415
C75   C     C_R   0.249447 0.402319 0.580307 0.016217
C76   C     C_R   0.249672 0.912371 0.421579 0.014415
C77   C     C_R   0.749447 0.902319 0.580307 0.016217
C78   C     C_R   0.786120 0.319393 0.455467 0.019730
C79   C     C_R   0.202350 0.329344 0.542508 0.022748
C80   C     C_R   0.286120 0.819393 0.455467 0.019730
C81   C     C_R   0.313606 0.411333 0.951205 -0.016956
C82   C     C_R   0.702350 0.829344 0.542508 0.022748
C83   C     C_R   0.784473 0.309372 0.528297 0.045408
C84   C     C_R   0.206499 0.319340 0.469887 0.034018
C85   C     C_R   0.284473 0.809372 0.528297 0.045408
C86   C     C_R   0.706499 0.819340 0.469887 0.034018
C87   C     C_R   0.700759 0.470506 0.536511 -0.171685
C88   C     C_R   0.312290 0.435434 0.470046 -0.150982
C89   C     C_R   0.200759 0.970506 0.536511 -0.171685
C90   C     C_R   0.812290 0.935434 0.470046 -0.150982
C91   C     C_R   0.702426 0.481829 0.462292 -0.164522
C92   C     C_R   0.186430 0.905878 0.047821 -0.022462
C93   C     C_R   0.308733 0.444796 0.544462 -0.153625
C94   C     C_R   0.202426 0.981830 0.462292 -0.164522
C95   C     C_R   0.808732 0.944796 0.544462 -0.153625
C96   C     C_3   0.861564 0.282563 0.452971 -0.269425
C97   C     C_3   0.123943 0.330614 0.539494 -0.268729
C98   C     C_3   0.361564 0.782563 0.452971 -0.269425
C99   C     C_3   0.623943 0.830614 0.539494 -0.268729
C100  C     C_3   0.859925 0.276045 0.533261 -0.267953
C101  C     C_3   0.129183 0.319671 0.459605 -0.278229
C102  C     C_3   0.359926 0.776044 0.533261 -0.267953
C103  C     C_R   0.813606 0.911332 0.951205 -0.016955
C104  C     C_3   0.629183 0.819671 0.459605 -0.278229
C105  C     C_R   0.745727 0.388633 0.570486 0.020874
C106  C     C_R   0.257415 0.380590 0.431709 0.017596
C107  C     C_R   0.245727 0.888633 0.570486 0.020874
C108  C     C_R   0.757415 0.880590 0.431709 0.017596
C109  C     C_R   0.735847 0.355466 0.855864 0.537603
C110  C     C_R   0.276256 0.311858 0.140498 0.566057
C111  C     C_R   0.235847 0.855466 0.855864 0.537603
C112  C     C_R   0.776256 0.811858 0.140498 0.566058
C113  C     C_R   0.728082 0.954005 0.648187 0.546879
C114  C     C_R   0.682117 0.404501 0.973566 0.042043
C115  C     C_R   0.272050 0.955938 0.352418 0.551614
C116  C     C_R   0.228082 0.454005 0.648187 0.546879
C117  C     C_R   0.772050 0.455938 0.352418 0.551614
C118  C     C_R   0.528723 0.176797 0.645963 0.542876
C119  C     C_R   0.467352 0.176667 0.356817 0.543381
C120  C     C_R   0.028723 0.676797 0.645963 0.542876
C121  C     C_R   0.967352 0.676667 0.356817 0.543380
C122  C     C_R   0.738775 0.359024 0.645287 0.546181
C123  C     C_R   0.262386 0.355598 0.355997 0.554843
C124  C     C_R   0.238775 0.859024 0.645287 0.546182
Cr1   Cr    Cr6+3 0.769260 0.163750 0.750730 0.998052
Cr2   Cr    Cr6+3 0.385810 0.322400 0.252290 0.993088
Cr3   Cr    Cr6+3 0.114190 0.822400 0.747710 0.994892
Cr4   Cr    Cr6+3 0.885810 0.822400 0.252290 0.993088
Cr5   Cr    Cr6+3 0.230740 0.163750 0.249270 0.989295
Cr6   Cr    Cr6+3 0.269260 0.663750 0.750730 0.998052
Cr7   Cr    Cr6+3 0.730740 0.663750 0.249270 0.989295
Cr8   Cr    Cr6+3 0.612640 0.009910 0.748780 1.008636
Cr9   Cr    Cr6+3 0.387360 0.009910 0.251220 1.009822
Cr10  Cr    Cr6+3 0.112640 0.509910 0.748780 1.008636
Cr11  Cr    Cr6+3 0.887360 0.509910 0.251220 1.009821
Cr12  Cr    Cr6+3 0.614190 0.322400 0.747710 0.994892
H1    H     H_    0.975682 0.965838 0.439231 0.132943
H2    H     H_    0.356268 0.474101 0.442552 0.123954
H3    H     H_    0.166357 0.028112 0.567218 0.120423
H4    H     H_    0.856268 0.974101 0.442552 0.123954
H5    H     H_    0.671402 0.551875 0.437792 0.136431
H6    H     H_    0.349189 0.492280 0.573156 0.117169
H7    H     H_    0.171402 0.051875 0.437792 0.136431
H8    H     H_    0.849189 0.992280 0.573156 0.117169
H9    H     H_    0.896804 0.353753 0.433601 0.162748
H10   H     H_    0.102221 0.418522 0.556285 0.169467
H11   H     H_    0.396804 0.853753 0.433601 0.162748
H12   H     H_    0.068484 0.894603 0.561185 0.175161
H13   H     H_    0.602221 0.918522 0.556285 0.169467
H14   H     H_    0.868849 0.193395 0.427051 0.125739
H15   H     H_    0.100480 0.250245 0.565126 0.127252
H16   H     H_    0.368849 0.693395 0.427051 0.125739
H17   H     H_    0.600480 0.750245 0.565126 0.127252
H18   H     H_    0.868537 0.184368 0.554078 0.135521
H19   H     H_    0.108911 0.232824 0.438774 0.132585
H20   H     H_    0.368537 0.684368 0.554078 0.135521
H21   H     H_    0.608911 0.732824 0.438774 0.132584
H22   H     H_    0.891588 0.346973 0.559789 0.134073
H23   H     H_    0.475682 0.465838 0.439231 0.132943
H24   H     H_    0.110394 0.400926 0.430816 0.137554
H25   H     H_    0.391587 0.846973 0.559789 0.134073
H26   H     H_    0.610394 0.900926 0.430816 0.137554
H27   H     H_    0.514652 0.254945 0.053158 0.038307
H28   H     H_    0.482342 0.256833 0.945241 0.040216
H29   H     H_    0.014653 0.754944 0.053159 0.038307
H30   H     H_    0.982342 0.756833 0.945241 0.040215
H31   H     H_    0.842186 0.295718 0.937387 0.142545
H32   H     H_    0.170521 0.255383 0.058798 0.131678
H33   H     H_    0.342186 0.795718 0.937387 0.142545
H34   H     H_    0.568484 0.394603 0.561185 0.175161
H35   H     H_    0.670521 0.755383 0.058798 0.131679
H36   H     H_    0.151401 0.080149 0.085014 0.151270
H37   H     H_    0.814580 0.103520 0.947506 0.151714
H38   H     H_    0.651402 0.580149 0.085014 0.151270
H39   H     H_    0.314579 0.603521 0.947506 0.151714
H40   H     H_    0.582941 0.466029 0.073579 0.135172
H41   H     H_    0.400239 0.529274 0.927433 0.137756
H42   H     H_    0.082941 0.966029 0.073579 0.135172
H43   H     H_    0.900239 0.029274 0.927433 0.137756
H44   H     H_    0.669284 0.591517 0.955431 0.154865
H45   H     H_    0.561803 0.385490 0.436044 0.140970
H46   H     H_    0.324775 0.558000 0.071119 0.154529
H47   H     H_    0.169284 0.091517 0.955432 0.154865
H48   H     H_    0.824775 0.057999 0.071119 0.154529
H49   H     H_    0.491571 0.976220 0.570392 0.115427
H50   H     H_    0.486868 0.976645 0.439761 0.117788
H51   H     H_    0.991571 0.476220 0.570392 0.115427
H52   H     H_    0.986868 0.476645 0.439761 0.117788
H53   H     H_    0.618020 0.974977 0.069411 0.122037
H54   H     H_    0.581936 0.854464 0.121665 0.145597
H55   H     H_    0.575010 0.005020 0.153840 0.132721
H56   H     H_    0.481229 0.470820 0.565877 0.121398
H57   H     H_    0.435342 0.010903 0.827932 0.128557
H58   H     H_    0.377990 0.994400 0.902921 0.113045
H59   H     H_    0.416931 0.865025 0.858433 0.141745
H60   H     H_    0.118019 0.474984 0.069413 0.122035
H61   H     H_    0.081936 0.354459 0.121660 0.145594
H62   H     H_    0.075006 0.505011 0.153844 0.132726
H63   H     H_    0.935342 0.510904 0.827932 0.128556
H64   H     H_    0.877990 0.494400 0.902921 0.113045
H65   H     H_    0.916931 0.365026 0.858433 0.141745
H66   H     H_    0.906686 0.361681 0.084253 0.250743
H67   H     H_    0.061803 0.885490 0.436044 0.140970
H68   H     H_    0.865550 0.227520 0.116193 0.133725
H69   H     H_    0.904231 0.237216 0.028449 0.128707
H70   H     H_    0.117791 0.253590 0.888162 0.152232
H71   H     H_    0.089111 0.263376 0.978393 0.134261
H72   H     H_    0.098542 0.398282 0.930712 0.238584
H73   H     H_    0.406686 0.861683 0.084253 0.250743
H74   H     H_    0.365551 0.727521 0.116193 0.133726
H75   H     H_    0.404231 0.737217 0.028448 0.128707
H76   H     H_    0.617791 0.753589 0.888161 0.152232
H77   H     H_    0.589111 0.763375 0.978393 0.134261
H78   H     H_    0.981229 0.970820 0.565877 0.121398
H79   H     H_    0.598542 0.898281 0.930711 0.238584
H80   H     H_    0.543774 0.416444 0.946833 0.155119
H81   H     H_    0.533217 0.577434 0.947841 0.117107
H82   H     H_    0.578036 0.506117 0.875440 0.175311
H83   H     H_    0.463617 0.576050 0.051719 0.115933
H84   H     H_    0.435316 0.478621 0.120569 0.188243
H85   H     H_    0.460886 0.418684 0.034559 0.138410
H86   H     H_    0.043774 0.916444 0.946832 0.155119
H87   H     H_    0.033217 0.077435 0.947841 0.117107
H88   H     H_    0.078036 0.006118 0.875440 0.175311
H89   H     H_    0.666357 0.528112 0.567218 0.120423
H90   H     H_    0.963617 0.076049 0.051719 0.115933
H91   H     H_    0.935316 0.978621 0.120569 0.188243
H92   H     H_    0.960886 0.918683 0.034559 0.138411
O1    O     O_R   0.784290 0.290360 0.830540 -0.549851
O2    O     O_R   0.456020 0.282110 0.333230 -0.520114
O3    O     O_R   0.043980 0.782110 0.666770 -0.527106
O4    O     O_R   0.956020 0.782110 0.333230 -0.520114
O5    O     O_R   0.679070 0.374030 0.674430 -0.508975
O6    O     O_R   0.320930 0.374030 0.325570 -0.502954
O7    O     O_R   0.179070 0.874030 0.674430 -0.508975
O8    O     O_R   0.820930 0.874030 0.325570 -0.502954
O9    O     O_3   0.665360 0.165350 0.749070 -0.247294
O10   O     O_3   0.334640 0.165350 0.250930 -0.267961
O11   O     O_3   0.165360 0.665350 0.749070 -0.247295
O12   O     O_R   0.215710 0.290360 0.169460 -0.548885
O13   O     O_3   0.834640 0.665350 0.250930 -0.267961
O14   O     O_R   0.762610 0.041070 0.825230 -0.505718
O15   O     O_R   0.237390 0.041070 0.174770 -0.525414
O16   O     O_R   0.262610 0.541070 0.825230 -0.505718
O17   O     O_R   0.737390 0.541070 0.174770 -0.525414
O18   O     O_R   0.667390 0.924160 0.829970 -0.527417
O19   O     O_R   0.332610 0.924160 0.170030 -0.526639
O20   O     O_R   0.167390 0.424160 0.829970 -0.527418
O21   O     O_R   0.832610 0.424160 0.170030 -0.526639
O22   O     O_R   0.553980 0.081420 0.821780 -0.470724
O23   O     O_R   0.284290 0.790360 0.830540 -0.549851
O24   O     O_R   0.446020 0.081420 0.178220 -0.464158
O25   O     O_R   0.053980 0.581420 0.821780 -0.470724
O26   O     O_R   0.946020 0.581420 0.178220 -0.464160
O27   O     O_R   0.543210 0.283170 0.826740 -0.532648
O28   O     O_R   0.456790 0.283170 0.173260 -0.544132
O29   O     O_R   0.043210 0.783170 0.826740 -0.532647
O30   O     O_R   0.956790 0.783170 0.173260 -0.544131
O31   O     O_R   0.678350 0.375000 0.822720 -0.497940
O32   O     O_R   0.321650 0.375000 0.177280 -0.503251
O33   O     O_R   0.178350 0.875000 0.822720 -0.497940
O34   O     O_R   0.715710 0.790360 0.169460 -0.548885
O35   O     O_R   0.821650 0.875000 0.177280 -0.503251
O36   O     O_R   0.785060 0.289300 0.670580 -0.519540
O37   O     O_R   0.214940 0.289300 0.329420 -0.516455
O38   O     O_R   0.285060 0.789300 0.670580 -0.519540
O39   O     O_R   0.714940 0.789300 0.329420 -0.516455
O40   O     O_R   0.763330 0.040090 0.676940 -0.504335
O41   O     O_R   0.236670 0.040090 0.323060 -0.508520
O42   O     O_R   0.263330 0.540090 0.676940 -0.504335
O43   O     O_R   0.736670 0.540090 0.323060 -0.508520
O44   O     O_R   0.668160 0.923110 0.670000 -0.524306
O45   O     O_R   0.554690 0.080440 0.673480 -0.515685
O46   O     O_R   0.331840 0.923110 0.330000 -0.523763
O47   O     O_R   0.168160 0.423110 0.670000 -0.524306
O48   O     O_R   0.831840 0.423110 0.330000 -0.523763
O49   O     O_3   0.508923 0.956843 0.069382 -0.567102
O50   O     O_3   0.483766 0.958250 0.924069 -0.558840
O51   O     O_3   0.008922 0.456842 0.069381 -0.567102
O52   O     O_3   0.983765 0.458251 0.924068 -0.558840
O53   O     O_R   0.445310 0.080440 0.326520 -0.511592
O54   O     O_R   0.054690 0.580440 0.673480 -0.515685
O55   O     O_R   0.945310 0.580440 0.326520 -0.511592
O56   O     O_R   0.543980 0.282110 0.666770 -0.527107

loop_
_geom_bond_atom_site_label_1
_geom_bond_atom_site_label_2
_ccdc_geom_bond_type
Cr4   O8    S    
C7    C10   D    
C19   O51   S    
C32   H33   S    
C6    H30   S    
C27   H83   S    
C51   C112  S    
C37   O15   A    
C87   C91   A    
Cr5   O10   S    
C26   H82   S    
C97   H10   S    
C11   O52   S    
Cr12  O27   S    
C113  O44   A    
C104  H21   S    
C48   O16   A    
C86   C104  S    
C42   C103  S    
C8    O49   S    
Cr8   O22   S    
C90   C95   A    
C119  O53   A    
C98   H16   S    
Cr6   O23   S    
C17   H55   S    
C110  O32   A    
C96   H9    S    
C99   H13   S    
C45   H47   S    
Cr10  O54   S    
C54   C64   A    
C96   C100  S    
C94   H7    S    
C5    H27   S    
Cr2   O2    S    
C31   C49   A    
C20   H65   S    
Cr1   O1    S    
C1    O18   A    
C117  O48   A    
C43   C114  S    
C104  H26   S    
C79   C84   A    
Cr6   O42   S    
C17   H54   S    
C110  O12   A    
C18   H58   S    
C98   H11   S    
C101  H19   S    
C111  O23   A    
C99   H17   S    
C60   C73   S    
C76   C115  S    
C56   C57   A    
C22   H70   S    
C53   C61   A    
C26   H80   S    
Cr11  O48   S    
Cr10  O11   S    
Cr4   O35   S    
C21   H69   S    
C89   C94   A    
C69   C71   S    
C100  H22   S    
C111  O33   A    
Cr7   O17   S    
C119  O2    A    
C76   C94   A    
C15   C92   A    
C18   O50   S    
C124  O7    A    
C109  O1    A    
C78   C83   A    
C20   H64   S    
C73   H78   S    
C101  H24   S    
C78   C96   S    
C8    C9    S    
C89   H3    S    
C55   C63   A    
C106  C123  S    
C59   O21   A    
Cr10  O47   S    
C16   C38   A    
C4    H28   S    
Cr7   O39   S    
C10   O51   S    
C62   H50   S    
Cr7   O34   S    
Cr2   O10   S    
C24   C51   A    
C120  O54   A    
C99   C104  S    
C7    C68   S    
C10   C11   S    
C19   H60   S    
Cr4   O4    S    
C121  O4    A    
C55   C60   A    
C26   H81   S    
Cr4   O13   S    
C12   C59   S    
C21   H68   S    
Cr6   O16   S    
C107  C124  S    
Cr11  O21   S    
C39   H38   S    
C77   C113  S    
C27   C44   S    
C120  O3    A    
Cr3   O3    S    
C117  O43   A    
C26   C43   S    
C27   H84   S    
C55   C120  S    
C67   O25   A    
C43   H44   S    
C41   H36   S    
C66   O24   A    
Cr6   O11   S    
C27   H85   S    
C3    O39   A    
C30   C34   A    
C73   H12   S    
C22   H72   S    
C20   O52   S    
C41   H42   S    
C25   H79   S    
Cr11  O55   S    
Cr7   O13   S    
C2    C44   S    
C6    C11   D    
C28   C45   S    
C53   C57   A    
C53   C118  S    
C39   H40   S    
C39   C43   S    
C21   C34   S    
C23   H73   S    
C87   H89   S    
C29   H92   S    
C47   C109  S    
C46   H48   S    
C77   C95   A    
C70   C114  A    
C63   C64   A    
Cr4   O30   S    
C74   C91   A    
C109  O31   A    
C116  O47   A    
Cr8   O9    S    
C13   C50   A    
C20   H63   S    
C118  O56   A    
C80   C85   A    
C22   C35   S    
C2    C49   A    
C98   C102  S    
C25   C38   S    
C5    C8    D    
C123  O6    A    
C88   C106  A    
C41   C92   S    
C123  O37   A    
C16   C103  A    
C84   C106  A    
C87   C105  A    
C3    O8    A    
C42   H43   S    
C28   H88   S    
Cr5   O37   S    
C96   H14   S    
Cr12  O5    S    
C89   C107  A    
Cr12  O31   S    
C61   H49   S    
C97   H15   S    
C71   H34   S    
C84   C101  S    
Cr1   O14   S    
C59   O17   A    
C1    C16   S    
C67   O29   A    
C57   C71   S    
C32   C36   A    
Cr9   O24   S    
C32   C50   A    
C64   H52   S    
Cr2   O6    S    
C29   H90   S    
Cr2   O28   S    
Cr9   O19   S    
C72   H67   S    
C30   C47   A    
C28   H86   S    
C72   H1    S    
C54   C121  S    
C66   O28   A    
Cr3   O29   S    
C23   C36   S    
C63   H51   S    
C83   C100  S    
Cr1   O40   S    
C42   C46   S    
C71   H56   S    
C65   O22   A    
C9    O50   S    
C75   C79   A    
Cr9   O10   S    
C29   H91   S    
C12   C34   A    
Cr3   O11   S    
C33   H35   S    
C102  H20   S    
C15   C36   A    
C14   C35   A    
Cr1   O9    S    
C75   C93   A    
C54   C58   A    
C44   H46   S    
C100  H18   S    
C105  C122  S    
C74   C117  S    
C12   C70   A    
C88   C93   A    
C6    C67   S    
C19   H62   S    
Cr9   O46   S    
C80   C98   S    
C18   H59   S    
Cr12  O9    S    
C82   C99   S    
C21   H66   S    
C79   C97   S    
C95   H8    S    
C86   C108  A    
C76   C80   A    
Cr10  O25   S    
C72   C73   S    
C68   O30   A    
C42   H37   S    
C47   C114  A    
Cr8   O44   S    
C40   H39   S    
C90   H4    S    
C115  O41   A    
C23   H74   S    
C3    C108  S    
C33   C51   A    
Cr5   O15   S    
C13   C92   A    
C88   H2    S    
Cr3   O7    S    
C33   C38   A    
C37   O19   A    
C82   C86   A    
Cr2   O32   S    
C29   C46   S    
C40   C81   S    
C24   C103  A    
C17   H53   S    
Cr11  O13   S    
C25   H77   S    
C113  O40   A    
C24   C46   S    
Cr5   O12   S    
C68   O26   A    
C15   C37   S    
C5    C66   S    
C25   H76   S    
C13   C45   S    
C124  O38   A    
C115  O46   A    
C58   C72   S    
C4    C65   S    
C23   H75   S    
C77   C82   A    
Cr10  O20   S    
C28   H87   S    
Cr9   O53   S    
C102  H25   S    
C65   O27   A    
Cr1   O36   S    
C83   C105  A    
C50   C111  S    
C69   H23   S    
C39   C70   S    
C22   H71   S    
C31   C35   A    
Cr11  O26   S    
C7    H29   S    
C61   C62   A    
Cr12  O56   S    
C17   O49   S    
C14   C48   S    
Cr5   O41   S    
C1    O14   A    
C85   C102  S    
C112  O35   A    
C90   C108  A    
C40   H41   S    
Cr6   O38   S    
C52   C119  S    
Cr3   O33   S    
C40   C44   S    
C122  O5    A    
Cr7   O43   S    
C31   H32   S    
C116  O42   A    
Cr8   O45   S    
C48   O20   A    
C56   C69   S    
C74   C78   A    
C112  O34   A    
Cr8   O18   S    
C41   C45   S    
C2    C81   A    
C52   C62   A    
C75   C116  S    
C121  O55   A    
C14   C81   A    
C91   H5    S    
C4    C9    D    
C85   C107  A    
C19   H61   S    
C58   C60   A    
C118  O45   A    
C97   C101  S    
C93   H6    S    
C52   C56   A    
C69   H45   S    
C49   C110  S    
C18   H57   S    
C122  O36   A    
C30   H31   S    
