data_mof_unit_39323.cif
_audit_creation_date              2012-12-10T17:17:31-0500
_audit_creation_method            fapswitch 2.2
_symmetry_space_group_name_H-M    P1
_symmetry_Int_Tables_number       1
_space_group_crystal_system       triclinic
_cell_length_a                    10.207814
_cell_length_b                    10.82308
_cell_length_c                    12.519858
_cell_angle_alpha                 90.870185
_cell_angle_beta                  109.625595
_cell_angle_gamma                 97.272048
_cell_volume                      1289.89406038

loop_
_atom_site_label
_atom_site_type_symbol
_atom_type_description
_atom_site_fract_x
_atom_site_fract_y
_atom_site_fract_z
_atom_type_partial_charge
C1    C     C_R   0.051116 0.732297 0.489685 0.894127
C2    C     C_R   0.224829 0.573359 0.829424 -0.179736
C3    C     C_2   0.070118 0.862532 0.466262 0.011259
C4    C     C_R   0.139470 0.530543 0.710835 0.886611
C5    C     C_2   0.001155 0.937709 0.507100 -0.185726
C6    C     C_2   0.916410 0.134399 0.513032 -0.365697
C7    C     C_2   0.988967 0.063091 0.473131 -0.103793
C8    C     C_2   0.429527 0.525807 0.483529 0.165140
C9    C     C_2   0.566967 0.488362 0.486287 -0.163109
C10   C     C_R   0.946098 0.267390 0.505934 0.938074
C11   C     C_R   0.864215 0.484664 0.287194 0.876570
C12   C     C_R   0.439929 0.554172 0.985405 0.083857
C13   C     C_R   0.783344 0.479421 0.972663 -0.156825
C14   C     C_R   0.788826 0.479043 0.166080 -0.057518
C15   C     C_R   0.163697 0.614617 0.906754 0.153371
C16   C     C_R   0.236907 0.616364 0.022858 -0.147037
C17   C     C_R   0.370191 0.579948 0.062249 -0.215727
C18   C     C_R   0.370971 0.566909 0.869133 0.059962
C19   C     C_R   0.577573 0.521031 0.019482 0.086617
C20   C     C_R   0.647984 0.513312 0.939608 0.172678
C21   C     C_R   0.585345 0.545864 0.829378 -0.219204
C22   C     C_R   0.451141 0.577386 0.796350 -0.149992
C23   C     C_R   0.647810 0.495929 0.130849 -0.241930
C24   C     C_R   0.855743 0.466237 0.086596 -0.174982
H1    H     H_    0.963963 0.449047 0.112534 0.167101
H2    H     H_    0.950472 0.905226 0.567459 0.186522
H3    H     H_    0.835013 0.468154 0.911204 0.166879
H4    H     H_    0.419307 0.582356 0.153213 0.157526
H5    H     H_    0.412477 0.613922 0.714102 0.199225
H6    H     H_    0.849717 0.097113 0.560138 0.171725
H7    H     H_    0.566534 0.408244 0.432952 0.157542
H8    H     H_    0.686975 0.626391 0.598889 0.206924
H9    H     H_    0.324933 0.355222 0.439843 0.160566
H10   H     H_    0.641053 0.549427 0.769320 0.163146
H11   H     H_    0.595359 0.492516 0.192531 0.160588
H12   H     H_    0.190754 0.646899 0.083201 0.184879
H13   H     H_    0.049902 0.102084 0.422355 0.208376
I1    I     I_    0.163961 0.913587 0.341339 -0.313908
I2    I     I_    0.435719 0.721351 0.511213 -0.326253
I3    I     I_    0.979510 0.703019 0.856473 -0.390463
N1    N     N_2   0.313640 0.446500 0.454900 -0.205982
N2    N     N_2   0.686360 0.553430 0.545150 -0.181532
O1    O     O_R   0.936910 0.692950 0.509080 -0.609265
O2    O     O_R   0.138320 0.658600 0.480130 -0.565076
O3    O     O_R   0.002900 0.525670 0.675280 -0.579892
O4    O     O_R   0.204310 0.491320 0.646330 -0.611921
O5    O     O_R   0.861680 0.341400 0.519870 -0.603987
O6    O     O_R   0.063090 0.307050 0.490920 -0.606518
O7    O     O_R   0.795690 0.508680 0.353670 -0.613850
O8    O     O_R   0.997100 0.474330 0.324720 -0.606641
Zn1   Zn    Zn3+2 0.865520 0.522940 0.519330 0.975105
Zn2   Zn    Zn3+2 0.134480 0.477060 0.480670 0.982193

loop_
_geom_bond_atom_site_label_1
_geom_bond_atom_site_label_2
_ccdc_geom_bond_type
C12   C17   A    
C6    C10   S    
O8    Zn2   S    
C24   H1    S    
C6    C7    D    
C11   O7    A    
C8    I2    S    
C2    C18   A    
N1    Zn2   S    
C2    C4    S    
C19   C20   A    
N2    Zn1   S    
C3    C5    D    
H9    N1    S    
O2    Zn2   S    
O7    Zn1   S    
C7    H13   S    
C11   O8    A    
C4    O4    A    
C21   C22   A    
C16   H12   S    
C2    C15   A    
O1    Zn1   S    
C9    N2    D    
C16   C17   A    
C12   C19   A    
C22   H5    S    
C14   C23   A    
C23   H11   S    
C4    O3    A    
C10   O6    A    
C11   C14   S    
C15   I3    S    
C9    H7    S    
C14   C24   A    
C5    H2    S    
O4    Zn2   S    
O6    Zn2   S    
C8    N1    D    
C3    I1    S    
C12   C18   A    
C10   O5    A    
C5    C7    S    
O3    Zn1   S    
C19   C23   A    
C13   H3    S    
H8    N2    S    
C21   H10   S    
C1    O2    A    
C13   C20   A    
C6    H6    S    
C20   C21   A    
C18   C22   A    
C17   H4    S    
C1    O1    A    
O5    Zn1   S    
C15   C16   A    
C13   C24   A    
C8    C9    S    
C1    C3    S    
