data_mof_unit_40599.cif
_audit_creation_date              2012-12-10T18:05:42-0500
_audit_creation_method            fapswitch 2.2
_symmetry_space_group_name_H-M    P1
_symmetry_Int_Tables_number       1
_space_group_crystal_system       triclinic
_cell_length_a                    10.8546
_cell_length_b                    10.856693
_cell_length_c                    9.534938
_cell_angle_alpha                 90.385373
_cell_angle_beta                  90.027504
_cell_angle_gamma                 90.850411
_cell_volume                      1123.49596989

loop_
_atom_site_label
_atom_site_type_symbol
_atom_type_description
_atom_site_fract_x
_atom_site_fract_y
_atom_site_fract_z
_atom_type_partial_charge
C1    C     C_R   0.496256 0.262169 0.499111 0.903245
C2    C     C_R   0.503745 0.737831 0.500889 0.903264
C3    C     C_R   0.871555 0.495197 0.501780 -0.046766
C4    C     C_R   0.128445 0.504794 0.498218 -0.046766
C5    C     C_R   0.938564 0.451092 0.617769 0.065093
C6    C     C_R   0.061437 0.548897 0.382226 0.065090
C7    C     C_R   0.456995 0.058996 0.379195 0.437594
C8    C     C_R   0.543012 0.941004 0.620803 0.437607
C9    C     C_R   0.464182 0.931974 0.382158 -0.155333
C10   C     C_R   0.535824 0.068026 0.617841 -0.155332
C11   C     C_R   0.505164 0.871778 0.502258 -0.159053
C12   C     C_R   0.494841 0.128222 0.497741 -0.159067
C13   C     C_R   0.423036 0.423446 0.074859 -0.051023
C14   C     C_R   0.576963 0.576555 0.925141 -0.051013
C15   C     C_R   0.423457 0.422100 0.926728 0.449039
C16   C     C_R   0.576541 0.577902 0.073272 0.449033
C17   C     C_R   0.262333 0.503052 0.499508 0.843592
C18   C     C_R   0.737667 0.496945 0.500491 0.843575
C19   C     C_R   0.217469 0.780229 0.141135 -0.183773
C20   C     C_R   0.782589 0.219772 0.858907 -0.183761
C21   C     C_R   0.168106 0.727108 0.262682 0.343153
C22   C     C_R   0.831933 0.272883 0.737348 0.343160
C23   C     C_R   0.119797 0.605909 0.257734 0.044587
C24   C     C_R   0.880207 0.394089 0.742266 0.044578
C25   C     C_R   0.120614 0.540308 0.130370 -0.260919
C26   C     C_R   0.879370 0.459711 0.869612 -0.260941
C27   C     C_R   0.169959 0.594092 0.009780 -0.219134
C28   C     C_R   0.830042 0.405936 0.990213 -0.219179
C29   C     C_R   0.219068 0.713628 0.015115 0.411124
C30   C     C_R   0.780971 0.286393 0.984909 0.411119
C31   C     C_R   0.933798 0.542806 0.385412 -0.166029
C32   C     C_R   0.066202 0.457180 0.614583 -0.166036
Cu1   Cu    Cu3+1 0.500000 0.500020 0.640660 1.061106
Cu2   Cu    Cu3+1 0.500000 0.499980 0.359340 1.061104
H1    H     H_    0.253202 0.873786 0.144049 0.222693
H2    H     H_    0.746885 0.126208 0.856018 0.222713
H3    H     H_    0.082860 0.447488 0.124582 0.201074
H4    H     H_    0.917099 0.552536 0.875378 0.201083
H5    H     H_    0.169890 0.542858 0.912186 0.192736
H6    H     H_    0.830097 0.457186 0.087793 0.192744
H7    H     H_    0.882953 0.578977 0.297551 0.196585
H8    H     H_    0.117048 0.421010 0.702444 0.196593
H9    H     H_    0.434886 0.879904 0.290575 0.204731
H10   H     H_    0.565120 0.120097 0.709424 0.204750
H11   H     H_    0.360108 0.363939 0.131316 0.217595
H12   H     H_    0.639891 0.636062 0.868684 0.217594
N1    N     N_R   0.500030 0.500030 0.852070 -0.228152
N2    N     N_R   0.499970 0.499970 0.147930 -0.228152
O1    O     O_R   0.499990 0.319660 0.618740 -0.561077
O2    O     O_R   0.500010 0.680340 0.381260 -0.561077
O3    O     O_R   0.499990 0.319630 0.381170 -0.521435
O4    O     O_R   0.500010 0.680370 0.618830 -0.521433
O5    O     O_R   0.319650 0.500020 0.618780 -0.540315
O6    O     O_R   0.680350 0.499980 0.381220 -0.540311
O7    O     O_R   0.319640 0.500000 0.381210 -0.603404
O8    O     O_R   0.680360 0.500000 0.618790 -0.603401
Cl1   Cl    Cl    0.281241 0.780368 0.863253 -0.482125
Cl2   Cl    Cl    0.718821 0.219666 0.136786 -0.482161
Cl3   Cl    Cl    0.323589 0.316036 0.843722 -0.563327
Cl4   Cl    Cl    0.676405 0.683970 0.156278 -0.563335
Cl5   Cl    Cl    0.164057 0.815539 0.418044 -0.533997
Cl6   Cl    Cl    0.836002 0.184430 0.582008 -0.533958
Cl7   Cl    Cl    0.393076 0.123469 0.227082 -0.518091
Cl8   Cl    Cl    0.606934 0.876531 0.772915 -0.518082

loop_
_geom_bond_atom_site_label_1
_geom_bond_atom_site_label_2
_ccdc_geom_bond_type
C13   N2    A    
C13   H11   S    
Cu2   O2    S    
C14   N1    A    
C18   O8    A    
C22   Cl6   S    
C1    O3    A    
C17   O7    A    
C21   Cl5   S    
C15   N1    A    
C5    C32   A    
C16   N2    A    
Cu1   O8    S    
C28   C30   A    
Cu1   Cu2   S    
C17   O5    A    
Cu2   O7    S    
C14   H12   S    
C31   H7    S    
C19   H1    S    
C20   C30   A    
Cu1   O4    S    
C3    C31   A    
C9    C11   A    
C7    Cl7   S    
Cu2   O3    S    
C4    C32   A    
C5    C24   S    
C2    O4    A    
C8    Cl8   S    
C8    C11   A    
C16   Cl4   S    
C2    C11   S    
C10   C12   A    
C4    C6    A    
C26   C28   A    
C19   C21   A    
C29   Cl1   S    
Cu2   O6    S    
C22   C24   A    
C13   C15   A    
C21   C23   A    
Cu1   O5    S    
C25   C27   A    
Cu1   N1    S    
C14   C16   A    
C7    C12   A    
C9    H9    S    
C27   C29   A    
C28   H6    S    
C10   H10   S    
C32   H8    S    
C19   C29   A    
C30   Cl2   S    
C23   C25   A    
Cu2   N2    S    
C3    C18   S    
C8    C10   A    
C1    O1    A    
Cu1   O1    S    
C27   H5    S    
C7    C9    A    
C18   O6    A    
C26   H4    S    
C20   H2    S    
C6    C31   A    
C2    O2    A    
C25   H3    S    
C6    C23   S    
C15   Cl3   S    
C1    C12   S    
C24   C26   A    
C20   C22   A    
C3    C5    A    
C4    C17   S    
