data_mof_unit_6330.cif
_audit_creation_date              2012-12-10T18:00:45-0500
_audit_creation_method            fapswitch 2.2
_symmetry_space_group_name_H-M    P1
_symmetry_Int_Tables_number       1
_space_group_crystal_system       triclinic
_cell_length_a                    15.856184
_cell_length_b                    10.816226
_cell_length_c                    9.515534
_cell_angle_alpha                 90.352358
_cell_angle_beta                  90.111381
_cell_angle_gamma                 90.225102
_cell_volume                      1631.90619025

loop_
_atom_site_label
_atom_site_type_symbol
_atom_type_description
_atom_site_fract_x
_atom_site_fract_y
_atom_site_fract_z
_atom_type_partial_charge
C1    C     C_R   0.502687 0.262353 0.499366 0.784691
C2    C     C_R   0.497278 0.737726 0.500745 0.791072
C3    C     C_R   0.545508 0.931967 0.401763 -0.240953
C4    C     C_R   0.454045 0.068441 0.598393 -0.240061
C5    C     C_R   0.495968 0.871681 0.501938 -0.065999
C6    C     C_R   0.503773 0.128527 0.498475 -0.070428
C7    C     C_R   0.445402 0.426302 0.073691 -0.021479
C8    C     C_R   0.554452 0.573938 0.926296 -0.031640
C9    C     C_R   0.445523 0.426159 0.924859 -0.025751
C10   C     C_R   0.554470 0.573850 0.075139 -0.029887
C11   C     C_R   0.339740 0.499135 0.499845 0.822287
C12   C     C_R   0.660287 0.500124 0.500144 0.821233
C13   C     C_3   0.971807 0.406169 0.578816 -0.157650
C14   C     C_3   0.028405 0.594693 0.421986 -0.161079
C15   C     C_3   0.027522 0.392945 0.446144 -0.159577
C16   C     C_3   0.972655 0.607918 0.554649 -0.162388
C17   C     C_1   0.249990 0.499136 0.499610 -0.185680
C18   C     C_1   0.750091 0.500420 0.500434 -0.191821
C19   C     C_3   0.028534 0.513319 0.632780 -0.163236
C20   C     C_3   0.971684 0.487549 0.368005 -0.158747
C21   C     C_3   0.082705 0.500074 0.500101 0.195452
C22   C     C_3   0.917469 0.500747 0.500660 0.197351
C23   C     C_1   0.174399 0.499470 0.499713 -0.086897
C24   C     C_1   0.825717 0.500673 0.500630 -0.083195
C25   C     C_R   0.550706 0.060226 0.398884 0.088886
C26   C     C_R   0.448430 0.940105 0.601156 0.095019
Cu1   Cu    Cu3+1 0.500000 0.500020 0.640660 0.931470
Cu2   Cu    Cu3+1 0.500000 0.499980 0.359340 0.931007
H1    H     H_    0.051404 0.304709 0.401599 0.124274
H2    H     H_    0.948805 0.696165 0.599210 0.125539
H3    H     H_    0.947226 0.328793 0.643205 0.125583
H4    H     H_    0.053052 0.672075 0.357675 0.125909
H5    H     H_    0.947005 0.476998 0.259317 0.126081
H6    H     H_    0.053326 0.523979 0.741390 0.127100
H7    H     H_    0.582113 0.878455 0.326971 0.144145
H8    H     H_    0.417159 0.122659 0.672089 0.140103
H9    H     H_    0.401786 0.367080 0.129213 0.114361
H10   H     H_    0.597957 0.633334 0.870759 0.121842
H11   H     H_    0.402036 0.366746 0.868186 0.116021
H12   H     H_    0.598023 0.633154 0.131823 0.118464
N1    N     N_R   0.500020 0.500030 0.852070 -0.156536
N2    N     N_R   0.499980 0.499970 0.147930 -0.154353
O1    O     O_R   0.500000 0.319660 0.618740 -0.585370
O2    O     O_R   0.500000 0.680340 0.381260 -0.585077
O3    O     O_R   0.499990 0.319630 0.381170 -0.583405
O4    O     O_R   0.500010 0.680370 0.618830 -0.586866
O5    O     O_R   0.379080 0.500000 0.618760 -0.578258
O6    O     O_R   0.620920 0.500000 0.381240 -0.584120
O7    O     O_R   0.379080 0.499970 0.381190 -0.577637
O8    O     O_R   0.620920 0.500030 0.618810 -0.573971
C27   C     C_3   0.609010 0.119067 0.292075 -0.392040
C28   C     C_3   0.565704 0.127403 0.148069 -0.320603
C29   C     C_3   0.619685 0.199016 0.043595 -0.826248
H13   H     H_    0.630419 0.295046 0.081877 0.264947
H14   H     H_    0.681424 0.152620 0.028752 0.242894
H15   H     H_    0.586763 0.202972 0.940588 0.245186
H16   H     H_    0.554147 0.032733 0.105898 0.204341
H17   H     H_    0.503802 0.174226 0.158545 0.229146
H18   H     H_    0.630906 0.211635 0.327895 0.206337
H19   H     H_    0.667202 0.062608 0.281877 0.176657
C30   C     C_3   0.388293 0.881623 0.705930 -0.405391
C31   C     C_3   0.309783 0.828807 0.632188 -0.325538
C32   C     C_3   0.250989 0.765744 0.736643 -0.841454
H20   H     H_    0.283305 0.686388 0.786762 0.266292
H21   H     H_    0.230817 0.832319 0.819196 0.243669
H22   H     H_    0.194025 0.730886 0.680835 0.241771
H23   H     H_    0.275144 0.905000 0.579866 0.210120
H24   H     H_    0.328037 0.760612 0.550351 0.209964
H25   H     H_    0.420611 0.810107 0.768906 0.224435
H26   H     H_    0.366912 0.951775 0.783960 0.179686

loop_
_geom_bond_atom_site_label_1
_geom_bond_atom_site_label_2
_ccdc_geom_bond_type
C30   H26   S    
C12   O8    A    
C32   H21   S    
C31   C32   S    
C11   O7    A    
Cu1   O1    S    
C5    C26   A    
C10   N2    A    
Cu2   O7    S    
Cu1   N1    S    
C11   O5    A    
C30   C31   S    
Cu2   O6    S    
Cu1   O8    S    
C31   H24   S    
C12   O6    A    
C3    H7    S    
C7    C9    A    
C25   C27   S    
C7    H9    S    
C32   H22   S    
C14   H4    S    
C29   H13   S    
C8    N1    A    
C1    O3    A    
C17   C23   T    
C28   H17   S    
C31   H23   S    
C16   C19   S    
C18   C24   T    
C20   H5    S    
C14   C21   S    
Cu2   N2    S    
C19   C21   S    
C26   C30   S    
C20   C22   S    
C13   C22   S    
C15   H1    S    
C14   C16   S    
C29   H14   S    
C13   C15   S    
C15   C20   S    
C22   C24   S    
Cu2   O3    S    
C29   H15   S    
C6    C25   A    
C4    C26   A    
C28   H16   S    
C13   C19   S    
C16   H2    S    
C12   C18   S    
C1    C6    S    
C2    C5    S    
C14   C20   S    
C15   C21   S    
C3    C25   A    
C27   H18   S    
C28   C29   S    
Cu1   O4    S    
Cu2   O2    S    
C8    C10   A    
C4    C6    A    
C7    N2    A    
C30   H25   S    
Cu1   Cu2   S    
Cu1   O5    S    
C13   H3    S    
C11   C17   S    
C10   H12   S    
C16   C22   S    
C27   H19   S    
C9    N1    A    
C21   C23   S    
C1    O1    A    
C9    H11   S    
C2    O4    A    
C27   C28   S    
C4    H8    S    
C2    O2    A    
C32   H20   S    
C3    C5    A    
C19   H6    S    
C8    H10   S    
