data_mof_unit_60548.cif
_audit_creation_date              2013-03-05T15:50:17-0500
_audit_creation_method            fapswitch 2.2
_symmetry_space_group_name_H-M    P1
_symmetry_Int_Tables_number       1
_space_group_crystal_system       triclinic
_cell_length_a                    8.303755
_cell_length_b                    14.326418
_cell_length_c                    17.475006
_cell_angle_alpha                 93.68597
_cell_angle_beta                  95.911268
_cell_angle_gamma                 90.999698
_cell_volume                      2062.94179732

loop_
_atom_site_label
_atom_site_type_symbol
_atom_site_description
_atom_site_fract_x
_atom_site_fract_y
_atom_site_fract_z
_atom_type_partial_charge
P1    P     P_3+3 0.940740 0.713140 0.550990 0.584771
O1    O     O_2   0.110000 0.727700 0.527600 -0.340291
O2    O     O_3   0.867340 0.611500 0.534090 -0.254200
O3    O     O_3   0.340010 0.670810 0.392610 -0.289115
O4    O     O_2   0.227179 0.834964 0.435669 -0.358144
O5    O     O_3   0.994955 0.737595 0.650080 -0.648285
O6    O     O_3   0.285300 0.813896 0.292268 -0.461439
H1    H     H_    0.455385 0.717434 0.258200 0.052370
C1    C     C_3   0.326355 0.775647 0.160959 -0.624927
H2    H     H_    0.229085 0.720633 0.154747 0.256254
H3    H     H_    0.273943 0.842973 0.143842 0.296355
P2    P     P_3+3 0.347910 0.426910 0.329700 0.528211
P3    P     P_3+3 0.891075 0.619669 0.256009 0.619086
O7    O     O_2   0.172060 0.454990 0.316770 -0.288293
O8    O     O_3   0.924740 0.623930 0.356360 -0.346801
O9    O     O_2   0.025371 0.559998 0.223768 -0.320150
O10   O     O_3   0.335342 0.305121 0.312283 -0.528486
O11   O     O_3   0.927326 0.731949 0.226532 -0.469535
C2    C     C_3   0.868165 0.797599 0.279489 0.410605
H4    H     H_    0.947700 0.801392 0.334885 0.059331
H5    H     H_    0.743176 0.778587 0.290990 -0.287578
C3    C     C_3   0.866680 0.894429 0.247668 0.936087
C4    C     C_3   0.764531 0.331657 0.311130 1.001627
H6    H     H_    0.650065 0.346451 0.336027 -0.019417
C5    C     C_3   0.727927 0.299716 0.226053 -0.013181
H7    H     H_    0.667405 0.355829 0.194017 0.077655
H8    H     H_    0.842599 0.283695 0.200870 0.165815
Ba1   Ba    Ba6+2 0.148060 0.545480 0.461240 1.746211
C6    C     C_3   0.864614 0.732757 0.695555 0.575130
H9    H     H_    0.753532 0.701193 0.662819 0.112978
C7    C     C_3   0.833452 0.832865 0.728695 0.796017
H10   H     H_    0.951297 0.870712 0.746004 0.011229
C8    C     C_3   0.295365 0.263189 0.378069 0.379764
H11   H     H_    0.180150 0.290858 0.395369 0.077110
H12   H     H_    0.393045 0.275785 0.426191 0.115262
C9    C     C_3   0.274921 0.158151 0.358844 -0.776685
H13   H     H_    0.172021 0.143582 0.313537 0.278083
H14   H     H_    0.250822 0.121655 0.410567 0.178670
H15   H     H_    0.387094 0.129932 0.337709 0.305891
P4    P     P_3+3 0.869550 0.286850 0.448950 0.570250
O12   O     O_2   0.700300 0.272240 0.472380 -0.338054
O13   O     O_3   0.942950 0.388490 0.465850 -0.337211
O14   O     O_3   0.470280 0.329180 0.607330 -0.368011
O15   O     O_3   0.846656 0.260754 0.348983 -0.564802
P5    P     P_3+3 0.912796 0.381989 0.745323 0.727635
O16   O     O_3   0.377250 0.547380 0.588690 -0.311396
O17   O     O_3   0.885550 0.376060 0.643580 -0.350374
O18   O     O_2   0.770889 0.437076 0.774844 -0.207973
O19   O     O_3   0.888404 0.270434 0.779469 -0.474647
Ba2   Ba    Ba6+2 0.662110 0.454510 0.538700 1.791230
P6    P     P_3+3 0.355302 0.791448 0.386907 0.572148
C10   C     C_3   0.403094 0.785990 0.243995 0.332321
H16   H     H_    0.499987 0.840896 0.248722 0.096067
H17   H     H_    0.419513 0.755150 0.122182 0.216681
O20   O     O_3   0.433040 0.452610 0.411250 -0.393624
C11   C     C_3   0.365186 0.752226 0.670148 0.855109
H18   H     H_    0.261909 0.706188 0.647766 0.109123
C12   C     C_3   0.310481 0.825471 0.729277 -0.792102
H19   H     H_    0.414732 0.871049 0.754340 0.308336
H20   H     H_    0.218386 0.871428 0.700871 0.192130
H21   H     H_    0.256069 0.790613 0.776326 0.242722
P7    P     P_3+3 0.460828 0.581174 0.684443 0.603575
O21   O     O_2   0.638240 0.544950 0.683210 -0.281632
O22   O     O_3   0.493700 0.701999 0.703918 -0.568119
H22   H     H_    0.811851 0.944739 0.287900 -0.070112
C13   C     C_3   0.903762 0.201706 0.719693 1.094754
H23   H     H_    0.811007 0.209790 0.670334 0.064071
C14   C     C_3   0.881277 0.105163 0.749135 -0.744100
H24   H     H_    0.893030 0.050853 0.701873 0.219832
H25   H     H_    0.975124 0.094218 0.797606 0.253928
H26   H     H_    0.759816 0.097612 0.769492 0.283175
P8    P     P_3+3 0.450885 0.207518 0.608543 0.463721
C15   C     C_3   0.429559 0.237017 0.755010 0.858369
H27   H     H_    0.317578 0.268784 0.728950 -0.058960
O23   O     O_2   0.581930 0.163228 0.561963 -0.382359
O24   O     O_3   0.503936 0.176721 0.702963 -0.628613
C16   C     C_3   0.385715 0.181890 0.822137 1.259694
H28   H     H_    0.306391 0.120522 0.800042 -0.132725
C17   C     C_R   0.008640 0.939613 0.538628 -0.063086
C18   C     C_R   0.818783 0.803604 0.498885 0.061799
C19   C     C_R   0.670516 0.772104 0.458950 0.504091
C20   C     C_R   0.561976 0.834197 0.424139 0.076190
C21   C     C_R   0.606579 0.928117 0.422775 -0.308200
C22   C     C_R   0.757494 0.962365 0.458913 -0.111076
C23   C     C_R   0.863056 0.901135 0.499773 -0.095475
C24   C     C_R   0.944871 0.097214 0.496250 -0.213798
C25   C     C_R   0.051415 0.035265 0.536042 -0.014757
C26   C     C_R   0.989242 0.195396 0.499407 0.256267
C27   C     C_R   0.138436 0.225918 0.537790 -0.416942
C28   C     C_R   0.248202 0.163156 0.569469 0.269189
C29   C     C_R   0.203554 0.068828 0.570940 -0.185132
C30   C     C_R   0.800812 0.057724 0.455190 0.796168
H29   H     H_    0.521190 0.974526 0.394620 0.218578
H30   H     H_    0.288505 0.021518 0.598364 0.173517
H31   H     H_    0.173609 0.299186 0.539485 0.154726
H32   H     H_    0.091059 0.895608 0.570893 0.173289
C31   C     C_R   0.594137 0.536556 0.277605 -0.478373
C32   C     C_R   0.448402 0.487250 0.255912 0.233480
C33   C     C_R   0.389793 0.475753 0.177330 -0.234961
C34   C     C_R   0.478154 0.512249 0.120851 -0.139292
C35   C     C_R   0.628873 0.558576 0.143429 0.342682
C36   C     C_R   0.687783 0.569190 0.222133 0.147211
C37   C     C_R   0.409711 0.527139 0.836438 0.372388
C38   C     C_R   0.349963 0.526231 0.757711 0.001810
C39   C     C_R   0.106755 0.441611 0.784037 0.007685
C40   C     C_R   0.167536 0.439991 0.861959 0.713501
C41   C     C_R   0.316482 0.485280 0.889134 -0.339715
C42   C     C_1   0.369980 0.491671 0.971381 0.343136
C43   C     C_1   0.416772 0.499716 0.039691 0.160942
C44   C     C_R   0.193672 0.489933 0.733984 0.055214
H33   H     H_    0.277480 0.436824 0.160155 0.200930
H34   H     H_    0.639932 0.544367 0.337946 0.233056
Cl1   Cl    Cl    0.599476 0.197664 0.214147 -0.460342
Cl2   Cl    Cl    0.931150 0.660528 0.772957 -0.538050
Cl3   Cl    Cl    0.724997 0.833926 0.812596 -0.443010
F1    F     F_    0.747075 0.882563 0.673332 -0.700064
Cl4   Cl    Cl    0.434761 0.811833 0.593184 -0.610704
F2    F     F_    0.055716 0.207059 0.695131 -0.805587
F3    F     F_    0.536662 0.309027 0.783010 -0.643849
F4    F     F_    0.303861 0.238242 0.871603 -0.665030
F5    F     F_    0.525089 0.150697 0.862295 -0.613640
F6    F     F_    0.626577 0.680492 0.458030 -0.667005
F7    F     F_    0.702976 0.109284 0.408453 -0.675593
Cl5   Cl    Cl    0.593901 0.586560 0.870102 -0.379787
Cl6   Cl    Cl    0.744227 0.601850 0.073373 -0.452038
F8    F     F_    0.079684 0.397215 0.911644 -0.581807
Cl7   Cl    Cl    0.093331 0.520679 0.646010 -0.500743
F9    F     F_    0.023031 0.924863 0.240603 -0.631381
Cl8   Cl    Cl    0.751071 0.892450 0.155656 -0.467055
F10   F     F_    0.860691 0.411795 0.316862 -0.707396

loop_
_geom_bond_atom_site_label_1
_geom_bond_atom_site_label_2
_geom_bond_distance
_ccdc_geom_bond_type
C13   C14   1.521451 S    
C6    Cl2   1.803205 S    
C35   C36   1.409239 A    
C15   F3    1.381345 S    
C25   C29   1.407665 A    
C11   Cl4   1.778319 S    
O12   Ba2   2.824528 S    
C2    H4    1.111998 S    
P8    O24   1.749828 S    
C16   F4    1.382542 S    
C17   C25   1.414336 A    
C19   C20   1.399401 A    
C28   C29   1.397605 A    
C16   H28   1.113403 S    
C11   H18   1.096108 S    
Ba1   O16   2.774955 S    
C18   C23   1.437310 A    
P3    O11   1.750727 S    
P2    Ba1   3.362348 S    
C9    H13   1.110726 S    
C2    H5    1.109920 S    
C39   C44   1.398452 A    
O6    C10   1.403000 S    
O11   C2    1.407188 S    
C24   C26   1.443968 A    
C40   C41   1.409826 A    
C12   H20   1.116296 S    
C21   H29   1.083305 S    
C8    C9    1.523315 S    
C42   C43   1.214256 T    
P1    O1    1.518241 D    
C15   H27   1.110552 S    
P7    O22   1.753642 S    
Ba1   Ba2   4.580620 S    
O2    Ba2   2.808382 S    
C7    H10   1.114665 S    
C14   H24   1.110701 S    
P2    O10   1.751199 S    
P1    Ba1   3.377722 S    
C35   Cl6   1.766072 S    
C4    H6    1.103639 S    
C11   O22   1.398754 S    
C1    H2    1.110888 S    
H1    C10   1.113033 S    
P2    C32   1.856365 S    
C31   C36   1.401358 A    
C44   Cl7   1.757205 S    
C12   H21   1.118469 S    
P4    O13   1.567068 S    
C13   H23   1.108942 S    
C34   C43   1.455582 S    
Ba2   O21   2.790458 S    
C1    C10   1.520578 S    
O10   C8    1.397535 S    
P8    O23   1.545760 D    
C37   Cl5   1.764903 S    
C7    Cl3   1.797368 S    
O3    Ba1   2.788111 S    
Ba1   O20   2.918809 S    
P5    C39   1.853256 S    
C31   C32   1.395842 A    
O17   Ba2   2.775232 S    
P7    C38   1.858364 S    
P5    O17   1.765386 S    
O19   C13   1.405873 S    
O3    P6    1.740756 S    
P1    O5    1.754924 S    
C2    C3    1.527139 S    
C22   C23   1.423417 A    
C30   F7    1.354434 S    
C31   H34   1.081557 S    
C24   C25   1.426176 A    
C12   H19   1.110403 S    
C4    O15   1.397159 S    
C4    F10   1.379307 S    
P1    O2    1.567069 S    
C27   H31   1.082360 S    
C3    H22   1.110544 S    
C6    H9    1.107270 S    
C5    Cl1   1.783052 S    
P8    C28   1.836549 S    
C3    F9    1.382433 S    
C21   C22   1.409143 A    
P5    O19   1.757127 S    
C41   C42   1.456575 S    
C33   H33   1.083320 S    
P7    O21   1.572211 D    
C8    H11   1.105097 S    
C1    H3    1.110938 S    
P6    C20   1.850871 S    
O13   Ba2   2.913290 S    
P4    O12   1.518523 D    
O16   P7    1.777877 S    
C32   C33   1.407182 A    
P3    O8    1.744071 S    
C3    Cl8   1.784094 S    
C15   O24   1.410023 S    
C7    F1    1.385941 S    
C17   C23   1.409213 A    
C10   H16   1.108511 S    
P5    O18   1.543639 D    
O14   P8    1.749298 S    
O16   Ba2   2.917962 S    
O2    Ba1   2.912442 S    
C9    H15   1.110070 S    
P2    O7    1.519651 D    
C18   C19   1.403431 A    
C37   C41   1.417233 A    
P3    C36   1.849211 S    
O14   Ba2   2.787508 S    
C5    H8    1.110860 S    
C39   C40   1.404416 A    
C40   F8    1.358247 S    
Ba2   O20   2.774355 S    
C33   C34   1.409951 A    
C19   F6    1.354748 S    
P4    C26   1.869595 S    
C9    H14   1.106672 S    
C5    H7    1.107359 S    
O6    P6    1.747382 S    
C17   H32   1.079348 S    
C6    C7    1.547992 S    
C24   C30   1.418906 A    
C29   H30   1.084188 S    
C38   C44   1.401605 A    
O8    Ba1   2.774625 S    
C14   H26   1.109302 S    
P4    Ba2   3.378290 S    
Ba1   O13   2.807789 S    
C34   C35   1.413554 A    
C8    H12   1.110185 S    
C11   C12   1.532649 S    
C4    C5    1.525345 S    
P2    O20   1.543406 S    
C16   F5    1.386605 S    
P4    O15   1.752935 S    
O5    C6    1.410441 S    
C26   C27   1.395758 A    
C14   H25   1.111182 S    
C20   C21   1.391676 A    
C13   F2    1.376457 S    
P3    O9    1.546784 D    
C37   C38   1.412765 A    
P1    C18   1.882000 S    
C15   C16   1.526233 S    
O4    P6    1.545390 D    
O1    Ba1   2.823952 S    
C1    H17   1.110913 S    
C22   C30   1.413897 A    
O7    Ba1   2.790318 S    
C27   C28   1.390825 A    
