data_mof_unit_30721.cif
_audit_creation_date              2012-12-10T17:44:23-0500
_audit_creation_method            fapswitch 2.2
_symmetry_space_group_name_H-M    P1
_symmetry_Int_Tables_number       1
_space_group_crystal_system       triclinic
_cell_length_a                    13.834979
_cell_length_b                    15.083939
_cell_length_c                    17.101476
_cell_angle_alpha                 86.878614
_cell_angle_beta                  83.253614
_cell_angle_gamma                 90.848068
_cell_volume                      3538.06045083

loop_
_atom_site_label
_atom_site_type_symbol
_atom_type_description
_atom_site_fract_x
_atom_site_fract_y
_atom_site_fract_z
_atom_type_partial_charge
C1    C     C_R   0.500547 0.671296 0.499628 0.786410
C2    C     C_R   0.499453 0.328703 0.500372 0.786410
C3    C     C_R   0.585915 0.186529 0.503316 -0.226618
C4    C     C_R   0.414085 0.813471 0.496684 -0.226619
C5    C     C_R   0.498885 0.231836 0.500274 -0.079864
C6    C     C_R   0.501115 0.768163 0.499726 -0.079864
C7    C     C_R   0.411770 0.184701 0.497009 -0.262606
C8    C     C_R   0.588230 0.815298 0.502991 -0.262606
C9    C     C_R   0.410287 0.091753 0.496194 0.089776
C10   C     C_R   0.589713 0.908247 0.503806 0.089776
C11   C     C_R   0.499167 0.046509 0.499859 0.020181
C12   C     C_R   0.500833 0.953491 0.500141 0.020181
C13   C     C_R   0.586650 0.094389 0.503364 0.084726
C14   C     C_R   0.413350 0.905611 0.496636 0.084726
C15   C     C_R   0.322783 0.042669 0.492328 0.153735
C16   C     C_R   0.677217 0.957331 0.507672 0.153736
C17   C     C_R   0.325861 0.949954 0.492849 -0.256851
C18   C     C_R   0.674139 0.050046 0.507151 -0.256851
C19   C     C_R   0.214839 0.557549 0.450105 -0.028872
C20   C     C_R   0.785161 0.442451 0.549895 -0.028872
C21   C     C_R   0.196666 0.442680 0.552761 0.288469
C22   C     C_R   0.803333 0.557320 0.447238 0.288468
C23   C     C_R   0.485274 0.501061 0.650055 0.776706
C24   C     C_R   0.514726 0.498939 0.349945 0.776706
C25   C     C_R   0.093429 0.439151 0.550890 0.001162
C26   C     C_R   0.906570 0.560849 0.449110 0.001162
C27   C     C_R   0.051656 0.499551 0.500156 0.061078
C28   C     C_R   0.948344 0.500449 0.499844 0.061078
C29   C     C_R   0.112784 0.559535 0.450129 -0.000866
C30   C     C_R   0.887215 0.440465 0.549871 -0.000866
C31   C     C_R   0.030193 0.377767 0.599042 -0.205174
C32   C     C_R   0.969806 0.622233 0.400958 -0.205174
C33   C     C_R   0.929292 0.379115 0.598856 -0.210611
C34   C     C_R   0.070708 0.620885 0.401144 -0.210611
C35   C     C_R   0.473251 0.507760 0.735085 -0.060816
C36   C     C_R   0.526749 0.492240 0.264915 -0.060816
C37   C     C_R   0.439584 0.432589 0.782512 -0.245264
C38   C     C_R   0.560416 0.567411 0.217488 -0.245264
C39   C     C_R   0.431614 0.434683 0.864052 -0.181827
C40   C     C_R   0.568385 0.565317 0.135948 -0.181827
C41   C     C_R   0.457334 0.512045 0.898542 0.138985
C42   C     C_R   0.542666 0.487955 0.101458 0.138985
C43   C     C_R   0.488359 0.588462 0.851712 -0.172799
C44   C     C_R   0.511641 0.411538 0.148288 -0.172799
C45   C     C_R   0.496640 0.587745 0.768974 0.132038
C46   C     C_R   0.503360 0.412254 0.231026 0.132038
C47   C     C_2   0.458401 0.511218 0.984500 0.041835
C48   C     C_2   0.541599 0.488782 0.015499 0.041835
Cu1   Cu    Cu3+1 0.402580 0.500010 0.500000 0.919261
Cu2   Cu    Cu3+1 0.597420 0.499990 0.500000 0.919261
H1    H     H_    0.421840 0.371595 0.756163 0.135436
H2    H     H_    0.578159 0.628405 0.243837 0.135436
H3    H     H_    0.056466 0.327652 0.638188 0.151130
H4    H     H_    0.943534 0.672347 0.361812 0.151130
H5    H     H_    0.507557 0.646959 0.880833 0.143990
H6    H     H_    0.492444 0.353041 0.119167 0.143990
H7    H     H_    0.592034 0.624523 0.099633 0.136755
H8    H     H_    0.407966 0.375477 0.900366 0.136755
H9    H     H_    0.653527 0.222934 0.506003 0.154046
H10   H     H_    0.346473 0.777066 0.493997 0.154046
H11   H     H_    0.345680 0.221511 0.495083 0.168074
H12   H     H_    0.654320 0.778489 0.504917 0.168074
H13   H     H_    0.259433 0.911879 0.489691 0.139621
H14   H     H_    0.740567 0.088120 0.510309 0.139621
N1    N     N_R   0.256180 0.500070 0.500030 -0.198614
N2    N     N_R   0.743820 0.499930 0.499970 -0.198614
O1    O     O_R   0.417720 0.629750 0.499980 -0.580482
O2    O     O_R   0.582280 0.370250 0.500020 -0.580482
O3    O     O_R   0.582260 0.629730 0.499990 -0.613278
O4    O     O_R   0.417740 0.370270 0.500010 -0.613277
O5    O     O_R   0.408190 0.500030 0.613590 -0.581939
O6    O     O_R   0.591810 0.499970 0.386410 -0.581938
O7    O     O_R   0.572730 0.500000 0.613600 -0.580680
O8    O     O_R   0.427270 0.500000 0.386400 -0.580680
H15   H     H_    0.261482 0.602997 0.410824 0.136807
H16   H     H_    0.738518 0.397003 0.589176 0.136807
C49   C     C_3   0.237094 0.385371 0.617124 -0.364026
C50   C     C_3   0.211340 0.421956 0.698730 -0.846320
H17   H     H_    0.242541 0.489990 0.700083 0.275807
H18   H     H_    0.131631 0.424873 0.715172 0.245313
H19   H     H_    0.241530 0.378404 0.743914 0.234332
H20   H     H_    0.210850 0.315596 0.616770 0.145565
H21   H     H_    0.315160 0.377753 0.608900 0.256358
C51   C     C_3   0.762906 0.614628 0.382876 -0.364027
C52   C     C_3   0.788659 0.578044 0.301270 -0.846319
H22   H     H_    0.868369 0.575127 0.284828 0.245313
H23   H     H_    0.757459 0.510010 0.299916 0.275807
H24   H     H_    0.758470 0.621596 0.256086 0.234332
H25   H     H_    0.684840 0.622247 0.391100 0.256359
H26   H     H_    0.789150 0.684403 0.383230 0.145565
H27   H     H_    0.884054 0.331628 0.637249 0.134020
H28   H     H_    0.115946 0.668372 0.362751 0.134020
C53   C     C_3   0.470676 0.330382 0.284447 -0.385699
C54   C     C_3   0.453730 0.245340 0.242795 -0.870529
H29   H     H_    0.392880 0.253593 0.206231 0.247958
H30   H     H_    0.521076 0.227342 0.205586 0.254312
H31   H     H_    0.433910 0.190013 0.287635 0.253783
H32   H     H_    0.527124 0.316408 0.324386 0.200030
H33   H     H_    0.401972 0.345121 0.321507 0.217520
C55   C     C_3   0.529325 0.669618 0.715553 -0.385699
C56   C     C_3   0.546271 0.754660 0.757205 -0.870529
H34   H     H_    0.478925 0.772658 0.794414 0.254312
H35   H     H_    0.607120 0.746406 0.793770 0.247958
H36   H     H_    0.566090 0.809987 0.712365 0.253783
H37   H     H_    0.598028 0.654878 0.678493 0.217520
H38   H     H_    0.472876 0.683592 0.675613 0.200030
C57   C     C_3   0.633231 0.464615 0.962852 -0.393739
C58   C     C_3   0.719708 0.440057 0.007268 -0.828667
H39   H     H_    0.741744 0.496868 0.040378 0.256144
H40   H     H_    0.700901 0.381395 0.048674 0.254102
H41   H     H_    0.782498 0.423185 0.964451 0.237064
H42   H     H_    0.616180 0.407153 0.928456 0.207909
H43   H     H_    0.656162 0.521784 0.920677 0.207108
C59   C     C_3   0.366768 0.535385 0.037148 -0.393739
C60   C     C_3   0.280291 0.559943 0.992732 -0.828667
H44   H     H_    0.299099 0.618604 0.951326 0.254103
H45   H     H_    0.258256 0.503132 0.959622 0.256143
H46   H     H_    0.217501 0.576814 0.035549 0.237063
H47   H     H_    0.343838 0.478216 0.079323 0.207108
H48   H     H_    0.383819 0.592847 0.071544 0.207909
C61   C     C_3   0.225181 0.085966 0.487421 -0.410680
C62   C     C_3   0.216986 0.125059 0.404203 -0.832493
H49   H     H_    0.144625 0.155501 0.402526 0.240923
H50   H     H_    0.273949 0.176976 0.385777 0.252634
H51   H     H_    0.224367 0.071863 0.361585 0.252400
H52   H     H_    0.164712 0.036429 0.503051 0.198261
H53   H     H_    0.212837 0.137605 0.531155 0.187550
C63   C     C_3   0.774819 0.914033 0.512579 -0.410680
C64   C     C_3   0.783014 0.874940 0.595797 -0.832493
H54   H     H_    0.726051 0.823024 0.614223 0.252634
H55   H     H_    0.855375 0.844499 0.597474 0.240923
H56   H     H_    0.775633 0.928137 0.638415 0.252400
H57   H     H_    0.787163 0.862394 0.468845 0.187550
H58   H     H_    0.835288 0.963570 0.496948 0.198261

loop_
_geom_bond_atom_site_label_1
_geom_bond_atom_site_label_2
_ccdc_geom_bond_type
C25   C31   A    
C47   C59   S    
C26   C32   A    
C53   C54   S    
C27   C29   A    
C3    H9    S    
C57   H42   S    
C24   O8    A    
C63   C64   S    
C59   C60   S    
C19   H15   S    
C39   C41   A    
C20   C30   A    
C49   C50   S    
C55   H37   S    
C24   C36   S    
C51   H26   S    
C13   C18   A    
C57   H43   S    
C20   N2    A    
C35   C37   A    
Cu2   O3    S    
C61   H53   S    
C2    O2    A    
C33   H27   S    
C37   H1    S    
C50   H18   S    
C48   C57   S    
C38   H2    S    
C49   H21   S    
C60   H44   S    
C58   H39   S    
C20   H16   S    
C7    C9    A    
Cu2   O6    S    
C22   N2    A    
C7    H11   S    
C8    H12   S    
C60   H45   S    
C57   C58   S    
C31   C33   A    
C36   C46   A    
Cu1   O1    S    
C53   H33   S    
C59   H47   S    
C3    C13   A    
C64   H56   S    
C40   C42   A    
C56   H35   S    
C41   C43   A    
C14   C17   A    
C42   C44   A    
C23   O7    A    
C10   C12   A    
C32   H4    S    
C44   C46   A    
C52   H23   S    
C1    C6    S    
C56   H34   S    
C23   O5    A    
C51   C52   S    
C4    C6    A    
Cu2   O7    S    
C5    C7    A    
C50   H17   S    
C6    C8    A    
C54   H31   S    
C52   H22   S    
C39   H8    S    
C29   C34   A    
C1    O3    A    
C22   C51   S    
C63   H58   S    
C9    C11   A    
C44   H6    S    
C47   C48   D    
C60   H46   S    
C4    H10   S    
C41   C47   S    
C16   C18   A    
C42   C48   S    
C31   H3    S    
C54   H30   S    
C43   C45   A    
Cu2   N2    S    
C61   C62   S    
Cu1   N1    S    
C43   H5    S    
C12   C14   A    
C56   H36   S    
C23   C35   S    
Cu1   O4    S    
C22   C26   A    
C2    C5    S    
C51   H25   S    
C62   H50   S    
C35   C45   A    
C24   O6    A    
C64   H54   S    
C52   H24   S    
C15   C17   A    
C21   C25   A    
C40   H7    S    
C15   C61   S    
C30   C33   A    
C21   N1    A    
C55   H38   S    
C3    C5    A    
C45   C55   S    
C11   C12   A    
C25   C27   A    
C26   C28   A    
C58   H41   S    
C62   H51   S    
C36   C38   A    
C9    C15   A    
C61   H52   S    
C37   C39   A    
C10   C16   A    
C63   H57   S    
C17   H13   S    
C38   C40   A    
C11   C13   A    
C50   H19   S    
C18   H14   S    
C46   C53   S    
C49   H20   S    
C28   C30   A    
C55   C56   S    
C1    O1    A    
C58   H40   S    
C19   N1    A    
C16   C63   S    
C4    C14   A    
C54   H29   S    
C34   H28   S    
C8    C10   A    
Cu1   Cu2   S    
Cu1   O5    S    
C21   C49   S    
C27   C28   A    
Cu1   O8    S    
C62   H49   S    
C2    O4    A    
Cu2   O2    S    
C53   H32   S    
C59   H48   S    
C32   C34   A    
C64   H55   S    
C19   C29   A    
