data_mof_unit_5654.cif
_audit_creation_date              2012-12-11T15:21:40-0500
_audit_creation_method            fapswitch 2.2
_symmetry_space_group_name_H-M    P1
_symmetry_Int_Tables_number       1
_space_group_crystal_system       triclinic
_cell_length_a                    19.192101
_cell_length_b                    7.283711
_cell_length_c                    18.023785
_cell_angle_alpha                 89.137318
_cell_angle_beta                  108.17485
_cell_angle_gamma                 89.941258
_cell_volume                      2393.52284745

loop_
_atom_site_label
_atom_site_type_symbol
_atom_type_description
_atom_site_fract_x
_atom_site_fract_y
_atom_site_fract_z
_atom_type_partial_charge
O1    O     O_R   0.562310 0.505770 0.439670 -0.513203
O2    O     O_R   0.437690 0.005770 0.560330 -0.509132
O3    O     O_R   0.411650 0.169150 0.405330 -0.544829
O4    O     O_R   0.588350 0.669150 0.594670 -0.540690
C1    C     C_R   0.382730 0.346137 0.385276 0.821448
C2    C     C_R   0.614867 0.845311 0.618084 0.808646
O5    O     O_R   0.560140 0.175610 0.430010 -0.534384
O6    O     O_R   0.439860 0.675610 0.569990 -0.521468
O7    O     O_R   0.587240 0.012100 0.585200 -0.510321
O8    O     O_R   0.412760 0.512100 0.414800 -0.517154
C3    C     C_R   0.580401 0.346074 0.414085 0.744696
C4    C     C_R   0.420723 0.845412 0.586766 0.745718
O9    O     O_3   0.508720 0.341420 0.550890 -0.357695
O10   O     O_3   0.491280 0.841420 0.449110 -0.380350
V1    V     V_3+5 0.498380 0.063930 0.490560 1.624352
V2    V     V_3+5 0.501620 0.563930 0.509440 1.651089
C5    C     C_R   0.195816 0.048178 0.883581 0.237819
C6    C     C_R   0.797808 0.341990 0.102060 0.183807
C7    C     C_R   0.136854 0.922027 0.872843 -0.116163
C8    C     C_R   0.868817 0.415828 0.132360 -0.132106
C9    C     C_R   0.130423 0.778725 0.820472 -0.096801
C10   C     C_R   0.891542 0.481989 0.208568 -0.109233
C11   C     C_R   0.180203 0.755511 0.778295 0.024519
C12   C     C_R   0.847509 0.460606 0.257829 -0.004007
C13   C     C_R   0.236842 0.885026 0.786056 -0.009438
C14   C     C_R   0.774116 0.403070 0.225156 -0.043856
C15   C     C_R   0.244116 0.034815 0.837705 0.027596
C16   C     C_R   0.747028 0.358923 0.144754 0.008527
C17   C     C_R   0.175096 0.602672 0.729704 0.256265
C18   C     C_R   0.874544 0.500369 0.338224 0.232142
C19   C     C_R   0.223605 0.584070 0.685583 0.277989
C20   C     C_R   0.829981 0.472791 0.386792 0.268606
C21   C     C_R   0.275503 0.724355 0.686117 -0.002959
C22   C     C_R   0.756213 0.411881 0.354503 -0.020785
C23   C     C_R   0.285147 0.867566 0.740537 -0.055490
C24   C     C_R   0.727475 0.392968 0.272504 -0.089616
C25   C     C_R   0.341870 0.996541 0.748273 -0.049494
C26   C     C_R   0.651429 0.369683 0.237684 -0.072383
C27   C     C_R   0.355775 0.124207 0.809025 0.300065
C28   C     C_R   0.623200 0.339979 0.156361 0.281196
C29   C     C_R   0.302991 0.159907 0.845565 0.247890
C30   C     C_R   0.670466 0.334016 0.110163 0.257314
C31   C     C_R   0.315664 0.729240 0.631639 0.202339
C32   C     C_R   0.709685 0.366263 0.400656 0.177219
C33   C     C_R   0.372918 0.857369 0.639022 -0.151694
C34   C     C_R   0.632219 0.360330 0.365505 -0.170635
C35   C     C_R   0.380943 0.001205 0.693329 0.315792
C36   C     C_R   0.605288 0.395157 0.284426 0.301029
H1    H     H_    0.085608 0.684142 0.813545 0.196592
H2    H     H_    0.945268 0.542594 0.229624 0.210105
C37   C     C_3   0.751955 0.802574 0.843758 0.281862
C38   C     C_3   0.247142 0.304427 0.164555 0.261446
C39   C     C_3   0.684011 0.749383 0.767620 0.297310
C40   C     C_3   0.312803 0.249289 0.241579 0.381207
H3    H     H_    0.838521 0.665241 0.766280 0.179317
H4    H     H_    0.164361 0.142890 0.241064 0.139183
C41   C     C_3   0.827020 0.809039 0.746720 0.094595
C42   C     C_3   0.169672 0.287041 0.258027 0.107793
C43   C     C_3   0.775397 0.106150 0.782703 0.041794
C44   C     C_3   0.213458 0.597871 0.223448 0.038449
C45   C     C_3   0.811129 0.915519 0.815684 -0.215781
C46   C     C_3   0.183938 0.405739 0.189655 -0.219673
H5    H     H_    0.764168 0.182279 0.830514 0.140417
H6    H     H_    0.220205 0.683588 0.174704 0.163607
C47   C     C_3   0.686609 0.867171 0.691076 -0.215011
C48   C     C_3   0.308420 0.366461 0.315312 -0.270157
C49   C     C_3   0.758738 0.807752 0.670594 0.421759
C50   C     C_3   0.236104 0.302449 0.336537 0.390418
C51   C     C_3   0.699445 0.079073 0.714837 0.326033
C52   C     C_3   0.291910 0.577429 0.287813 0.379246
O11   O     O_R   0.087220 0.271820 0.085230 -0.536174
O12   O     O_R   0.912780 0.771820 0.914770 -0.529841
O13   O     O_R   0.939860 0.595540 0.069990 -0.527514
O14   O     O_R   0.060140 0.095540 0.930010 -0.525207
C53   C     C_R   0.919363 0.426108 0.084543 0.719613
C54   C     C_R   0.083366 0.928290 0.918071 0.712738
O15   O     O_R   0.088340 0.601930 0.094680 -0.528034
O16   O     O_R   0.911660 0.101930 0.905320 -0.522058
O17   O     O_R   0.062310 0.765410 0.939660 -0.544412
O18   O     O_R   0.937690 0.265410 0.060340 -0.542056
C55   C     C_R   0.114248 0.429910 0.118093 0.791519
C56   C     C_R   0.883282 0.933362 0.884592 0.844376
O19   O     O_3   0.991270 0.429630 0.949130 -0.367399
O20   O     O_3   0.008730 0.929630 0.050870 -0.374366
V3    V     V_3+5 0.001620 0.707150 0.009440 1.554111
V4    V     V_3+5 0.998380 0.207150 0.990560 1.563847
N1    N     N_3   0.214281 0.173980 0.947118 -0.617354
H7    H     H_    0.262502 0.124236 0.987622 0.253409
H8    H     H_    0.175863 0.185544 0.976063 0.260390
N2    N     N_3   0.779404 0.237351 0.031801 -0.598068
H9    H     H_    0.812445 0.119623 0.042278 0.253082
H10   H     H_    0.790140 0.314570 0.987428 0.222566
N3    N     N_3   0.729114 0.914270 0.900259 -0.635505
H11   H     H_    0.703830 0.832981 0.932653 0.298534
H12   H     H_    0.691001 0.014911 0.874532 0.301321
N4    N     N_3   0.272837 0.430588 0.113876 -0.558078
H13   H     H_    0.228181 0.475927 0.067164 0.225553
H14   H     H_    0.306490 0.360699 0.087841 0.321482
Br1   Br    Br    0.588105 0.761434 0.787976 -0.409741
Br2   Br    Br    0.408742 0.261904 0.224196 -0.360344
N5    N     N_3   0.690218 0.555044 0.752151 -0.638614
H15   H     H_    0.685528 0.478345 0.799513 0.287486
H16   H     H_    0.643518 0.518619 0.708009 0.299463
N6    N     N_3   0.309754 0.051973 0.256226 -0.642397
H17   H     H_    0.355939 0.007211 0.299840 0.304649
H18   H     H_    0.263118 0.003780 0.266668 0.239598
Br3   Br    Br    0.751610 0.576151 0.621819 -0.427190
Br4   Br    Br    0.250881 0.086505 0.403381 -0.479877
Br5   Br    Br    0.847894 0.273448 0.760132 -0.408149
Br6   Br    Br    0.136089 0.742318 0.249063 -0.438332
Br7   Br    Br    0.615882 0.170664 0.746260 -0.461851
Br8   Br    Br    0.364046 0.675068 0.240603 -0.399919
N7    N     N_3   0.696765 0.189507 0.645235 -0.605244
H19   H     H_    0.661495 0.302063 0.634994 0.292030
H20   H     H_    0.746239 0.222856 0.637951 0.336844
N8    N     N_3   0.298824 0.689649 0.357011 -0.626745
H21   H     H_    0.252353 0.757810 0.357413 0.319461
H22   H     H_    0.342074 0.782155 0.370040 0.267475
Br9   Br    Br    0.921038 0.869375 0.729986 -0.298296
Br10  Br    Br    0.070975 0.309298 0.267201 -0.345100
Br11  Br    Br    0.776158 0.928478 0.580771 -0.386584
Br12  Br    Br    0.204925 0.451457 0.409028 -0.289721
Br13  Br    Br    0.102713 0.413179 0.724259 -0.327264
Br14  Br    Br    0.973802 0.588763 0.383502 -0.246595
Br15  Br    Br    0.222507 0.352872 0.633121 -0.331916
Br16  Br    Br    0.869445 0.547810 0.494416 -0.201570
N9    N     N_3   0.286753 0.632850 0.559892 -0.514025
H23   H     H_    0.308729 0.678590 0.516950 0.248828
H24   H     H_    0.231815 0.673976 0.537381 0.297583
N10   N     N_3   0.741719 0.320008 0.481541 -0.524935
H25   H     H_    0.703247 0.257665 0.503346 0.240744
H26   H     H_    0.781344 0.219354 0.484714 0.297646
Br17  Br    Br    0.422687 0.234599 0.675537 -0.309784
Br18  Br    Br    0.537420 0.594864 0.252072 -0.316772
Br19  Br    Br    0.453707 0.213827 0.859390 -0.198142
Br20  Br    Br    0.520791 0.285532 0.107878 -0.227854
Br21  Br    Br    0.312123 0.396144 0.896368 -0.410401
Br22  Br    Br    0.626290 0.325293 0.997939 -0.307979
N11   N     N_3   0.786676 0.636643 0.888956 -0.639488
H27   H     H_    0.806034 0.542045 0.857250 0.259066
H28   H     H_    0.750582 0.569982 0.913276 0.246317
N12   N     N_3   0.219404 0.138983 0.117987 -0.686682
H29   H     H_    0.190636 0.049470 0.143149 0.251587
H30   H     H_    0.263240 0.064254 0.110554 0.283578

loop_
_geom_bond_atom_site_label_1
_geom_bond_atom_site_label_2
_ccdc_geom_bond_type
C42   C46   S    
C48   C50   S    
N1    H7    S    
N3    H11   S    
C30   Br22  S    
N11   H28   S    
O1    C3    A    
C54   O17   A    
O2    C4    A    
C2    O7    A    
N6    H18   S    
O12   V3    S    
C27   C29   A    
C27   Br19  S    
C14   C16   A    
C39   Br1   S    
O5    C3    A    
C28   Br20  S    
C51   N7    S    
N5    H15   S    
O14   C54   A    
C11   C17   A    
C36   Br18  S    
C7    C54   S    
C7    C9    A    
C12   C14   A    
C45   C56   S    
C8    C10   A    
C32   N10   S    
N8    H21   S    
C6    C8    A    
C44   C46   S    
C20   Br16  S    
C15   C29   A    
N3    H12   S    
O18   V4    S    
C21   C23   A    
C2    C47   S    
C32   C34   A    
C47   C49   S    
N4    H14   S    
C19   C21   A    
C44   C52   S    
H4    C42   S    
C25   C35   A    
C39   C47   S    
C53   O18   A    
C29   Br21  S    
C41   Br9   S    
O16   V4    S    
C28   C30   A    
O15   V3    S    
O6    V2    S    
C35   Br17  S    
O13   C53   A    
C40   Br2   S    
C41   C49   S    
C49   Br11  S    
C9    H1    S    
N6    H17   S    
C38   C40   S    
C33   C35   A    
C34   C36   A    
C43   C45   S    
C5    C15   A    
C6    C16   A    
O20   V3    S    
O4    C2    A    
C31   N9    S    
C4    C33   S    
O5    V1    S    
C52   N8    S    
C38   N12   S    
C43   Br5   S    
C8    C53   S    
C37   C39   S    
C6    N2    S    
O4    V2    S    
N10   H26   S    
N9    H24   S    
C18   C20   A    
O11   V4    S    
O16   C56   A    
N2    H10   S    
O15   C55   A    
O6    C4    A    
N4    H13   S    
C42   Br10  S    
C22   C32   A    
O1    V2    S    
O14   V4    S    
O2    V1    S    
C31   C33   A    
O13   V3    S    
C52   Br8   S    
C13   C23   A    
C14   C24   A    
C46   C55   S    
C37   N3    S    
C9    C11   A    
C10   C12   A    
C43   H5    S    
C19   Br15  S    
C50   Br12  S    
N9    H23   S    
O17   V3    S    
O3    V1    S    
N7    H19   S    
N5    H16   S    
C43   C51   S    
C42   C50   S    
C23   C25   A    
C5    N1    S    
C26   C36   A    
C18   Br14  S    
C1    C48   S    
O3    C1    A    
N11   H27   S    
C41   C45   S    
C40   C48   S    
C13   C15   A    
C40   N6    S    
C39   N5    S    
C10   H2    S    
C44   H6    S    
H3    C41   S    
N10   H25   S    
O7    V1    S    
C1    O8    A    
C25   C27   A    
O8    V2    S    
C24   C26   A    
C26   C28   A    
C37   C45   S    
C51   Br7   S    
C49   Br3   S    
N2    H9    S    
C48   C52   S    
C47   C51   S    
C17   Br13  S    
C16   C30   A    
C5    C7    A    
C22   C24   A    
N8    H22   S    
C38   N4    S    
N12   H30   S    
C11   C13   A    
C12   C18   A    
C44   Br6   S    
O19   V4    S    
C17   C19   A    
O9    V2    S    
N12   H29   S    
N1    H8    S    
O10   V1    S    
C3    C34   S    
C38   C46   S    
C50   Br4   S    
N7    H20   S    
C21   C31   A    
O12   C56   A    
C20   C22   A    
O11   C55   A    
C37   N11   S    
