data_mof_unit_59905.cif
_audit_creation_date              2013-03-05T15:55:53-0500
_audit_creation_method            fapswitch 2.2
_symmetry_space_group_name_H-M    P1
_symmetry_Int_Tables_number       1
_space_group_crystal_system       triclinic
_cell_length_a                    12.323837
_cell_length_b                    13.166665
_cell_length_c                    15.887149
_cell_angle_alpha                 77.912289
_cell_angle_beta                  101.001037
_cell_angle_gamma                 116.530726
_cell_volume                      2241.31620618

loop_
_atom_site_label
_atom_site_type_symbol
_atom_site_description
_atom_site_fract_x
_atom_site_fract_y
_atom_site_fract_z
_atom_type_partial_charge
O1    O     O_R   0.972510 0.318130 0.524770 -0.586850
O2    O     O_R   0.806530 0.359650 0.491510 -0.605338
C1    C     C_R   0.854878 0.286559 0.507357 0.793278
O3    O     O_R   0.082970 0.479240 0.637550 -0.552359
O4    O     O_R   0.916990 0.520750 0.604290 -0.588042
C2    C     C_R   0.999181 0.499555 0.659734 0.825676
Cu1   Cu    Cu3+1 0.098270 0.475420 0.519690 0.982202
Cu2   Cu    Cu3+1 0.901730 0.524580 0.480310 0.966739
O5    O     O_R   0.193470 0.640350 0.508490 -0.589114
O6    O     O_R   0.027490 0.681870 0.475230 -0.586944
O7    O     O_R   0.083010 0.479250 0.395710 -0.570866
O8    O     O_R   0.917030 0.520760 0.362450 -0.573469
C3    C     C_R   0.145042 0.713432 0.487698 0.804021
C4    C     C_R   0.000483 0.499989 0.340279 0.804196
C5    C     C_3   0.012249 0.404500 0.046266 -0.203394
C6    C     C_3   0.906407 0.401417 0.975490 0.183958
C7    C     C_1   0.997538 0.498720 0.748951 -0.055548
C8    C     C_1   0.000505 0.498726 0.251160 -0.096474
C9    C     C_3   0.101852 0.501583 0.986943 0.287759
C10   C     C_3   0.996355 0.497242 0.915777 -0.115969
C11   C     C_3   0.089908 0.593994 0.025962 -0.268646
C12   C     C_3   0.997710 0.495871 0.084555 -0.066400
C13   C     C_3   0.981845 0.588172 0.954807 -0.167451
C14   C     C_3   0.891799 0.491495 0.013986 0.257189
C15   C     C_1   0.996677 0.497920 0.824264 0.202238
C16   C     C_1   0.999512 0.497458 0.175925 0.159724
H1    H     H_    0.166702 0.673034 0.046742 0.209608
C17   C     C_R   0.274841 0.022775 0.388384 -0.139598
H2    H     H_    0.094082 0.888014 0.390753 0.164573
H3    H     H_    0.455796 0.219787 0.335675 0.171319
H4    H     H_    0.243921 0.081846 0.344335 0.152315
C18   C     C_R   0.227862 0.834752 0.470782 -0.047886
C19   C     C_R   0.815445 0.084836 0.562285 -0.146318
C20   C     C_R   0.736648 0.969893 0.579015 -0.100103
C21   C     C_R   0.613186 0.932461 0.549636 -0.147079
C22   C     C_R   0.566228 0.009550 0.499417 0.100631
C23   C     C_R   0.649600 0.124033 0.473891 0.087814
C24   C     C_R   0.439528 0.976512 0.472753 0.093698
C25   C     C_R   0.399559 0.054340 0.415117 0.156560
C26   C     C_R   0.484575 0.161565 0.382816 -0.197293
C27   C     C_R   0.607783 0.195137 0.410380 -0.173246
C28   C     C_R   0.350927 0.868449 0.502018 -0.199115
C29   C     C_R   0.189286 0.913024 0.415595 -0.158704
C30   C     C_R   0.772881 0.163516 0.511831 -0.089990
H5    H     H_    0.375059 0.807557 0.548547 0.155371
H6    H     H_    0.909563 0.112549 0.590727 0.168983
H7    H     H_    0.557791 0.842149 0.565797 0.135388
H8    H     H_    0.770809 0.909797 0.617389 0.163133
H9    H     H_    0.669514 0.276449 0.379112 0.187522
C31   C     C_R   0.329730 0.307113 0.622569 0.265743
H10   H     H_    0.152113 0.291691 0.634931 0.164265
N1    N     N_R   0.246280 0.438200 0.549540 -0.210909
C32   C     C_R   0.762111 0.648715 0.386095 0.048906
C33   C     C_R   0.667123 0.683542 0.362130 -0.091593
C34   C     C_R   0.562443 0.625720 0.405805 -0.218955
C35   C     C_R   0.552050 0.534308 0.473511 -0.000808
C36   C     C_R   0.652083 0.503652 0.495200 0.232050
C37   C     C_R   0.446251 0.472169 0.520045 -0.092000
C38   C     C_R   0.440161 0.376921 0.584636 -0.074130
C39   C     C_R   0.544801 0.355244 0.609994 0.277753
C40   C     C_R   0.645978 0.416269 0.564392 -0.235451
C41   C     C_R   0.345353 0.500695 0.505107 0.046607
C42   C     C_R   0.236412 0.343185 0.606134 0.026545
N2    N     N_R   0.754330 0.561180 0.450980 -0.209602
H11   H     H_    0.342915 0.572090 0.458574 0.134756
H12   H     H_    0.843808 0.692170 0.353442 0.166184
H13   H     H_    0.490243 0.653320 0.385333 0.180212
H14   H     H_    0.720754 0.394944 0.588187 0.229128
N3    N     N_R   0.804853 0.296615 0.950531 0.186591
O9    O     O_R   0.734844 0.223764 0.007933 -0.262556
O10   O     O_R   0.783854 0.274992 0.871355 -0.258345
N4    N     N_R   0.556142 0.280126 0.687636 0.176199
O11   O     O_R   0.607122 0.212100 0.688178 -0.293419
O12   O     O_R   0.536324 0.294572 0.760915 -0.224211
N5    N     N_R   0.304893 0.194436 0.669198 0.154612
O13   O     O_R   0.323101 0.121931 0.635708 -0.311320
O14   O     O_R   0.242392 0.157023 0.735352 -0.284498
C43   C     C_2   0.029832 0.301257 0.094569 0.984863
O15   O     O_2   0.040228 0.236871 0.054545 -0.502996
O16   O     O_R   0.034218 0.279065 0.184769 -0.755584
H15   H     H_    0.046463 0.206998 0.209741 0.342466
C44   C     C_2   0.677216 0.780550 0.291895 0.887261
O17   O     O_2   0.768009 0.829825 0.253240 -0.563402
O18   O     O_R   0.582992 0.816323 0.269784 -0.747496
H16   H     H_    0.600817 0.883330 0.221235 0.366397
N6    N     N_R   0.774471 0.484765 0.026431 0.175044
O19   O     O_R   0.692815 0.480558 0.960295 -0.244746
O20   O     O_R   0.750445 0.482517 0.103189 -0.304949
C45   C     C_2   0.963722 0.691111 0.906490 0.974891
O21   O     O_2   0.954123 0.755871 0.946589 -0.514359
O22   O     O_R   0.957762 0.712576 0.816206 -0.747891
H17   H     H_    0.945190 0.784482 0.791254 0.351265
N7    N     N_R   0.218760 0.507412 0.974471 0.168983
O23   O     O_R   0.300769 0.512379 0.040481 -0.284669
O24   O     O_R   0.241966 0.507692 0.897928 -0.294537

loop_
_geom_bond_atom_site_label_1
_geom_bond_atom_site_label_2
_geom_bond_distance
_ccdc_geom_bond_type
C37   C41   1.418038 A    
C34   C35   1.412347 A    
N7    O23   1.300258 A    
C19   H6    1.083330 S    
C4    C8    1.419482 S    
C3    C18   1.460815 S    
C21   C22   1.418108 A    
C8    C16   1.196523 T    
C21   H7    1.076925 S    
Cu1   Cu2   2.707344 S    
C32   C33   1.400673 A    
C5    C9    1.540520 S    
C31   C38   1.422562 A    
C22   C23   1.418339 A    
C9    C11   1.548262 S    
Cu1   N1    2.040422 S    
C24   C28   1.400590 A    
C24   C25   1.420196 A    
C32   N2    1.357050 A    
C43   O16   1.396789 S    
C5    C43   1.498849 S    
C10   C15   1.452791 S    
C39   N4    1.437376 S    
C5    C6    1.542538 S    
C35   C36   1.423228 A    
C20   C21   1.389677 A    
N3    O10   1.300080 A    
O5    C3    1.302269 A    
C5    C12   1.545999 S    
C9    C10   1.539998 S    
C13   C14   1.539726 S    
C13   C45   1.498461 S    
C45   O22   1.396857 S    
C9    N7    1.457650 S    
C6    C10   1.539891 S    
C11   H1    1.110171 S    
C38   C39   1.410352 A    
N7    O24   1.300192 A    
C11   C12   1.554114 S    
H2    C29   1.083211 S    
C31   C42   1.392035 A    
O3    Cu1   1.930505 S    
C27   H9    1.079630 S    
C1    C30   1.472239 S    
H10   C42   1.081902 S    
O18   H16   1.013938 S    
O3    C2    1.298898 A    
O22   H17   1.013866 S    
N6    O19   1.300293 A    
N4    O11   1.301714 A    
C17   C25   1.403422 A    
C37   C38   1.427499 A    
O6    C3    1.302982 A    
C39   C40   1.389663 A    
O1    C1    1.306772 A    
C28   H5    1.076369 S    
Cu1   O7    1.934703 S    
N5    O13   1.301714 A    
C10   C13   1.547367 S    
Cu2   O8    1.930505 S    
C19   C20   1.386064 A    
H3    C26   1.084167 S    
C32   H12   1.081926 S    
N5    O14   1.301430 A    
Cu2   N2    2.028321 S    
N4    O12   1.301509 A    
C26   C27   1.385775 A    
O8    C4    1.298639 A    
C44   O18   1.399031 S    
C11   C13   1.558163 S    
C12   C14   1.537944 S    
C20   H8    1.082873 S    
C33   C44   1.485300 S    
C36   N2    1.384704 A    
Cu1   O5    1.940533 S    
C2    C7    1.419083 S    
C33   C34   1.402952 A    
C41   H11   1.075535 S    
O1    Cu1   1.951370 S    
C19   C30   1.402876 A    
C17   H4    1.083930 S    
O2    Cu2   1.940533 S    
C6    N3    1.457611 S    
O16   H15   1.013876 S    
N1    C42   1.350186 A    
O4    Cu2   1.934703 S    
C34   H13   1.076329 S    
C36   C40   1.400836 A    
C17   C29   1.392101 A    
C7    C15   1.196369 T    
C23   C30   1.420558 A    
C22   C24   1.422922 A    
O2    C1    1.303099 A    
N1    C41   1.361721 A    
C31   N5    1.436689 S    
C43   O15   1.221997 D    
C40   H14   1.060521 S    
O4    C2    1.299552 A    
O7    C4    1.300016 A    
C18   C29   1.398928 A    
C35   C37   1.441362 A    
N6    O20   1.300189 A    
C23   C27   1.413196 A    
N3    O9    1.300278 A    
C6    C14   1.532857 S    
C25   C26   1.390888 A    
Cu2   O6    1.951370 S    
C44   O17   1.223472 D    
C12   C16   1.451937 S    
C18   C28   1.395393 A    
C45   O21   1.221988 D    
C14   N6    1.457738 S    
