data_mof_unit_24228.cif
_audit_creation_date              2012-12-11T15:57:30-0500
_audit_creation_method            fapswitch 2.2
_symmetry_space_group_name_H-M    P1
_symmetry_Int_Tables_number       1
_space_group_crystal_system       triclinic
_cell_length_a                    10.73353
_cell_length_b                    10.718511
_cell_length_c                    16.916337
_cell_angle_alpha                 99.49691
_cell_angle_beta                  99.382137
_cell_angle_gamma                 61.340768
_cell_volume                      1676.41385544

loop_
_atom_site_label
_atom_site_type_symbol
_atom_type_description
_atom_site_fract_x
_atom_site_fract_y
_atom_site_fract_z
_atom_type_partial_charge
C1    C     C_R   0.356728 0.772596 0.400290 0.581515
C2    C     C_2   0.313378 0.308496 0.809727 -0.096585
C3    C     C_2   0.354524 0.192078 0.755473 -0.148997
C4    C     C_R   0.406942 0.374890 0.356034 0.554485
C5    C     C_2   0.378264 0.195829 0.674353 -0.147507
C6    C     C_1   0.847548 0.328190 0.704663 -0.027611
C7    C     C_1   0.895056 0.292923 0.771235 -0.030150
C8    C     C_1   0.359097 0.762331 0.713642 -0.039711
C9    C     C_1   0.326423 0.809950 0.780708 -0.040597
C10   C     C_R   0.896194 0.306612 0.087926 0.568687
C11   C     C_R   0.321738 0.302972 0.118681 0.550188
C12   C     C_2   0.846097 0.319489 0.164820 -0.150775
C13   C     C_R   0.295033 0.888242 0.082547 0.565783
C14   C     C_R   0.944566 0.272850 0.853750 0.555603
C15   C     C_R   0.304295 0.288629 0.890280 0.541810
C16   C     C_R   0.780788 0.374841 0.406731 0.562208
C17   C     C_R   0.280703 0.880513 0.857402 0.536530
C18   C     C_R   0.381618 0.713156 0.631258 0.556619
C19   C     C_R   0.364584 0.344617 0.578665 0.552886
C20   C     C_R   0.777948 0.378552 0.628737 0.548440
C21   C     C_1   0.375968 0.363084 0.271437 -0.039002
C22   C     C_1   0.349912 0.344753 0.200460 -0.038918
C23   C     C_2   0.905120 0.201869 0.204988 -0.142563
C24   C     C_2   0.862433 0.326720 0.337726 -0.096782
C25   C     C_3   0.608644 0.914504 0.235318 -0.029919
C26   C     C_2   0.884092 0.207332 0.288900 0.224612
C27   C     C_2   0.343048 0.834482 0.327350 -0.136645
C28   C     C_2   0.345117 0.814050 0.154535 -0.065751
C29   C     C_2   0.451812 0.818940 0.206215 0.225612
C30   C     C_2   0.460914 0.790330 0.289640 -0.188312
C31   C     C_2   0.303200 0.314776 0.638143 -0.104745
Cr1   Cr    Cr6+3 0.608020 0.610770 0.522990 1.027478
Cr2   Cr    Cr6+3 0.289390 0.599570 0.488050 1.058100
Cr3   Cr    Cr6+3 0.602610 0.289690 0.489020 1.103041
Cr4   Cr    Cr6+3 0.053780 0.052210 0.965970 1.044682
Cr5   Cr    Cr6+3 0.060060 0.372530 0.992430 1.049910
Cr6   Cr    Cr6+3 0.372600 0.061970 0.991430 1.062627
H1    H     H_    0.974514 0.097752 0.176148 0.201325
H2    H     H_    0.385290 0.087213 0.773033 0.162685
H3    H     H_    0.000581 0.824369 0.282502 0.369172
H4    H     H_    0.682811 0.847725 0.283118 0.140206
H5    H     H_    0.520120 0.013313 0.261753 0.151619
H6    H     H_    0.669664 0.948146 0.204527 0.201041
H7    H     H_    0.470470 0.105550 0.649098 0.168081
H8    H     H_    0.282277 0.414706 0.794481 0.097135
H9    H     H_    0.206109 0.401006 0.661247 0.114160
H10   H     H_    0.776639 0.424997 0.192106 0.105790
H11   H     H_    0.882110 0.406857 0.318164 0.072845
H12   H     H_    0.566651 0.725405 0.318221 0.158021
H13   H     H_    0.275398 0.778480 0.172497 0.087806
H14   H     H_    0.237384 0.899430 0.299042 0.165109
O1    O     O_R   0.749250 0.499990 0.439200 -0.532550
O2    O     O_R   0.411120 0.181190 0.091480 -0.496116
O3    O     O_R   0.364220 0.944920 0.062310 -0.434639
O4    O     O_R   0.477870 0.725740 0.440280 -0.502803
O5    O     O_R   0.158740 0.906940 0.874970 -0.507450
O6    O     O_R   0.930920 0.176940 0.885610 -0.482402
O7    O     O_R   0.910730 0.394510 0.895320 -0.498334
O8    O     O_R   0.185840 0.361180 0.920280 -0.509616
O9    O     O_R   0.399210 0.173040 0.915160 -0.506453
O10   O     O_R   0.353170 0.937370 0.898860 -0.504852
O11   O     O_3   0.162150 0.162240 0.983280 -0.289172
O12   O     O_R   0.299400 0.468710 0.556310 -0.511496
O13   O     O_R   0.260770 0.742210 0.412610 -0.466821
O14   O     O_R   0.297990 0.466320 0.394220 -0.499731
O15   O     O_R   0.487720 0.253870 0.385870 -0.474282
O16   O     O_R   0.721940 0.304340 0.422320 -0.428793
O17   O     O_R   0.750770 0.502570 0.614050 -0.510334
O18   O     O_R   0.479280 0.728140 0.602370 -0.487607
O19   O     O_R   0.262290 0.744790 0.587460 -0.484035
O20   O     O_2   0.992747 0.027911 0.403773 -0.273084
O21   O     O_2   0.762285 0.064474 0.332248 -0.301336
O22   O     O_3   0.987760 0.907333 0.257232 -0.577414
O23   O     O_R   0.489240 0.256450 0.560730 -0.503439
O24   O     O_3   0.557466 0.834927 0.177733 -0.550644
O25   O     O_R   0.723350 0.306730 0.584410 -0.484691
O26   O     O_3   0.500010 0.500010 0.500020 -0.314234
O27   O     O_R   0.170650 0.915100 0.051290 -0.525116
O28   O     O_R   0.941960 0.184500 0.049060 -0.492741
O29   O     O_R   0.922640 0.402670 0.071640 -0.485436
O30   O     O_R   0.196880 0.368740 0.083740 -0.492115
S1    S     S_3+6 0.905563 0.049857 0.323391 -0.013501

loop_
_geom_bond_atom_site_label_1
_geom_bond_atom_site_label_2
_ccdc_geom_bond_type
C18   O19   A    
C15   O9    A    
Cr5   O8    S    
C19   C31   S    
C25   H6    S    
Cr6   O11   S    
Cr2   O14   S    
C11   O30   A    
C12   C23   D    
C28   C29   D    
C24   C26   D    
Cr5   O7    S    
Cr3   O26   S    
C20   O17   A    
C4    O14   A    
H3    O22   S    
C20   O25   A    
C23   C26   S    
Cr1   O1    S    
C17   O10   A    
Cr1   O26   S    
C28   H13   S    
C7    C14   S    
C19   O12   A    
C8    C9    T    
C31   H9    S    
C13   C28   S    
Cr1   O4    S    
C11   O2    A    
Cr1   O17   S    
O20   S1    D    
Cr6   O2    S    
C18   O18   A    
C3    H2    S    
C26   S1    S    
C21   C22   T    
C27   C30   D    
Cr3   O15   S    
C12   H10   S    
Cr5   O11   S    
C27   H14   S    
C2    H8    S    
C14   O7    A    
C24   H11   S    
Cr5   O29   S    
C25   H4    S    
C10   O29   A    
C8    C18   S    
C25   O24   S    
C25   H5    S    
C29   C30   S    
Cr5   O30   S    
Cr2   O12   S    
C16   O16   A    
C2    C15   S    
C17   O5    A    
C6    C7    T    
C10   C12   S    
Cr2   O19   S    
Cr3   O23   S    
Cr6   O3    S    
C9    C17   S    
C5    H7    S    
C1    O13   A    
O22   S1    S    
C13   O3    A    
C14   O6    A    
C13   O27   A    
Cr4   O27   S    
Cr4   O5    S    
C15   O8    A    
C30   H12   S    
C19   O23   A    
C16   O1    A    
C3    C5    S    
Cr3   O16   S    
Cr6   O10   S    
C10   O28   A    
Cr1   O18   S    
C29   O24   S    
C23   H1    S    
C6    C20   S    
C11   C22   S    
Cr4   O6    S    
C2    C3    D    
C1    O4    A    
C4    O15   A    
C4    C21   S    
Cr2   O26   S    
Cr2   O13   S    
Cr4   O28   S    
Cr4   O11   S    
Cr6   O9    S    
C16   C24   S    
C1    C27   S    
O21   S1    D    
Cr3   O25   S    
C5    C31   D    
