data_mof_unit_45432.cif
_audit_creation_date              2012-12-10T20:05:01-0500
_audit_creation_method            fapswitch 2.2
_symmetry_space_group_name_H-M    P1
_symmetry_Int_Tables_number       1
_space_group_crystal_system       triclinic
_cell_length_a                    16.064795
_cell_length_b                    16.062215
_cell_length_c                    25.938083
_cell_angle_alpha                 89.426215
_cell_angle_beta                  89.907093
_cell_angle_gamma                 90.127874
_cell_volume                      6692.60282057

loop_
_atom_site_label
_atom_site_type_symbol
_atom_type_description
_atom_site_fract_x
_atom_site_fract_y
_atom_site_fract_z
_atom_type_partial_charge
C1    C     C_R   0.999880 0.474661 0.447280 0.090268
C2    C     C_R   0.509329 0.001047 0.609992 0.563368
C3    C     C_R   0.000004 0.491748 0.390369 0.565782
C4    C     C_R   0.000680 0.506793 0.609373 0.557092
C5    C     C_R   0.008256 0.498672 0.889980 0.573624
C6    C     C_R   0.007494 0.500239 0.109599 0.566168
C7    C     C_R   0.499331 0.994142 0.890841 0.583951
C8    C     C_R   0.500375 0.008444 0.109642 0.568553
C9    C     C_R   0.339909 0.159964 0.249970 0.526640
C10   C     C_R   0.659976 0.839914 0.750145 0.551146
C11   C     C_R   0.839928 0.340041 0.250073 0.521916
C12   C     C_R   0.004049 0.518471 0.551968 0.096144
C13   C     C_R   0.160019 0.660003 0.749872 0.525495
C14   C     C_R   0.660092 0.839834 0.250070 0.547005
C15   C     C_R   0.339936 0.160212 0.749969 0.521446
C16   C     C_R   0.160028 0.660146 0.249908 0.544735
C17   C     C_R   0.840000 0.339817 0.750064 0.528272
C18   C     C_R   0.339942 0.840027 0.750092 0.542318
C19   C     C_R   0.660021 0.159996 0.249856 0.522379
C20   C     C_R   0.839828 0.659890 0.750044 0.519603
C21   C     C_R   0.160137 0.340083 0.249993 0.548844
C22   C     C_R   0.660003 0.160166 0.749952 0.551590
C23   C     C_R   0.531473 0.997238 0.446121 0.054133
C24   C     C_R   0.340007 0.839811 0.250045 0.518921
C25   C     C_R   0.160098 0.339842 0.750078 0.548659
C26   C     C_R   0.839933 0.660209 0.249965 0.520214
C27   C     C_1   0.276724 0.776446 0.250026 0.055316
C28   C     C_1   0.723331 0.223478 0.749945 0.071631
C29   C     C_1   0.223476 0.276670 0.250072 0.052719
C30   C     C_1   0.776464 0.723294 0.749995 0.060759
C31   C     C_1   0.723468 0.223303 0.249832 0.045127
C32   C     C_1   0.276528 0.776669 0.750109 0.074069
C33   C     C_1   0.776661 0.723549 0.249977 0.047215
C34   C     C_R   0.537809 0.002882 0.555021 0.053195
C35   C     C_1   0.223387 0.276546 0.750123 0.063032
C36   C     C_1   0.276666 0.223555 0.749986 0.047601
C37   C     C_1   0.723382 0.776539 0.250111 0.060075
C38   C     C_1   0.223472 0.723294 0.749903 0.059531
C39   C     C_1   0.776511 0.276688 0.250043 0.038121
C40   C     C_1   0.723411 0.776601 0.750118 0.059720
C41   C     C_1   0.276497 0.223325 0.250001 0.045618
C42   C     C_1   0.776712 0.276458 0.750099 0.064329
C43   C     C_1   0.223340 0.723467 0.249845 0.062818
C44   C     C_R   0.353896 0.063230 0.048752 0.223520
C45   C     C_R   0.496792 0.982658 0.948537 0.088467
C46   C     C_R   0.643107 0.937639 0.958723 0.175511
C47   C     C_R   0.036892 0.344513 0.054067 0.251055
C48   C     C_R   0.080918 0.639026 0.943076 0.223064
C49   C     C_R   0.654179 0.036537 0.046560 0.230442
C50   C     C_R   0.342643 0.961613 0.961215 0.142338
C51   C     C_R   0.054960 0.652455 0.045930 0.179699
C52   C     C_R   0.026485 0.339397 0.950315 0.192025
C53   C     C_R   0.860112 0.568256 0.539043 0.198180
C54   C     C_R   0.144245 0.428446 0.454696 0.227320
C55   C     C_R   0.564679 0.853885 0.556567 0.235981
C56   C     C_R   0.501654 0.028621 0.052939 0.078166
C57   C     C_R   0.564405 0.146206 0.443926 0.242636
C58   C     C_R   0.159030 0.521018 0.545594 0.220513
C59   C     C_R   0.849283 0.458643 0.455712 0.201442
C60   C     C_R   0.567349 0.156172 0.548269 0.174500
C61   C     C_R   0.533475 0.841163 0.454613 0.183043
C62   C     C_R   0.277251 0.029182 0.035543 0.169221
C63   C     C_R   0.720058 0.953744 0.981651 0.199569
C64   C     C_R   0.990811 0.279520 0.032621 0.133782
C65   C     C_R   0.047462 0.713836 0.960177 0.244476
C66   C     C_R   0.722895 0.991470 0.030195 0.237444
C67   C     C_R   0.035729 0.494084 0.944755 0.051215
C68   C     C_R   0.269846 0.985540 0.988795 0.207791
C69   C     C_R   0.029252 0.718329 0.013720 0.217055
C70   C     C_R   0.982275 0.278871 0.978292 0.120514
C71   C     C_R   0.782204 0.552214 0.516039 0.209317
C72   C     C_R   0.222429 0.444487 0.475354 0.180280
C73   C     C_R   0.522192 0.782845 0.540989 0.230704
C74   C     C_R   0.536577 0.219385 0.465223 0.167953
C75   C     C_R   0.228046 0.480038 0.524510 0.125867
C76   C     C_R   0.777641 0.500253 0.472248 0.189488
C77   C     C_R   0.544333 0.227855 0.519008 0.144748
C78   C     C_R   0.032391 0.498687 0.053824 0.056292
C79   C     C_R   0.502376 0.777630 0.487622 0.195960
C80   C     C_R   0.926165 0.483666 0.475332 -0.069112
C81   C     C_R   0.079455 0.504886 0.524616 -0.059534
C82   C     C_R   0.537521 0.922250 0.475467 -0.058785
C83   C     C_R   0.549639 0.077285 0.526123 -0.058661
C84   C     C_R   0.074939 0.470258 0.474774 -0.071268
C85   C     C_R   0.929292 0.521468 0.523614 -0.080350
C86   C     C_R   0.549063 0.072825 0.471587 -0.064787
C87   C     C_R   0.547907 0.927206 0.529275 -0.069998
C88   C     C_R   0.421359 0.993500 0.976855 -0.075375
C89   C     C_R   0.506127 0.999083 0.390503 0.566903
C90   C     C_R   0.575946 0.019213 0.024903 -0.086883
C91   C     C_R   0.034229 0.418637 0.973315 -0.038271
C92   C     C_R   0.049523 0.572135 0.024651 -0.052833
C93   C     C_R   0.572270 0.980832 0.976326 -0.094270
C94   C     C_R   0.426141 0.031552 0.025684 -0.068205
C95   C     C_R   0.057711 0.567100 0.970522 -0.063260
C96   C     C_R   0.035829 0.421322 0.027686 -0.041672
H1    H     H_    0.287509 0.230415 0.136018 0.362121
H2    H     H_    0.042623 0.227149 0.441290 0.394357
H3    H     H_    0.725370 0.916561 0.649338 0.361149
H4    H     H_    0.724484 0.077759 0.352343 0.357067
H5    H     H_    0.119069 0.709628 0.623842 0.364002
H6    H     H_    0.765591 0.334826 0.364582 0.384008
H7    H     H_    0.588267 0.240287 0.642001 0.381712
H8    H     H_    0.525885 0.767850 0.355704 0.387585
H9    H     H_    0.893841 0.960765 0.118415 0.384176
H10   H     H_    0.043128 0.001682 0.977761 0.409054
H11   H     H_    0.018025 0.885929 0.085571 0.397300
H12   H     H_    0.566586 0.790790 0.001302 0.344930
H13   H     H_    0.023303 0.132849 0.939004 0.365131
H14   H     H_    0.145732 0.123858 0.061988 0.384722
H15   H     H_    0.906531 0.954659 0.988604 0.416090
H16   H     H_    0.982618 0.108113 0.046667 0.370022
H17   H     H_    0.886158 0.759084 0.868824 0.385899
H18   H     H_    0.373592 0.551328 0.546808 0.392252
H19   H     H_    0.616298 0.603475 0.398416 0.422875
H20   H     H_    0.673407 0.347248 0.525659 0.386610
H21   H     H_    0.495898 0.590747 0.487596 0.423359
H22   H     H_    0.596234 0.500848 0.574455 0.411192
H23   H     H_    0.222691 0.384419 0.131985 0.356248
H24   H     H_    0.263580 0.594782 0.429583 0.360315
H25   H     H_    0.492721 0.596121 0.618040 0.394785
H26   H     H_    0.360408 0.236277 0.476097 0.343611
H27   H     H_    0.231245 0.563551 0.847825 0.361730
H28   H     H_    0.615550 0.216986 0.130801 0.363516
H29   H     H_    0.279640 0.932510 0.863481 0.372611
H30   H     H_    0.063922 0.745229 0.138868 0.368394
H31   H     H_    0.021618 0.264515 0.852814 0.387842
H32   H     H_    0.922968 0.679596 0.642247 0.338106
O1    O     O_3   0.500000 0.000000 0.250000 -0.504595
O2    O     O_R   0.500000 0.930770 0.634140 -0.490063
O3    O     O_3   0.578060 0.742980 0.368767 -0.470905
O4    O     O_2   0.738286 0.958894 0.131469 -0.239388
O5    O     O_2   0.769737 0.846698 0.072427 -0.210466
O6    O     O_3   0.876845 0.967367 0.081911 -0.431394
O7    O     O_2   0.164220 0.993041 0.908444 -0.237723
O8    O     O_2   0.152693 0.873100 0.967592 -0.134624
O9    O     O_3   0.095057 0.015813 0.995904 -0.498143
O10   O     O_2   0.886911 0.802178 0.004897 -0.146885
O11   O     O_2   0.928176 0.759056 0.091452 -0.288546
O12   O     O_3   0.010232 0.880818 0.047892 -0.432919
O13   O     O_R   0.930770 0.500000 0.365860 -0.510193
O14   O     O_2   0.842248 0.182433 0.974515 -0.100572
O15   O     O_2   0.881964 0.259780 0.897335 -0.259942
O16   O     O_3   0.968738 0.130038 0.921502 -0.390590
O17   O     O_2   0.169207 0.924750 0.081108 -0.168079
O18   O     O_2   0.250812 0.011994 0.137729 -0.180229
O19   O     O_3   0.129609 0.081220 0.087983 -0.408877
O20   O     O_2   0.822507 0.899574 0.907099 -0.180293
O21   O     O_2   0.776347 0.043650 0.902746 -0.182966
O22   O     O_3   0.886428 0.005483 0.971250 -0.409185
O23   O     O_2   0.954571 0.226095 0.129544 -0.189269
O24   O     O_R   0.069230 0.500000 0.634140 -0.491387
O25   O     O_2   0.840991 0.257367 0.070735 -0.177963
O26   O     O_3   0.924701 0.120968 0.056695 -0.374332
O27   O     O_2   0.995102 0.866735 0.929177 -0.162726
O28   O     O_2   0.044582 0.773627 0.862148 -0.208409
O29   O     O_3   0.902132 0.740896 0.904024 -0.459532
O30   O     O_2   0.273940 0.445292 0.622189 -0.209118
O31   O     O_2   0.323065 0.352542 0.555004 -0.183782
O32   O     O_3   0.391920 0.497682 0.561855 -0.392450
O33   O     O_2   0.724691 0.494557 0.374373 -0.256375
O34   O     O_2   0.630492 0.441634 0.441610 -0.138933
O35   O     O_R   0.000000 0.430770 0.865860 -0.525874
O36   O     O_3   0.649186 0.600767 0.430577 -0.396910
O37   O     O_2   0.507124 0.392028 0.511326 -0.092796
O38   O     O_2   0.495102 0.326923 0.595870 -0.222787
O39   O     O_3   0.643578 0.354957 0.558716 -0.447629
O40   O     O_2   0.360632 0.687182 0.495156 -0.225317
O41   O     O_2   0.403072 0.732501 0.409691 -0.251084
O42   O     O_3   0.484730 0.612200 0.452488 -0.390659
O43   O     O_2   0.708067 0.593594 0.604648 -0.206980
O44   O     O_2   0.664661 0.668526 0.526637 -0.140392
O45   O     O_3   0.613829 0.517643 0.539262 -0.423019
O46   O     O_R   0.000000 0.569230 0.134140 -0.516207
O47   O     O_2   0.385368 0.470393 0.455403 -0.120734
O48   O     O_2   0.303910 0.400576 0.388797 -0.125156
O49   O     O_3   0.281883 0.557973 0.401363 -0.454109
O50   O     O_2   0.508098 0.748673 0.642365 -0.218604
O51   O     O_2   0.383561 0.733408 0.590409 -0.202171
O52   O     O_3   0.499141 0.621407 0.583260 -0.482447
O53   O     O_2   0.499034 0.356239 0.409252 -0.086242
O54   O     O_2   0.436817 0.225910 0.382038 -0.239399
O55   O     O_3   0.379148 0.292355 0.464788 -0.393583
O56   O     O_R   0.569230 1.000000 0.865860 -0.494777
O57   O     O_R   0.430770 0.000000 0.134140 -0.504402
O58   O     O_R   1.000000 0.569230 0.865860 -0.493422
O59   O     O_R   1.000000 0.430770 0.134140 -0.497638
O60   O     O_R   0.430770 1.000000 0.865860 -0.546136
O61   O     O_3   0.500000 1.000000 0.750000 -0.493493
O62   O     O_R   0.569230 0.000000 0.134140 -0.487257
O63   O     O_R   0.402550 0.166630 0.280410 -0.492768
O64   O     O_R   0.597450 0.833370 0.719590 -0.455593
O65   O     O_R   0.833370 0.402550 0.280410 -0.522245
O66   O     O_R   0.166630 0.597450 0.719590 -0.493389
O67   O     O_R   0.597450 0.833370 0.280410 -0.509438
O68   O     O_R   0.402550 0.166630 0.719590 -0.530579
O69   O     O_R   0.166630 0.597450 0.280410 -0.510669
O70   O     O_R   0.833370 0.402550 0.719590 -0.513576
O71   O     O_R   0.402550 0.833370 0.719590 -0.495695
O72   O     O_3   1.000000 0.500000 0.250000 -0.501144
O73   O     O_R   0.597450 0.166630 0.280410 -0.470419
O74   O     O_R   0.833370 0.597450 0.719590 -0.482966
O75   O     O_R   0.166630 0.402550 0.280410 -0.475907
O76   O     O_R   0.597450 0.166630 0.719590 -0.528330
O77   O     O_R   0.402550 0.833370 0.280410 -0.544180
O78   O     O_R   0.166630 0.402550 0.719590 -0.504533
O79   O     O_R   0.833370 0.597450 0.280410 -0.506795
O80   O     O_R   0.902550 0.666630 0.780410 -0.545867
O81   O     O_R   0.097450 0.333370 0.219590 -0.474779
O82   O     O_R   0.333370 0.902550 0.780410 -0.532146
O83   O     O_3   0.000000 0.500000 0.750000 -0.498500
O84   O     O_R   0.666630 0.097450 0.219590 -0.487605
O85   O     O_R   0.097450 0.333370 0.780410 -0.504765
O86   O     O_R   0.902550 0.666630 0.219590 -0.529029
O87   O     O_R   0.666630 0.097450 0.780410 -0.509579
O88   O     O_R   0.333370 0.902550 0.219590 -0.498982
O89   O     O_R   0.902550 0.333370 0.219590 -0.488944
O90   O     O_R   0.097450 0.666630 0.780410 -0.467198
O91   O     O_R   0.333370 0.097450 0.219590 -0.477524
O92   O     O_R   0.666630 0.902550 0.780410 -0.493029
O93   O     O_R   0.097450 0.666630 0.219590 -0.522293
O94   O     O_R   0.500000 0.930770 0.365860 -0.528852
O95   O     O_R   0.902550 0.333370 0.780410 -0.531412
O96   O     O_R   0.666630 0.902550 0.219590 -0.495925
O97   O     O_R   0.333370 0.097450 0.780410 -0.528760
O98   O     O_2   0.434321 0.173049 0.110933 -0.271709
O99   O     O_2   0.357167 0.227732 0.037582 -0.188273
O100  O     O_3   0.274942 0.177868 0.117930 -0.428472
O101  O     O_2   0.610187 0.839604 0.876600 -0.221102
O102  O     O_2   0.707389 0.785051 0.940704 -0.181056
O103  O     O_3   0.551369 0.788336 0.964350 -0.431429
O104  O     O_2   0.115401 0.251877 0.126538 -0.212454
O105  O     O_R   0.500000 0.069230 0.634140 -0.533773
O106  O     O_2   0.191677 0.289917 0.048235 -0.204357
O107  O     O_3   0.169828 0.403795 0.116413 -0.495009
O108  O     O_2   0.195067 0.719651 0.883783 -0.155325
O109  O     O_2   0.244381 0.615851 0.945851 -0.175836
O110  O     O_3   0.174451 0.563252 0.862763 -0.522450
O111  O     O_2   0.752195 0.126387 0.109126 -0.153420
O112  O     O_2   0.685467 0.197791 0.036372 -0.191447
O113  O     O_3   0.596539 0.163294 0.116447 -0.488878
O114  O     O_2   0.419781 0.838875 0.904674 -0.211601
O115  O     O_2   0.306755 0.799390 0.962005 -0.124244
O116  O     O_R   0.069230 0.500000 0.365860 -0.508961
O117  O     O_3   0.270353 0.875427 0.876891 -0.396939
O118  O     O_2   0.165507 0.601802 0.118927 -0.248037
O119  O     O_2   0.213147 0.698935 0.052371 -0.153374
O120  O     O_3   0.119473 0.757091 0.124079 -0.453098
O121  O     O_2   0.157820 0.372751 0.887338 -0.221616
O122  O     O_2   0.167113 0.252204 0.944875 -0.198357
O123  O     O_3   0.073848 0.238783 0.865116 -0.449481
O124  O     O_2   0.967096 0.696233 0.550249 -0.252048
O125  O     O_2   0.821959 0.730748 0.538708 -0.117648
O126  O     O_3   0.866530 0.672028 0.627660 -0.447966
O127  O     O_R   0.930770 0.500000 0.634140 -0.521645
O128  O     O_2   0.106030 0.336238 0.370976 -0.256759
O129  O     O_2   0.204828 0.276093 0.432487 -0.222827
O130  O     O_3   0.049548 0.281441 0.458563 -0.463772
O131  O     O_2   0.673210 0.763068 0.614239 -0.152781
O132  O     O_2   0.728673 0.865853 0.552593 -0.173683
O133  O     O_3   0.666863 0.918932 0.637415 -0.505535
O134  O     O_2   0.644501 0.225551 0.368897 -0.229915
O135  O     O_2   0.727669 0.169453 0.440153 -0.170676
O136  O     O_3   0.673151 0.065990 0.372344 -0.503815
O137  O     O_2   0.253597 0.612697 0.610647 -0.195522
O138  O     O_R   0.500000 0.069230 0.365860 -0.485298
O139  O     O_2   0.198513 0.680642 0.533447 -0.218540
O140  O     O_3   0.099048 0.656094 0.609785 -0.507151
O141  O     O_2   0.912129 0.335491 0.395291 -0.272385
O142  O     O_2   0.848072 0.296662 0.477003 -0.173103
O143  O     O_3   0.751753 0.336972 0.401739 -0.390973
O144  O     O_2   0.672871 0.083849 0.617674 -0.244281
O145  O     O_2   0.730114 0.182770 0.555615 -0.158963
O146  O     O_3   0.647579 0.240546 0.632171 -0.435058
O147  O     O_2   0.653657 0.883968 0.384745 -0.230291
O148  O     O_2   0.681505 0.768916 0.443084 -0.146181
S1    S     S_3+6 0.357170 0.162268 0.079354 0.095715
S2    S     S_3+6 0.128183 0.328854 0.426965 0.088808
S3    S     S_3+6 0.660387 0.847751 0.590711 0.145128
S4    S     S_3+6 0.654730 0.153467 0.405472 0.103066
S5    S     S_3+6 0.179449 0.618793 0.575658 0.097118
S6    S     S_3+6 0.842105 0.355176 0.431624 0.111149
S7    S     S_3+6 0.656139 0.163741 0.589246 0.110602
S8    S     S_3+6 0.614586 0.810803 0.412100 0.117812
S9    S     S_3+6 0.776637 0.938910 0.080282 0.102979
S10   S     S_3+6 0.169178 0.964894 0.963725 0.146399
S11   S     S_3+6 0.959890 0.790327 0.040188 0.102740
S12   S     S_3+6 0.630034 0.836165 0.933057 0.105273
S13   S     S_3+6 0.915067 0.212343 0.943103 0.122071
S14   S     S_3+6 0.206088 0.009972 0.086988 0.154843
S15   S     S_3+6 0.802328 0.974558 0.938705 0.179598
S16   S     S_3+6 0.926713 0.220938 0.074458 0.137059
S17   S     S_3+6 0.999180 0.777694 0.912681 0.162097
S18   S     S_3+6 0.304509 0.441600 0.567465 0.151299
S19   S     S_3+6 0.693721 0.507095 0.428497 0.140905
S20   S     S_3+6 0.544340 0.327983 0.546605 0.128563
S21   S     S_3+6 0.434547 0.702278 0.461051 0.102655
S22   S     S_3+6 0.691239 0.585836 0.547871 0.162852
S23   S     S_3+6 0.129851 0.319617 0.087303 0.074443
S24   S     S_3+6 0.301999 0.465746 0.429911 0.171535
S25   S     S_3+6 0.476243 0.721835 0.590731 0.108022
S26   S     S_3+6 0.463177 0.275211 0.428100 0.154269
S27   S     S_3+6 0.176174 0.636849 0.908363 0.129476
S28   S     S_3+6 0.673966 0.132625 0.077732 0.138237
S29   S     S_3+6 0.337544 0.866410 0.925898 0.141880
S30   S     S_3+6 0.140751 0.675459 0.086295 0.113876
S31   S     S_3+6 0.109348 0.302171 0.911318 0.094219
S32   S     S_3+6 0.879911 0.669485 0.563551 0.120961
Zn1   Zn    Zn3+2 0.401050 1.000000 0.206670 1.067223
Zn2   Zn    Zn3+2 0.098950 0.500000 0.293330 1.075765
Zn3   Zn    Zn3+2 0.500000 0.901050 0.706670 1.095092
Zn4   Zn    Zn3+2 0.500000 0.098950 0.293330 1.085240
Zn5   Zn    Zn3+2 0.098950 0.500000 0.706670 1.059951
Zn6   Zn    Zn3+2 0.901050 0.500000 0.293330 1.043346
Zn7   Zn    Zn3+2 0.500000 0.098950 0.706670 1.009983
Zn8   Zn    Zn3+2 0.500000 0.901050 0.293330 1.011451
Zn9   Zn    Zn3+2 0.598950 1.000000 0.793330 1.082770
Zn10  Zn    Zn3+2 1.000000 0.401050 0.206670 1.089795
Zn11  Zn    Zn3+2 0.000000 0.598950 0.793330 1.048275
Zn12  Zn    Zn3+2 0.598950 1.000000 0.206670 1.077230
Zn13  Zn    Zn3+2 0.401050 1.000000 0.793330 1.004580
Zn14  Zn    Zn3+2 1.000000 0.598950 0.206670 1.015875
Zn15  Zn    Zn3+2 0.000000 0.401050 0.793330 1.026889
Zn16  Zn    Zn3+2 0.901050 0.500000 0.706670 1.026775

loop_
_geom_bond_atom_site_label_1
_geom_bond_atom_site_label_2
_ccdc_geom_bond_type
C55   S3    S    
O21   S15   D    
C24   C27   S    
C5    C67   S    
C8    C56   S    
O137  S5    D    
O110  S27   S    
O115  S29   D    
C18   O82   A    
C61   C82   A    
O72   Zn14  S    
C82   C87   A    
O61   Zn13  S    
C24   O77   A    
C10   C40   S    
C89   O138  A    
O97   Zn13  S    
H11   O12   S    
O51   S25   D    
C91   C96   A    
H21   O42   S    
O15   S13   D    
C35   C36   T    
H22   O45   S    
C8    O62   A    
C23   C89   S    
O13   Zn6   S    
C8    O57   A    
C48   C65   A    
C4    C12   S    
H27   O110  S    
C2    C34   S    
O14   S13   D    
C54   S2    S    
O86   Zn14  S    
C5    O58   A    
O1    Zn4   S    
H25   O52   S    
O83   Zn15  S    
O122  S31   D    
H6    O143  S    
C19   O84   A    
C53   S32   S    
O71   Zn3   S    
O70   Zn16  S    
C47   C64   A    
O77   Zn8   S    
O143  S6    S    
C6    O46   A    
O20   S15   D    
C21   C29   S    
O38   S20   D    
H24   O49   S    
C61   S8    S    
C51   C92   A    
C2    O105  A    
O104  S23   D    
C15   O68   A    
H23   O107  S    
C59   S6    S    
C13   O66   A    
O103  S12   S    
C25   O78   A    
C53   C71   A    
O108  S27   D    
O61   Zn7   S    
C50   S29   S    
C90   C93   A    
O1    Zn8   S    
O120  S30   S    
O82   Zn13  S    
C49   S28   S    
C11   O65   A    
H7    O146  S    
O116  Zn2   S    
C59   C80   A    
C62   C68   A    
C9    C41   S    
O35   Zn15  S    
O140  S5    S    
O54   S26   D    
C25   O85   A    
C77   S20   S    
O84   Zn12  S    
H13   O16   S    
C34   C87   A    
O12   S11   S    
C44   C94   A    
O17   S14   D    
H1    O100  S    
H3    O133  S    
O123  S31   S    
C52   C91   A    
C53   C85   A    
C51   C69   A    
H17   O29   S    
C9    O63   A    
O36   S19   S    
C23   C82   A    
C21   O75   A    
O131  S3    D    
C3    O13   A    
C45   C93   A    
O78   Zn5   S    
C20   C30   S    
C1    C84   A    
O28   S17   D    
C15   O97   A    
C5    O35   A    
C75   S18   S    
C6    C78   S    
O25   S16   D    
O135  S4    D    
C19   O73   A    
O23   S16   D    
O65   Zn6   S    
O95   Zn15  S    
O68   Zn7   S    
H8    O3    S    
O49   S24   S    
H32   O126  S    
O89   Zn10  S    
O126  S32   S    
C13   O90   A    
O138  Zn4   S    
H16   O26   S    
C22   O87   A    
C67   C95   A    
C72   C75   A    
O72   Zn10  S    
O43   S22   D    
O117  S29   S    
O46   Zn14  S    
O74   Zn16  S    
C4    O24   A    
C88   C94   A    
C49   C66   A    
H4    O136  S    
C76   S19   S    
C78   C96   A    
O132  S3    D    
O1    Zn1   S    
H10   O9    S    
O148  S8    D    
C78   C92   A    
O10   S11   D    
O24   Zn5   S    
C1    C3    S    
C17   O95   A    
C26   C33   S    
O4    S9    D    
C83   C86   A    
C73   C79   A    
C60   S7    S    
O142  S6    D    
H18   O32   S    
C13   C38   S    
O83   Zn11  S    
H26   O55   S    
O112  S28   D    
H5    O140  S    
C73   S25   S    
O34   S19   D    
C15   C36   S    
O92   Zn9   S    
O39   S20   S    
O73   Zn4   S    
C29   C41   T    
O146  S7    S    
O109  S27   D    
O119  S30   D    
C22   O76   A    
O69   Zn2   S    
C64   S16   S    
O96   Zn12  S    
C20   O74   A    
C24   O88   A    
H2    O130  S    
O9    S10   S    
C61   C79   A    
O53   S26   D    
C3    O116  A    
C55   C87   A    
O61   Zn3   S    
C55   C73   A    
C57   S4    S    
H28   O113  S    
C59   C76   A    
C14   O67   A    
O79   Zn6   S    
H29   O117  S    
C26   O79   A    
C49   C90   A    
C48   S27   S    
C19   C31   S    
C79   S21   S    
C54   C84   A    
O121  S31   D    
C56   C94   A    
C62   S14   S    
O91   Zn1   S    
C71   C76   A    
C60   C83   A    
O29   S17   S    
C17   C42   S    
O101  S12   D    
C23   C86   A    
O130  S2    S    
C47   C96   A    
O37   S20   D    
C12   C85   A    
C11   O89   A    
C9    O91   A    
C63   C66   A    
C22   C28   S    
C16   O93   A    
O44   S22   D    
C45   C88   A    
O66   Zn5   S    
O52   S25   S    
C33   C37   T    
O98   S1    D    
C47   S23   S    
O55   S26   S    
C80   C85   A    
C51   S30   S    
O133  S3    S    
O134  S4    D    
O45   S22   S    
C67   C91   A    
O47   S24   D    
C52   S31   S    
O11   S11   D    
C17   O70   A    
O7    S10   D    
C16   C43   S    
O72   Zn6   S    
C25   C35   S    
O113  S28   S    
C68   S10   S    
O118  S30   D    
C69   S11   S    
O93   Zn14  S    
O5    S9    D    
O100  S1    S    
O80   Zn11  S    
O141  S6    D    
C58   C81   A    
C18   C32   S    
H15   O22   S    
O128  S2    D    
O83   Zn16  S    
O63   Zn4   S    
O48   S24   D    
C58   S5    S    
C46   C63   A    
C26   O86   A    
C14   C37   S    
O61   Zn9   S    
O88   Zn1   S    
C65   C69   A    
C6    O59   A    
O26   S16   S    
C2    O2    A    
C21   O81   A    
C74   S26   S    
O90   Zn11  S    
C10   O64   A    
O81   Zn10  S    
C27   C43   T    
O102  S12   D    
C1    C80   A    
O85   Zn15  S    
O75   Zn2   S    
C50   C68   A    
C16   O69   A    
H9    O6    S    
O19   S14   S    
C48   C95   A    
O106  S23   D    
O31   S18   D    
O8    S10   D    
C10   O92   A    
C7    O56   A    
O27   S17   D    
O50   S25   D    
C7    C45   S    
C14   O96   A    
O139  S5    D    
O6    S9    S    
C57   C86   A    
H19   O36   S    
O56   Zn9   S    
C12   C81   A    
H20   O39   S    
C64   C70   A    
C50   C88   A    
O87   Zn9   S    
O144  S7    D    
C56   C90   A    
O129  S2    D    
C63   S15   S    
O22   S15   S    
O33   S19   D    
C72   S24   S    
O57   Zn1   S    
O3    S8    S    
C58   C75   A    
O2    Zn3   S    
C60   C77   A    
O124  S32   D    
H30   O120  S    
O145  S7    D    
C70   S13   S    
C7    O60   A    
O30   S18   D    
C89   O94   A    
O83   Zn5   S    
O62   Zn12  S    
C44   C62   A    
C74   C77   A    
C92   C95   A    
C57   C74   A    
O1    Zn12  S    
O42   S21   S    
O32   S18   S    
C44   S1    S    
O114  S29   D    
O125  S32   D    
C30   C40   T    
O107  S23   S    
C11   C39   S    
O147  S8    D    
O99   S1    D    
O76   Zn7   S    
O94   Zn8   S    
C32   C38   T    
C34   C83   A    
C20   O80   A    
H14   O19   S    
O58   Zn11  S    
C81   C84   A    
O67   Zn8   S    
O64   Zn3   S    
C66   S9    S    
O16   S13   S    
C46   S12   S    
O105  Zn7   S    
C71   S22   S    
O72   Zn2   S    
O18   S14   D    
C46   C93   A    
C28   C42   T    
O40   S21   D    
O136  S4    S    
C31   C39   T    
O60   Zn13  S    
H31   O123  S    
C52   C70   A    
O111  S28   D    
C65   S17   S    
C54   C72   A    
C18   O71   A    
O59   Zn10  S    
C4    O127  A    
O127  Zn16  S    
O41   S21   D    
H12   O103  S    
