data_mof_unit_20614.cif
_audit_creation_date              2012-12-10T18:09:37-0500
_audit_creation_method            fapswitch 2.2
_symmetry_space_group_name_H-M    P1
_symmetry_Int_Tables_number       1
_space_group_crystal_system       triclinic
_cell_length_a                    15.569123
_cell_length_b                    16.796054
_cell_length_c                    9.901191
_cell_angle_alpha                 89.924678
_cell_angle_beta                  90.52542
_cell_angle_gamma                 90.105393
_cell_volume                      2589.04434276

loop_
_atom_site_label
_atom_site_type_symbol
_atom_type_description
_atom_site_fract_x
_atom_site_fract_y
_atom_site_fract_z
_atom_type_partial_charge
C1    C     C_R   0.124123 0.383978 0.500578 0.834542
C2    C     C_R   0.124060 0.614650 0.500016 0.840236
C3    C     C_R   0.627057 0.887816 0.500338 0.867105
C4    C     C_R   0.622859 0.115973 0.500897 0.817044
C5    C     C_3   0.078416 0.540882 0.082291 -0.375854
C6    C     C_3   0.084340 0.528963 0.919559 -0.385240
C7    C     C_3   0.579007 0.039147 0.083642 -0.357148
C8    C     C_3   0.570590 0.051552 0.921500 -0.408247
C9    C     C_R   0.880895 0.379074 0.500364 0.917986
C10   C     C_R   0.879370 0.619263 0.498997 0.935913
C11   C     C_R   0.380481 0.879286 0.499339 0.931773
C12   C     C_R   0.381186 0.120029 0.500227 0.920124
C13   C     C_3   0.821909 0.251022 0.628866 -0.083364
C14   C     C_3   0.814671 0.254358 0.372220 -0.057649
C15   C     C_3   0.814369 0.738022 0.634510 -0.135161
C16   C     C_3   0.826808 0.750937 0.375235 -0.115164
C17   C     C_3   0.316810 0.755090 0.630528 -0.066191
C18   C     C_3   0.322078 0.749739 0.373122 -0.089833
C19   C     C_3   0.327458 0.248621 0.625774 -0.102978
C20   C     C_3   0.315105 0.239306 0.367037 -0.158776
C21   C     C_3   0.239733 0.694034 0.644761 0.310420
C22   C     C_3   0.266759 0.670472 0.385307 0.296992
C23   C     C_3   0.270265 0.326788 0.616128 0.331438
C24   C     C_3   0.241406 0.304293 0.357261 0.345922
C25   C     C_3   0.765893 0.172268 0.617819 0.308055
C26   C     C_3   0.737142 0.194185 0.358350 0.309232
C27   C     C_3   0.743887 0.806109 0.645959 0.304424
C28   C     C_3   0.776278 0.832736 0.391209 0.314344
C29   C     C_3   0.715077 0.339473 0.515298 0.385126
C30   C     C_3   0.714236 0.664559 0.473785 0.316125
C31   C     C_3   0.214353 0.837115 0.482805 0.389946
C32   C     C_3   0.218277 0.159752 0.522687 0.370459
C33   C     C_3   0.811429 0.307612 0.503390 -0.177701
C34   C     C_3   0.811647 0.691350 0.496113 -0.106699
C35   C     C_3   0.311635 0.807065 0.497111 -0.185313
C36   C     C_3   0.313555 0.190696 0.502673 -0.119999
C37   C     C_3   0.192920 0.683223 0.499114 -0.116959
C38   C     C_3   0.195319 0.314727 0.501912 -0.045891
C39   C     C_3   0.691455 0.184935 0.503151 -0.120020
C40   C     C_3   0.698775 0.820108 0.500026 -0.032759
C41   C     C_3   0.146063 0.765512 0.464026 0.204314
C42   C     C_3   0.150576 0.231001 0.535272 0.102252
C43   C     C_3   0.646005 0.268490 0.536588 0.195108
C44   C     C_3   0.650175 0.739492 0.460340 0.128388
C45   C     C_3   0.926337 0.544943 0.081385 0.436308
C46   C     C_3   0.935764 0.557779 0.918413 0.441835
C47   C     C_3   0.009286 0.417110 0.078160 0.502603
C48   C     C_3   0.983446 0.418973 0.921221 0.362208
C49   C     C_3   0.428186 0.048954 0.082028 0.428899
C50   C     C_3   0.420039 0.034868 0.918688 0.430577
C51   C     C_3   0.496216 0.916779 0.079659 0.404618
C52   C     C_3   0.522812 0.919314 0.922690 0.441882
Cu1   Cu    Cu3+1 0.000100 0.500000 0.642410 1.002120
Cu2   Cu    Cu3+1 0.000100 0.500000 0.357590 1.068744
Cu3   Cu    Cu3+1 0.500100 1.000000 0.642410 1.051901
Cu4   Cu    Cu3+1 0.500100 1.000000 0.357590 1.061495
H1    H     H_    0.794685 0.283515 0.713797 0.228207
H2    H     H_    0.808088 0.297385 0.288526 0.258488
H3    H     H_    0.799542 0.693495 0.712542 0.230336
H4    H     H_    0.799414 0.721849 0.284446 0.197974
H5    H     H_    0.312291 0.798890 0.714078 0.256115
H6    H     H_    0.294351 0.781562 0.286347 0.228673
H7    H     H_    0.303809 0.216675 0.715425 0.215546
H8    H     H_    0.303190 0.194324 0.287235 0.207433
H9    H     H_    0.082582 0.604587 0.107694 0.169265
H10   H     H_    0.105432 0.585235 0.874539 0.212722
H11   H     H_    0.137644 0.519293 0.130888 0.227776
H12   H     H_    0.138599 0.490988 0.890082 0.193706
H13   H     H_    0.592225 0.096562 0.130660 0.219148
H14   H     H_    0.564391 0.115114 0.895331 0.178895
H15   H     H_    0.638046 0.007934 0.114816 0.189824
H16   H     H_    0.633456 0.039697 0.879811 0.195280
N1    N     N_3   0.001260 0.500000 0.143650 -0.224890
N2    N     N_3   0.001260 0.500000 0.856350 -0.248130
N3    N     N_3   0.501260 1.000000 0.143650 -0.215684
N4    N     N_3   0.501260 0.000000 0.856350 -0.221379
O1    O     O_R   0.091250 0.408820 0.620260 -0.639376
O2    O     O_R   0.091250 0.408820 0.379740 -0.497555
O3    O     O_R   0.091250 0.591180 0.620260 -0.609437
O4    O     O_R   0.091250 0.591180 0.379740 -0.609910
O5    O     O_R   0.591250 0.908820 0.620260 -0.557509
O6    O     O_R   0.591250 0.908820 0.379740 -0.562561
O7    O     O_R   0.591250 0.091180 0.620260 -0.612289
O8    O     O_R   0.591250 0.091180 0.379740 -0.589761
O9    O     O_R   0.908940 0.408800 0.620260 -0.540741
O10   O     O_R   0.908940 0.408800 0.379740 -0.510322
O11   O     O_R   0.908940 0.591200 0.620260 -0.559523
O12   O     O_R   0.908940 0.591200 0.379740 -0.522287
O13   O     O_R   0.408940 0.908800 0.620260 -0.511168
O14   O     O_R   0.408940 0.908800 0.379740 -0.489469
O15   O     O_R   0.408940 0.091200 0.620260 -0.525131
O16   O     O_R   0.408940 0.091200 0.379740 -0.530309
N5    N     N_3   0.910995 0.238783 0.671382 -0.587128
H17   H     H_    0.912497 0.209907 0.765026 0.283550
H18   H     H_    0.943363 0.203237 0.604401 0.247438
N6    N     N_3   0.897886 0.215711 0.353095 -0.539242
H19   H     H_    0.901176 0.194416 0.254209 0.312685
H20   H     H_    0.904254 0.164697 0.409268 0.296704
N7    N     N_3   0.901194 0.764489 0.669641 -0.588136
H21   H     H_    0.904486 0.776687 0.773136 0.278522
H22   H     H_    0.916563 0.816775 0.619515 0.317747
N8    N     N_3   0.916951 0.759511 0.338879 -0.579357
H23   H     H_    0.921146 0.788932 0.245971 0.253866
H24   H     H_    0.949088 0.794270 0.408110 0.313882
N9    N     N_3   0.400229 0.716836 0.650773 -0.529325
H25   H     H_    0.404024 0.696991 0.750715 0.311420
H26   H     H_    0.406067 0.664997 0.596903 0.295577
N10   N     N_3   0.411248 0.737916 0.333177 -0.516996
H27   H     H_    0.412345 0.708903 0.239807 0.275186
H28   H     H_    0.441909 0.700608 0.399810 0.247198
N11   N     N_3   0.417861 0.261720 0.660844 -0.583424
H29   H     H_    0.421850 0.288804 0.755812 0.248501
H30   H     H_    0.446824 0.300060 0.593827 0.315611
N12   N     N_3   0.400284 0.270956 0.336870 -0.571306
H31   H     H_    0.403789 0.283669 0.233657 0.259300
H32   H     H_    0.411048 0.324362 0.387016 0.316118
Br1   Br    Br    0.273460 0.591133 0.726739 -0.479663
Br2   Br    Br    0.340612 0.578579 0.415711 -0.391406
Br3   Br    Br    0.343907 0.419109 0.588695 -0.367232
Br4   Br    Br    0.280219 0.406755 0.281716 -0.449159
Br5   Br    Br    0.839264 0.080178 0.590611 -0.397298
Br6   Br    Br    0.770224 0.090370 0.279444 -0.502496
Br7   Br    Br    0.792111 0.904740 0.724787 -0.472601
Br8   Br    Br    0.858043 0.918964 0.428016 -0.354981
N13   N     N_3   0.183191 0.728397 0.747323 -0.598346
H33   H     H_    0.215468 0.731486 0.840432 0.266796
H34   H     H_    0.129508 0.693361 0.763702 0.230750
N14   N     N_3   0.229109 0.653098 0.251835 -0.626957
H35   H     H_    0.274390 0.662572 0.176038 0.249051
H36   H     H_    0.215852 0.592737 0.246042 0.285477
N15   N     N_3   0.232934 0.341016 0.749791 -0.572390
H37   H     H_    0.279101 0.331694 0.825618 0.224767
H38   H     H_    0.218096 0.401318 0.758778 0.268388
N16   N     N_3   0.181518 0.278460 0.250999 -0.507853
H39   H     H_    0.164329 0.219213 0.255428 0.277564
H40   H     H_    0.215189 0.279658 0.159828 0.216621
N17   N     N_3   0.728687 0.155863 0.750804 -0.625134
H41   H     H_    0.773855 0.166598 0.827550 0.249446
H42   H     H_    0.717137 0.095287 0.757231 0.281014
N18   N     N_3   0.679951 0.228782 0.254882 -0.599979
H43   H     H_    0.709556 0.227424 0.160387 0.267176
H44   H     H_    0.622810 0.197790 0.244684 0.242901
N19   N     N_3   0.681573 0.782700 0.750031 -0.494148
H45   H     H_    0.662374 0.723935 0.744643 0.284752
H46   H     H_    0.712597 0.784065 0.844272 0.249723
N20   N     N_3   0.742697 0.856002 0.258580 -0.622281
H47   H     H_    0.790073 0.849897 0.185079 0.240940
H48   H     H_    0.728000 0.916665 0.259547 0.281336
Br9   Br    Br    0.706556 0.414062 0.663282 -0.257917
Br10  Br    Br    0.688533 0.406546 0.360978 -0.296532
Br11  Br    Br    0.677053 0.592750 0.613033 -0.329402
Br12  Br    Br    0.701278 0.595419 0.319063 -0.363000
Br13  Br    Br    0.186271 0.905533 0.632344 -0.296902
Br14  Br    Br    0.202539 0.908327 0.331101 -0.270980
Br15  Br    Br    0.213914 0.089922 0.679667 -0.347321
Br16  Br    Br    0.182910 0.087595 0.383492 -0.341585
N21   N     N_3   0.069403 0.777330 0.548093 -0.536660
H49   H     H_    0.074916 0.797436 0.646475 0.293186
H50   H     H_    0.031412 0.726359 0.549487 0.217427
N22   N     N_3   0.110519 0.765346 0.324457 -0.519177
H51   H     H_    0.069561 0.717904 0.305229 0.256101
H52   H     H_    0.154014 0.770030 0.245915 0.265982
N23   N     N_3   0.117337 0.231798 0.672935 -0.523830
H53   H     H_    0.081805 0.180294 0.692412 0.276423
H54   H     H_    0.069614 0.272530 0.669165 0.231528
N24   N     N_3   0.076738 0.218754 0.443243 -0.549307
H55   H     H_    0.045104 0.166102 0.468990 0.280046
H56   H     H_    0.032775 0.265126 0.451726 0.247070
N25   N     N_3   0.612475 0.269605 0.676270 -0.513894
H57   H     H_    0.657226 0.276234 0.753911 0.266324
H58   H     H_    0.573705 0.220786 0.697437 0.259840
N26   N     N_3   0.568280 0.280769 0.453348 -0.531660
H59   H     H_    0.530686 0.229521 0.451793 0.228993
H60   H     H_    0.573136 0.301449 0.355258 0.292368
N27   N     N_3   0.576151 0.729180 0.550146 -0.517401
H61   H     H_    0.546265 0.674967 0.529275 0.274551
H62   H     H_    0.530208 0.772957 0.531215 0.268126
N28   N     N_3   0.614331 0.746524 0.322275 -0.539681
H63   H     H_    0.570382 0.700870 0.303389 0.267542
H64   H     H_    0.660108 0.740474 0.247310 0.256995
N29   N     N_3   0.913915 0.623389 0.143331 -0.506224
H65   H     H_    0.865893 0.655590 0.092873 0.243587
H66   H     H_    0.968490 0.658337 0.154642 0.206550
N30   N     N_3   0.959575 0.641457 0.886468 -0.609383
H67   H     H_    0.986389 0.645679 0.791207 0.280215
H68   H     H_    0.005815 0.666211 0.950196 0.174121
N31   N     N_3   0.096606 0.383270 0.099362 -0.493085
H69   H     H_    0.097589 0.324428 0.064958 0.263950
H70   H     H_    0.146495 0.407386 0.043978 0.194929
N32   N     N_3   0.030543 0.356530 0.856603 -0.577594
H71   H     H_    0.000678 0.349531 0.765134 0.309470
H72   H     H_    0.093902 0.372168 0.844205 0.236246
N33   N     N_3   0.440347 0.134442 0.118357 -0.552332
H73   H     H_    0.384545 0.167366 0.100586 0.204888
H74   H     H_    0.487337 0.164496 0.064357 0.173633
N34   N     N_3   0.395729 0.111095 0.857413 -0.511225
H75   H     H_    0.338294 0.131829 0.898327 0.235860
H76   H     H_    0.441349 0.156166 0.861972 0.192392
N35   N     N_3   0.550473 0.860563 0.151055 -0.467846
H77   H     H_    0.552137 0.806352 0.099118 0.259353
H78   H     H_    0.612008 0.881311 0.155532 0.234390
N36   N     N_3   0.614904 0.898740 0.908331 -0.565783
H79   H     H_    0.638489 0.922743 0.821613 0.311076
H80   H     H_    0.659145 0.919176 0.978666 0.185944
Br17  Br    Br    0.823063 0.489226 0.138946 -0.228086
Br18  Br    Br    0.818945 0.555013 0.846099 -0.305738
Br19  Br    Br    0.946882 0.331934 0.156136 -0.430401
Br20  Br    Br    0.863521 0.379511 0.892019 -0.369212
Br21  Br    Br    0.316453 0.029528 0.159264 -0.300735
Br22  Br    Br    0.324353 0.966679 0.863398 -0.253273
Br23  Br    Br    0.385907 0.861147 0.104822 -0.389790
Br24  Br    Br    0.477813 0.828282 0.834298 -0.427782

loop_
_geom_bond_atom_site_label_1
_geom_bond_atom_site_label_2
_ccdc_geom_bond_type
C16   C28   S    
C9    C33   S    
Cu3   Cu4   S    
N21   H49   S    
C1    O1    A    
N25   H57   S    
C12   O15   A    
C19   C23   S    
N11   H29   S    
C2    C37   S    
C44   N27   S    
C5    H11   S    
C30   C44   S    
N14   H35   S    
C14   C33   S    
N12   H31   S    
C43   N25   S    
C45   N29   S    
C7    C8    S    
N27   H62   S    
Cu1   Cu2   S    
N30   H67   S    
C13   C33   S    
N9    H26   S    
C10   O12   A    
N5    H17   S    
N36   H80   S    
C37   C41   S    
C32   C36   S    
N23   H54   S    
C51   N3    S    
C38   C42   S    
C26   N18   S    
C19   C36   S    
C7    H15   S    
C5    C6    S    
C26   C39   S    
C13   H1    S    
C28   C40   S    
C21   Br1   S    
N19   H45   S    
Cu2   N1    S    
C29   C33   S    
C8    N4    S    
N10   H27   S    
C45   N1    S    
C16   H4    S    
C46   N30   S    
C20   C24   S    
Cu3   O15   S    
C2    O3    A    
C9    O9    A    
C29   Br10  S    
C32   Br16  S    
Cu4   O16   S    
C50   N34   S    
C51   Br23  S    
N19   H46   S    
N11   H30   S    
N23   H53   S    
C19   H7    S    
N33   H74   S    
N6    H20   S    
C3    O5    A    
C52   Br24  S    
C24   C38   S    
C49   N3    S    
C6    N2    S    
C12   C36   S    
C18   C35   S    
C15   C34   S    
C48   N32   S    
C20   N12   S    
C17   H5    S    
C6    H12   S    
N13   H33   S    
N35   H77   S    
N21   H50   S    
Cu4   N3    S    
C22   N14   S    
C29   C43   S    
N24   H56   S    
C1    O2    A    
N25   H58   S    
C13   C25   S    
C14   N6    S    
C31   Br13  S    
N26   H60   S    
Cu4   O8    S    
N20   H48   S    
N29   H66   S    
C15   C27   S    
C14   H2    S    
C10   O11   A    
C8    H16   S    
C24   Br4   S    
N36   H79   S    
C30   C34   S    
C51   C52   S    
C48   N2    S    
N18   H43   S    
C47   N1    S    
C10   C34   S    
C44   N28   S    
Cu2   O10   S    
C27   Br7   S    
C42   N23   S    
C18   H6    S    
C7    N3    S    
N15   H38   S    
N29   H65   S    
C22   C37   S    
C17   C21   S    
C13   N5    S    
N12   H32   S    
C49   N33   S    
N22   H52   S    
C20   H8    S    
C25   N17   S    
N32   H71   S    
N16   H40   S    
C50   N4    S    
C9    O10   A    
C41   N22   S    
N17   H42   S    
C11   O13   A    
C30   Br12  S    
C47   C48   S    
C4    O8    A    
C4    C39   S    
C6    H10   S    
C27   C40   S    
C16   C34   S    
N6    H19   S    
C48   Br20  S    
C3    O6    A    
C23   N15   S    
C27   N19   S    
Cu1   O11   S    
C14   C26   S    
N8    H24   S    
N10   H28   S    
N16   H39   S    
C51   N35   S    
C1    C38   S    
C41   N21   S    
Cu3   N4    S    
C5    H9    S    
N7    H22   S    
C3    C40   S    
C49   C50   S    
Cu2   O4    S    
Cu1   O1    S    
C31   C35   S    
Cu3   O5    S    
C21   N13   S    
N15   H37   S    
C46   N2    S    
C31   Br14  S    
N26   H59   S    
N35   H78   S    
N20   H47   S    
N9    H25   S    
C16   N8    S    
C46   Br18  S    
C22   Br2   S    
N32   H72   S    
C31   C41   S    
C24   N16   S    
Cu1   O3    S    
C18   C22   S    
C15   H3    S    
C12   O16   A    
N18   H44   S    
N34   H75   S    
C52   N4    S    
N14   H36   S    
C7    H13   S    
C39   C43   S    
C43   N26   S    
C28   Br8   S    
Cu4   O6    S    
C17   N9    S    
C19   N11   S    
C23   C38   S    
C26   Br6   S    
N17   H41   S    
C28   N20   S    
C8    H14   S    
N7    H21   S    
C47   Br19  S    
N22   H51   S    
Cu2   O12   S    
C11   C35   S    
C32   Br15  S    
N31   H69   S    
Cu3   O13   S    
N27   H61   S    
C45   Br17  S    
C25   C39   S    
C23   Br3   S    
C11   O14   A    
C30   Br11  S    
N24   H55   S    
C4    O7    A    
C25   Br5   S    
Cu4   O14   S    
N30   H68   S    
C52   N36   S    
C5    N1    S    
N8    H23   S    
C18   N10   S    
N31   H70   S    
N34   H76   S    
C2    O4    A    
C29   Br9   S    
C20   C36   S    
C45   C46   S    
C40   C44   S    
C21   C37   S    
C50   Br22  S    
N5    H18   S    
N33   H73   S    
C15   N7    S    
C49   Br21  S    
N13   H34   S    
C32   C42   S    
Cu1   O9    S    
C17   C35   S    
C47   N31   S    
N28   H64   S    
Cu3   O7    S    
C42   N24   S    
N28   H63   S    
Cu2   O2    S    
Cu1   N2    S    
