data_mof_unit_17018.cif
_audit_creation_date              2012-12-10T19:55:50-0500
_audit_creation_method            fapswitch 2.2
_symmetry_space_group_name_H-M    P1
_symmetry_Int_Tables_number       1
_space_group_crystal_system       triclinic
_cell_length_a                    14.926331
_cell_length_b                    14.235545
_cell_length_c                    19.176137
_cell_angle_alpha                 89.941325
_cell_angle_beta                  90.604719
_cell_angle_gamma                 88.998359
_cell_volume                      4073.77854195

loop_
_atom_site_label
_atom_site_type_symbol
_atom_type_description
_atom_site_fract_x
_atom_site_fract_y
_atom_site_fract_z
_atom_type_partial_charge
C1    C     C_R   0.328378 0.500895 0.499557 1.098856
C2    C     C_R   0.672345 0.499234 0.495380 0.938732
C3    C     C_R   0.233231 0.504050 0.493714 -0.235726
C4    C     C_R   0.768349 0.497932 0.482169 -0.366529
C5    C     C_R   0.049495 0.514284 0.482152 -0.134021
C6    C     C_R   0.953287 0.506529 0.475244 -0.184169
C7    C     C_R   0.476460 0.105922 0.438889 0.244834
C8    C     C_R   0.579631 0.893507 0.515084 0.251249
C9    C     C_R   0.523745 0.104208 0.560445 0.227080
C10   C     C_R   0.421519 0.896896 0.484244 0.261905
C11   C     C_R   0.468553 0.204870 0.443024 0.441737
C12   C     C_R   0.575289 0.794586 0.520533 0.457132
C13   C     C_R   0.530307 0.203506 0.557489 0.468009
C14   C     C_R   0.424833 0.797659 0.479844 0.437949
C15   C     C_R   0.501049 0.053379 0.499267 -0.198573
C16   C     C_R   0.500864 0.946912 0.499125 -0.218242
C17   C     C_R   0.498823 0.500085 0.365477 0.907128
C18   C     C_R   0.498639 0.500040 0.634520 0.921694
C19   C     C_R   0.471175 0.585594 0.255338 -0.286552
C20   C     C_R   0.479141 0.416617 0.746496 -0.290271
C21   C     C_R   0.488611 0.586392 0.745683 -0.288267
C22   C     C_R   0.494846 0.416574 0.252343 -0.293066
C23   C     C_R   0.456259 0.586831 0.183734 0.436809
C24   C     C_R   0.470225 0.417200 0.818865 0.441280
C25   C     C_R   0.475419 0.588798 0.817146 0.435455
C26   C     C_R   0.481355 0.416676 0.180161 0.430209
C27   C     C_R   0.464355 0.502700 0.145923 -0.129716
C28   C     C_R   0.467592 0.503892 0.854321 -0.138800
C29   C     C_R   0.489452 0.500734 0.289916 -0.141195
C30   C     C_R   0.490237 0.500738 0.710062 -0.149505
C31   C     C_R   0.462162 0.505934 0.930149 0.323567
C32   C     C_R   0.460061 0.505733 0.070419 0.358582
C33   C     C_R   0.101239 0.529639 0.422457 0.358519
C34   C     C_R   0.913772 0.421162 0.493638 0.374257
C35   C     C_R   0.901262 0.584447 0.453845 0.433146
C36   C     C_R   0.089442 0.497997 0.548246 0.391503
C37   C     C_R   0.194633 0.526246 0.428789 0.221852
C38   C     C_R   0.820622 0.417576 0.499483 0.304421
C39   C     C_R   0.808749 0.577892 0.452670 0.272179
C40   C     C_R   0.182672 0.489995 0.553502 0.239673
H1    H     H_    0.467978 0.651354 0.283552 0.164942
H2    H     H_    0.477160 0.350295 0.719069 0.224011
H3    H     H_    0.495749 0.652248 0.718237 0.176129
H4    H     H_    0.511657 0.351219 0.278658 0.216100
N1    N     N_R   0.506916 0.571133 0.035725 -0.114144
N2    N     N_R   0.414380 0.441112 0.964953 -0.119515
N3    N     N_R   0.508042 0.571113 0.966664 -0.117235
N4    N     N_R   0.413511 0.440837 0.034146 -0.158184
N5    N     N_R   0.500000 0.252470 0.500000 -0.219343
N6    N     N_R   0.500000 0.747530 0.500000 -0.238987
O1    O     O_R   0.369060 0.579480 0.500010 -0.561939
O2    O     O_R   0.630940 0.420520 0.499990 -0.555294
O3    O     O_R   0.630940 0.579480 0.499990 -0.559790
O4    O     O_R   0.369060 0.420520 0.500010 -0.627799
O5    O     O_R   0.499990 0.579500 0.398140 -0.644802
O6    O     O_R   0.500010 0.420500 0.601860 -0.558983
O7    O     O_R   0.500010 0.579500 0.601860 -0.639639
O8    O     O_R   0.499990 0.420500 0.398140 -0.574858
Zn1   Zn    Zn3+2 0.500000 0.606140 0.500000 1.002784
Zn2   Zn    Zn3+2 0.500000 0.393860 0.500000 1.033598
O9    O     O_3   0.438233 0.671083 0.149950 -0.587076
C41   C     C_3   0.347926 0.697218 0.161610 0.095715
H5    H     H_    0.337107 0.714649 0.217521 0.128933
H6    H     H_    0.301807 0.640068 0.145703 0.131497
C42   C     C_3   0.324431 0.783892 0.118309 -0.790326
H7    H     H_    0.332585 0.768051 0.062024 0.252826
H8    H     H_    0.253789 0.805716 0.127656 0.203682
H9    H     H_    0.368942 0.842532 0.133006 0.261475
O10   O     O_3   0.460466 0.333808 0.855120 -0.585250
C43   C     C_3   0.540265 0.279261 0.851164 0.096370
H10   H     H_    0.601235 0.322706 0.858299 0.129594
H11   H     H_    0.543531 0.242367 0.800136 0.163969
C44   C     C_3   0.540658 0.205720 0.908746 -0.772008
H12   H     H_    0.480984 0.160637 0.903453 0.259624
H13   H     H_    0.602099 0.160918 0.905304 0.206145
H14   H     H_    0.539627 0.240718 0.960482 0.268212
O11   O     O_3   0.474341 0.674691 0.850711 -0.589543
C45   C     C_3   0.385183 0.709262 0.851959 0.102105
H15   H     H_    0.340807 0.659625 0.879642 0.136960
H16   H     H_    0.358925 0.721377 0.798016 0.141516
C46   C     C_3   0.382680 0.802405 0.890701 -0.785294
H17   H     H_    0.424271 0.854469 0.863267 0.258581
H18   H     H_    0.312633 0.829701 0.893106 0.201155
H19   H     H_    0.409037 0.792587 0.944641 0.266480
O12   O     O_3   0.495667 0.335608 0.141569 -0.593716
C47   C     C_3   0.430116 0.268950 0.157943 0.107566
H20   H     H_    0.361488 0.301303 0.158562 0.129908
H21   H     H_    0.445417 0.235705 0.209302 0.175557
C48   C     C_3   0.430816 0.192293 0.102759 -0.780190
H22   H     H_    0.498288 0.158377 0.100278 0.260450
H23   H     H_    0.380949 0.138239 0.115899 0.206913
H24   H     H_    0.413300 0.222865 0.050973 0.266207
O13   O     O_3   0.060983 0.554312 0.359470 -0.556863
C49   C     C_3   0.044418 0.472598 0.320143 0.084197
H25   H     H_    0.985721 0.435483 0.341293 0.129742
H26   H     H_    0.103633 0.423896 0.319352 0.122680
C50   C     C_3   0.022558 0.500765 0.245318 -0.781775
H27   H     H_    0.080214 0.537651 0.222330 0.241755
H28   H     H_    0.008501 0.437175 0.213831 0.202435
H29   H     H_    0.962643 0.548149 0.243876 0.273638
O14   O     O_3   0.966385 0.344995 0.515014 -0.559407
C51   C     C_3   0.993615 0.293184 0.455995 0.065343
H30   H     H_    0.046104 0.331332 0.427435 0.122812
H31   H     H_    0.936165 0.278610 0.420153 0.132114
C52   C     C_3   0.034118 0.199668 0.479832 -0.786455
H32   H     H_    0.983441 0.158868 0.508426 0.254148
H33   H     H_    0.056621 0.158489 0.433880 0.201906
H34   H     H_    0.092697 0.211779 0.514689 0.264166
O15   O     O_3   0.940479 0.664349 0.427650 -0.516141
C53   C     C_3   0.951953 0.729861 0.482048 0.138386
H35   H     H_    0.008793 0.707337 0.516425 0.098311
H36   H     H_    0.890107 0.739157 0.513646 0.160137
C54   C     C_3   0.974435 0.824666 0.450799 -0.731799
H37   H     H_    0.918429 0.849982 0.416704 0.270628
H38   H     H_    0.985223 0.876582 0.493115 0.197098
H39   H     H_    0.036395 0.818397 0.419476 0.249261
O16   O     O_3   0.037440 0.479100 0.605896 -0.558523
C55   C     C_3   0.008115 0.564578 0.635853 0.072166
H40   H     H_    0.959610 0.601690 0.600756 0.114935
H41   H     H_    0.065559 0.611147 0.647819 0.136615
C56   C     C_3   0.959970 0.543849 0.703468 -0.788406
H42   H     H_    0.006325 0.507204 0.740582 0.256546
H43   H     H_    0.935998 0.610579 0.727394 0.202974
H44   H     H_    0.901407 0.498705 0.692849 0.262385
O17   O     O_3   0.250222 0.542547 0.372893 -0.809548
H45   H     H_    0.214240 0.560572 0.331207 0.363915
O18   O     O_3   0.779309 0.337363 0.522656 -0.758222
H46   H     H_    0.824047 0.286739 0.532145 0.363062
O19   O     O_3   0.760281 0.650823 0.422300 -0.661697
H47   H     H_    0.708254 0.623715 0.397447 0.341043
O20   O     O_3   0.226663 0.469525 0.615770 -0.764320
H48   H     H_    0.182640 0.461693 0.653470 0.377969
O21   O     O_3   0.457372 0.064342 0.375443 -0.727694
H49   H     H_    0.481057 0.999035 0.375219 0.352817
O22   O     O_3   0.661978 0.934163 0.526394 -0.724803
H50   H     H_    0.660751 0.999314 0.508442 0.351014
O23   O     O_3   0.538384 0.060654 0.624140 -0.753096
H51   H     H_    0.514357 0.996382 0.623081 0.351515
O24   O     O_3   0.339401 0.941165 0.473171 -0.728398
H52   H     H_    0.341010 0.006096 0.491328 0.345931
O25   O     O_3   0.431439 0.254263 0.387654 -0.559293
C57   C     C_3   0.337219 0.246954 0.390547 0.144571
H53   H     H_    0.311122 0.271084 0.441833 0.139953
H54   H     H_    0.316004 0.173320 0.381621 0.173350
C58   C     C_3   0.294529 0.308027 0.333903 -0.829374
H55   H     H_    0.312301 0.280112 0.281825 0.229888
H56   H     H_    0.220574 0.307921 0.339119 0.193184
H57   H     H_    0.318526 0.381041 0.338506 0.295689
O26   O     O_3   0.650381 0.744610 0.542566 -0.510393
C59   C     C_3   0.657124 0.749950 0.615994 0.179544
H58   H     H_    0.592140 0.735005 0.641424 0.106522
H59   H     H_    0.679459 0.820839 0.632267 0.173315
C60   C     C_3   0.726188 0.677777 0.642025 -0.816700
H60   H     H_    0.791682 0.689280 0.616726 0.240963
H61   H     H_    0.734882 0.684390 0.699380 0.207078
H62   H     H_    0.703551 0.605637 0.630043 0.246549
O27   O     O_3   0.557799 0.252939 0.615762 -0.572130
C61   C     C_3   0.648011 0.230414 0.633116 0.183372
H63   H     H_    0.689201 0.213411 0.586515 0.151329
H64   H     H_    0.651043 0.169518 0.669328 0.185388
C62   C     C_3   0.689609 0.313464 0.670668 -0.805254
H65   H     H_    0.654989 0.326614 0.720714 0.214594
H66   H     H_    0.761560 0.298167 0.681769 0.220740
H67   H     H_    0.683885 0.377689 0.637956 0.283746
O28   O     O_3   0.348141 0.750905 0.460987 -0.544306
C63   C     C_3   0.333355 0.758345 0.388085 0.191278
H68   H     H_    0.351924 0.690285 0.363753 0.174777
H69   H     H_    0.372570 0.814025 0.361656 0.103057
C64   C     C_3   0.234312 0.778254 0.373753 -0.750147
H70   H     H_    0.215405 0.849226 0.393165 0.271358
H71   H     H_    0.220579 0.775273 0.316781 0.189178
H72   H     H_    0.192696 0.725561 0.400357 0.275462

loop_
_geom_bond_atom_site_label_1
_geom_bond_atom_site_label_2
_ccdc_geom_bond_type
C61   H64   S    
O13   C49   S    
C22   C29   A    
O5    Zn1   S    
C46   H19   S    
C44   H13   S    
C32   N1    A    
C2    C4    S    
C58   H57   S    
C55   H41   S    
C50   H27   S    
O3    Zn1   S    
O22   H50   S    
C20   C30   A    
O12   C47   S    
C25   C28   A    
C7    C11   A    
C52   H33   S    
C26   C27   A    
O28   C63   S    
N5    Zn2   S    
C25   O11   S    
N6    Zn1   S    
C7    O21   S    
O10   C43   S    
C5    C6    S    
C45   H16   S    
O7    Zn1   S    
O8    Zn2   S    
C15   C16   S    
C5    C36   A    
C17   C29   S    
C6    C35   A    
C51   C52   S    
C44   H12   S    
C9    C13   A    
C55   H40   S    
C56   H44   S    
C41   H6    S    
O2    Zn2   S    
C61   C62   S    
C58   H56   S    
C53   H35   S    
C9    O23   S    
O27   C61   S    
C22   H4    S    
C20   C24   A    
C42   H8    S    
C31   N2    A    
C5    C33   A    
C62   H66   S    
C43   H10   S    
C18   C30   S    
C23   C27   A    
C48   H23   S    
C17   O5    A    
C21   C30   A    
C35   O15   S    
C18   O6    A    
C17   O8    A    
C49   H26   S    
C54   H39   S    
C7    C15   A    
O17   H45   S    
C8    C16   A    
C31   N3    A    
C8    O22   S    
C63   H69   S    
C32   N4    A    
C57   C58   S    
O9    C41   S    
C13   O27   S    
C46   H18   S    
C24   O10   S    
C58   H55   S    
C37   O17   S    
N1    N3    A    
C52   H34   S    
N2    N4    A    
C34   O14   S    
C47   H21   S    
O14   C51   S    
C36   C40   A    
C10   C14   A    
C48   H22   S    
C10   C16   A    
C45   H15   S    
O4    Zn2   S    
C39   O19   S    
C49   C50   S    
O11   C45   S    
C59   C60   S    
C46   H17   S    
C6    C34   A    
C47   C48   S    
C14   O28   S    
C55   C56   S    
C61   H63   S    
C19   C23   A    
C1    O4    A    
C41   H5    S    
C11   N5    A    
O21   H49   S    
C1    O1    A    
C18   O7    A    
C12   N6    A    
C4    C39   A    
C8    C12   A    
C42   H9    S    
C43   C44   S    
C49   H25   S    
C64   H70   S    
C48   H24   S    
C51   H31   S    
C36   O16   S    
C11   O25   S    
C53   C54   S    
C56   H42   S    
C2    O2    A    
C13   N5    A    
C40   O20   S    
C4    C38   A    
C3    C40   A    
C63   H68   S    
C44   H14   S    
C59   H59   S    
C60   H61   S    
C10   O24   S    
O20   H48   S    
C19   C29   A    
C62   H67   S    
C47   H20   S    
C33   C37   A    
C54   H37   S    
C52   H32   S    
C21   C25   A    
C50   H28   S    
C50   H29   S    
C41   C42   S    
C27   C32   S    
C34   C38   A    
C12   O26   S    
C28   C31   S    
C24   C28   A    
C2    O3    A    
C33   O13   S    
C20   H2    S    
O24   H52   S    
O18   H46   S    
O23   H51   S    
O16   C55   S    
O19   H47   S    
C62   H65   S    
O25   C57   S    
C45   C46   S    
C14   N6    A    
C26   O12   S    
C38   O18   S    
C35   C39   A    
C60   H62   S    
C64   H72   S    
C57   H54   S    
C9    C15   A    
C51   H30   S    
C53   H36   S    
C56   H43   S    
O6    Zn2   S    
C23   O9    S    
O1    Zn1   S    
C3    C37   A    
C63   C64   S    
C42   H7    S    
C22   C26   A    
O15   C53   S    
C57   H53   S    
C59   H58   S    
C43   H11   S    
C1    C3    S    
C60   H60   S    
O26   C59   S    
C21   H3    S    
C19   H1    S    
C54   H38   S    
C64   H71   S    
