data_mof_unit_6261.cif
_audit_creation_date              2012-12-10T18:01:15-0500
_audit_creation_method            fapswitch 2.2
_symmetry_space_group_name_H-M    P1
_symmetry_Int_Tables_number       1
_space_group_crystal_system       triclinic
_cell_length_a                    9.510732
_cell_length_b                    10.826975
_cell_length_c                    17.227626
_cell_angle_alpha                 90.507364
_cell_angle_beta                  86.587694
_cell_angle_gamma                 90.221517
_cell_volume                      1770.74652009

loop_
_atom_site_label
_atom_site_type_symbol
_atom_type_description
_atom_site_fract_x
_atom_site_fract_y
_atom_site_fract_z
_atom_type_partial_charge
C1    C     C_R   0.500191 0.737941 0.500270 0.783107
C2    C     C_R   0.499813 0.262060 0.500139 0.787554
C3    C     C_R   0.627841 0.936462 0.490940 -0.167133
C4    C     C_R   0.372538 0.063540 0.511046 -0.194655
C5    C     C_R   0.627634 0.064242 0.490738 -0.183892
C6    C     C_R   0.372646 0.935780 0.510860 -0.189978
C7    C     C_R   0.499899 0.128233 0.500572 -0.009854
C8    C     C_R   0.500294 0.871776 0.500691 -0.012827
C9    C     C_R   0.919562 0.577021 0.549471 0.591706
C10   C     C_R   0.080034 0.420240 0.452348 0.593050
C11   C     C_R   0.070177 0.577875 0.547837 -0.226606
C12   C     C_R   0.929821 0.422787 0.451804 -0.253262
C13   C     C_R   0.482292 0.496539 0.650406 0.844411
C14   C     C_R   0.517640 0.502404 0.349858 0.866386
C15   C     C_R   0.475407 0.483834 0.735569 -0.194210
C16   C     C_R   0.524792 0.516551 0.265382 -0.186467
C17   C     C_R   0.601686 0.466496 0.772544 -0.363727
C18   C     C_R   0.415679 0.580451 0.231870 -0.344535
C19   C     C_R   0.601512 0.455017 0.853482 0.527533
C20   C     C_R   0.416297 0.595261 0.151357 0.525606
C21   C     C_R   0.472300 0.457777 0.897129 -0.058403
C22   C     C_R   0.529407 0.548141 0.104741 -0.077132
C23   C     C_R   0.345824 0.472083 0.860976 -0.323377
C24   C     C_R   0.638860 0.484871 0.137565 -0.328000
C25   C     C_R   0.345808 0.482567 0.780181 0.502423
C26   C     C_R   0.639787 0.471377 0.218340 0.511301
C27   C     C_2   0.470880 0.455502 0.982863 0.425730
C28   C     C_2   0.526663 0.553160 0.019413 0.485309
Cu1   Cu    Cu3+1 0.359340 0.499980 0.500000 0.992930
Cu2   Cu    Cu3+1 0.640660 0.500020 0.500000 0.991588
H1    H     H_    0.700551 0.459955 0.738369 0.183808
H2    H     H_    0.330717 0.620303 0.268437 0.179538
H3    H     H_    0.247049 0.476207 0.895677 0.171956
H4    H     H_    0.721705 0.444035 0.099931 0.172465
H5    H     H_    0.727540 0.888591 0.482961 0.163861
H6    H     H_    0.273063 0.111397 0.519829 0.150449
H7    H     H_    0.727260 0.112643 0.482517 0.146722
H8    H     H_    0.273025 0.887395 0.519089 0.149785
H9    H     H_    0.125590 0.641397 0.583978 0.176749
H10   H     H_    0.874818 0.363981 0.412622 0.186059
N1    N     N_R   0.147930 0.499970 0.499980 -0.216799
N2    N     N_R   0.852070 0.500030 0.500020 -0.215686
O1    O     O_R   0.381260 0.680340 0.500000 -0.603144
O2    O     O_R   0.618740 0.319660 0.500000 -0.598012
O3    O     O_R   0.618830 0.680370 0.500010 -0.543331
O4    O     O_R   0.381170 0.319630 0.499990 -0.552463
O5    O     O_R   0.367440 0.500000 0.613600 -0.546077
O6    O     O_R   0.632560 0.500000 0.386400 -0.557316
O7    O     O_R   0.605010 0.500030 0.613600 -0.555025
O8    O     O_R   0.394990 0.499970 0.386400 -0.544783
O9    O     O_3   0.743960 0.403287 0.251002 -0.566146
C29   C     C_3   0.874980 0.463558 0.238011 -0.324910
H11   H     H_    0.953537 0.417187 0.272697 0.198973
H12   H     H_    0.869835 0.562065 0.257206 0.155096
H13   H     H_    0.913825 0.456313 0.176060 0.151669
O10   O     O_3   0.219477 0.497831 0.745743 -0.574588
C30   C     C_3   0.155391 0.380868 0.738526 -0.334594
H14   H     H_    0.226285 0.314379 0.705816 0.163791
H15   H     H_    0.060092 0.391127 0.705077 0.174750
H16   H     H_    0.121484 0.343023 0.796515 0.158777
O11   O     O_3   0.573029 0.655583 0.975789 -0.593167
C31   C     C_3   0.657740 0.736469 0.017668 -0.310161
H17   H     H_    0.698670 0.809919 0.977843 0.186311
H18   H     H_    0.750261 0.687597 0.039231 0.150034
H19   H     H_    0.595072 0.782251 0.066213 0.188673
O12   O     O_3   0.408504 0.360140 0.027172 -0.612252
C32   C     C_3   0.408990 0.247105 0.985797 -0.301956
H20   H     H_    0.330019 0.247811 0.940809 0.163224
H21   H     H_    0.378590 0.172334 0.027144 0.200038
H22   H     H_    0.515758 0.224792 0.959499 0.178375
O13   O     O_3   0.311604 0.661046 0.117522 -0.572994
C33   C     C_3   0.181918 0.598194 0.129010 -0.323474
H23   H     H_    0.138816 0.608465 0.190064 0.154612
H24   H     H_    0.190919 0.498683 0.112459 0.190148
H25   H     H_    0.105083 0.640301 0.091201 0.181456
O14   O     O_3   0.723536 0.431725 0.891534 -0.597049
C34   C     C_3   0.832716 0.514394 0.868016 -0.301778
H26   H     H_    0.794159 0.610089 0.859370 0.180591
H27   H     H_    0.890590 0.479387 0.814626 0.163093
H28   H     H_    0.908736 0.519014 0.914370 0.185542
O15   O     O_3   0.837644 0.658760 0.595320 -0.547527
C35   C     C_3   0.890492 0.677619 0.669349 -0.358367
H29   H     H_    0.973010 0.750558 0.666772 0.168233
H30   H     H_    0.930936 0.591070 0.694094 0.160215
H31   H     H_    0.803153 0.710776 0.709675 0.195664
O16   O     O_3   0.161747 0.345677 0.401624 -0.541687
C36   C     C_3   0.104301 0.225816 0.395156 -0.364360
H32   H     H_    0.023573 0.223810 0.351176 0.169861
H33   H     H_    0.060061 0.189946 0.451965 0.136288
H34   H     H_    0.189833 0.162216 0.374257 0.206264

loop_
_geom_bond_atom_site_label_1
_geom_bond_atom_site_label_2
_ccdc_geom_bond_type
C36   H32   S    
C4    H6    S    
C5    H7    S    
C1    C8    S    
Cu2   O3    S    
C2    C7    S    
C25   O10   S    
O15   C35   S    
C34   H26   S    
C2    O4    A    
C9    N2    A    
C31   H17   S    
Cu1   O5    S    
Cu2   O6    S    
C19   O14   S    
C19   C21   A    
C24   C26   A    
C33   H25   S    
C30   H15   S    
O10   C30   S    
C31   H18   S    
C1    O1    A    
C2    O2    A    
C23   H3    S    
C12   N2    A    
C6    H8    S    
C20   O13   S    
C18   C20   A    
C29   H13   S    
C28   O11   S    
O12   C32   S    
C21   C27   S    
C22   C28   S    
Cu1   O1    S    
C10   N1    A    
Cu2   O2    S    
C4    C7    A    
C29   H12   S    
Cu1   O8    S    
C34   H27   S    
C16   C26   A    
C32   H20   S    
O14   C34   S    
C4    C6    A    
C3    C8    A    
C5    C7    A    
O16   C36   S    
C30   H16   S    
C6    C8    A    
C24   H4    S    
O9    C29   S    
C32   H21   S    
C12   H10   S    
Cu1   Cu2   S    
C3    H5    S    
C11   H9    S    
C9    C11   A    
C10   C12   A    
C13   O7    A    
C33   H24   S    
Cu2   O7    S    
C20   C22   A    
C35   H30   S    
C13   C15   S    
C17   H1    S    
C14   C16   S    
C18   H2    S    
C29   H11   S    
C13   O5    A    
C34   H28   S    
C15   C17   A    
C10   O16   S    
C31   H19   S    
Cu1   N1    S    
C33   H23   S    
C3    C5    A    
C14   O6    A    
C35   H31   S    
Cu1   O4    S    
C32   H22   S    
C21   C23   A    
O13   C33   S    
C27   O12   S    
C26   O9    S    
C1    O3    A    
C30   H14   S    
C14   O8    A    
C17   C19   A    
C11   N1    A    
C22   C24   A    
C23   C25   A    
O11   C31   S    
C15   C25   A    
C16   C18   A    
C35   H29   S    
C36   H34   S    
C27   C28   D    
C36   H33   S    
Cu2   N2    S    
C9    O15   S    
