data_mof_unit_36596.cif
_audit_creation_date              2012-12-10T16:53:10-0500
_audit_creation_method            fapswitch 2.2
_symmetry_space_group_name_H-M    P1
_symmetry_Int_Tables_number       1
_space_group_crystal_system       triclinic
_cell_length_a                    10.802073
_cell_length_b                    10.935234
_cell_length_c                    9.717045
_cell_angle_alpha                 90.885304
_cell_angle_beta                  90.093121
_cell_angle_gamma                 90.427379
_cell_volume                      1147.63772832

loop_
_atom_site_label
_atom_site_type_symbol
_atom_type_description
_atom_site_fract_x
_atom_site_fract_y
_atom_site_fract_z
_atom_type_partial_charge
C1    C     C_R   0.499129 0.265654 0.498435 0.827249
C2    C     C_R   0.064449 0.403066 0.588623 0.105584
C3    C     C_R   0.128635 0.484433 0.500827 -0.095281
C4    C     C_R   0.064122 0.559160 0.410782 -0.201492
C5    C     C_R   0.936511 0.559444 0.410809 -0.175542
C6    C     C_R   0.870827 0.484265 0.500095 -0.097864
C7    C     C_2   0.558645 0.935308 0.399558 0.403025
C8    C     C_2   0.533928 0.864738 0.508077 -0.430266
C9    C     C_2   0.575473 0.067337 0.423340 0.109439
C10   C     C_2   0.487789 0.133613 0.491061 0.012023
C11   C     C_2   0.401636 0.487688 0.924327 0.036572
C12   C     C_R   0.262608 0.494161 0.500157 0.774973
C13   C     C_2   0.401515 0.512720 0.077094 0.014403
C14   C     C_R   0.509012 0.734188 0.501104 0.894661
C15   C     C_R   0.737230 0.494512 0.500038 0.772029
C16   C     C_R   0.126829 0.319991 0.674454 -0.206972
C17   C     C_R   0.061322 0.238414 0.756099 -0.134530
C18   C     C_R   0.932826 0.236232 0.752773 -0.112376
C19   C     C_R   0.869068 0.316295 0.668601 -0.162267
C20   C     C_R   0.933382 0.402064 0.586965 0.099833
Cu1   Cu    Cu3+1 0.500020 0.500020 0.638630 1.030090
Cu2   Cu    Cu3+1 0.499980 0.499980 0.361370 1.002635
H1    H     H_    0.112953 0.620525 0.342720 0.161127
H2    H     H_    0.314528 0.460326 0.877306 0.101243
H3    H     H_    0.314718 0.537867 0.125141 0.139678
H4    H     H_    0.571964 0.453588 0.108427 0.245256
H5    H     H_    0.226310 0.314677 0.678376 0.152440
H6    H     H_    0.110665 0.175292 0.820675 0.148124
H7    H     H_    0.882251 0.171222 0.814499 0.151545
H8    H     H_    0.769491 0.307420 0.666322 0.152300
H9    H     H_    0.888638 0.621220 0.343023 0.180619
H10   H     H_    0.536149 0.905568 0.610786 0.159256
N1    N     N_2   0.498640 0.498660 0.846910 -0.010636
N2    N     N_2   0.498610 0.498630 0.153040 -0.240334
O1    O     O_R   0.500020 0.321960 0.617040 -0.598211
O2    O     O_R   0.499980 0.321920 0.382900 -0.585995
O3    O     O_R   0.319670 0.500020 0.617100 -0.602786
O4    O     O_R   0.319630 0.499980 0.382950 -0.591987
O5    O     O_R   0.500020 0.678080 0.617100 -0.538880
O6    O     O_R   0.499980 0.678040 0.382960 -0.505628
O7    O     O_R   0.680370 0.500020 0.617050 -0.535618
O8    O     O_R   0.680330 0.499980 0.382900 -0.575604
C21   C     C_3   0.364915 0.080478 0.536918 -0.896061
H11   H     H_    0.293558 0.152516 0.543501 0.223282
H12   H     H_    0.329421 0.011266 0.461622 0.254067
H13   H     H_    0.374096 0.039631 0.640159 0.244312
Cl1   Cl    Cl    0.619028 0.592565 0.905482 -0.458223
Cl2   Cl    Cl    0.573120 0.879475 0.228493 -0.547295
C22   C     C_3   0.692847 0.125501 0.368715 -0.796523
H14   H     H_    0.758154 0.055116 0.329716 0.256870
H15   H     H_    0.671037 0.187296 0.282624 0.254303
H16   H     H_    0.740670 0.177912 0.451982 0.193430

loop_
_geom_bond_atom_site_label_1
_geom_bond_atom_site_label_2
_ccdc_geom_bond_type
C13   N2    D    
C21   H11   S    
Cu1   O1    S    
C2    C16   A    
C2    C20   A    
C6    C20   A    
C9    C10   D    
C10   C21   S    
C15   O8    A    
C19   C20   A    
Cu1   O5    S    
C11   N1    D    
C22   H16   S    
Cu2   O6    S    
C7    Cl2   S    
C17   H6    S    
C16   H5    S    
C2    C3    A    
C14   O5    A    
C9    C22   S    
C7    C8    D    
C18   H7    S    
Cu1   Cu2   S    
C21   H12   S    
C13   H3    S    
Cu2   O8    S    
Cu1   O7    S    
C17   C18   A    
C12   O4    A    
C5    C6    A    
Cu2   N2    S    
C21   H13   S    
Cu1   N1    S    
N1    Cl1   S    
C3    C4    A    
Cu2   O4    S    
C16   C17   A    
C11   H2    S    
C11   C13   S    
Cu1   O3    S    
C15   O7    A    
C22   H14   S    
C12   O3    A    
C7    C9    S    
C4    H1    S    
C18   C19   A    
C8    C14   S    
C3    C12   S    
C1    O1    A    
C5    H9    S    
C6    C15   S    
C19   H8    S    
C14   O6    A    
H4    N2    S    
Cu2   O2    S    
C1    C10   S    
C1    O2    A    
C4    C5    A    
C22   H15   S    
C8    H10   S    
