data_mof_unit_43905.cif
_audit_creation_date              2012-10-26T20:57:30-0400
_audit_creation_method            fapswitch 2.2
_symmetry_space_group_name_H-M    P1
_symmetry_Int_Tables_number       1
_space_group_crystal_system       triclinic
_cell_length_a                    14.922115
_cell_length_b                    14.92698
_cell_length_c                    15.812385
_cell_angle_alpha                 72.364809
_cell_angle_beta                  102.167863
_cell_angle_gamma                 116.509362
_cell_volume                      2991.84758345

loop_
_atom_site_label
_atom_site_type_symbol
_atom_type_description
_atom_site_fract_x
_atom_site_fract_y
_atom_site_fract_z
_atom_type_partial_charge
Br1   Br    Br    0.638702 0.781042 0.634854 -0.486208
Br2   Br    Br    0.361470 0.218866 0.362567 -0.473110
Br3   Br    Br    0.300827 0.741687 0.637911 -0.391954
Br4   Br    Br    0.700467 0.259026 0.360857 -0.393695
C1    C     C_R   0.880533 0.312383 0.513340 0.576535
C2    C     C_R   0.360331 0.923978 0.488417 0.023798
C3    C     C_R   0.670945 0.997586 0.563156 0.045122
C4    C     C_R   0.329218 0.002364 0.434919 0.042974
C5    C     C_R   0.535435 0.052137 0.488745 0.007977
C6    C     C_R   0.464869 0.947925 0.508980 0.008456
C7    C     C_R   0.501260 0.870466 0.544194 -0.051148
C8    C     C_R   0.499005 0.129561 0.453315 -0.035479
C9    C     C_R   0.601351 0.894166 0.576496 0.172268
C10   C     C_R   0.398861 0.105786 0.421130 0.174450
C11   C     C_R   0.681769 0.587345 0.317367 -0.122054
C12   C     C_R   0.119484 0.687637 0.486541 0.577713
C13   C     C_R   0.318223 0.412669 0.682627 -0.117890
C14   C     C_R   0.778718 0.600441 0.354928 0.037220
C15   C     C_R   0.221268 0.399545 0.645072 0.042675
C16   C     C_R   0.000099 0.499664 0.659709 0.573229
C17   C     C_R   0.000025 0.500533 0.340265 0.571839
C18   C     C_R   0.719204 0.521740 0.500520 0.377444
C19   C     C_R   0.280759 0.478160 0.499499 0.332096
C20   C     C_R   0.627138 0.532653 0.465638 0.002988
C21   C     C_R   0.372793 0.467339 0.534332 -0.011341
C22   C     C_R   0.604350 0.546686 0.372804 -0.002072
C23   C     C_R   0.771316 0.024467 0.599712 -0.087750
C24   C     C_R   0.395624 0.453379 0.627160 0.007565
C25   C     C_R   0.550814 0.515517 0.518272 0.042666
C26   C     C_R   0.449093 0.484653 0.481621 0.031755
C27   C     C_R   0.427248 0.469641 0.394587 -0.000002
C28   C     C_R   0.572677 0.530651 0.605271 -0.023307
C29   C     C_R   0.503741 0.510923 0.338115 -0.035601
C30   C     C_R   0.496237 0.489249 0.661800 -0.049360
C31   C     C_3   0.019721 0.422907 0.054344 0.235385
C32   C     C_3   0.981467 0.579232 0.945311 0.230597
C33   C     C_3   0.928894 0.410672 0.983157 -0.151906
C34   C     C_R   0.228661 0.975390 0.398891 -0.087835
C35   C     C_3   0.072287 0.591431 0.016522 -0.138528
C36   C     C_1   0.000717 0.499693 0.749433 0.099667
C37   C     C_1   0.999874 0.501264 0.250424 0.111987
C38   C     C_3   0.090367 0.511260 0.987186 0.234866
C39   C     C_3   0.910810 0.490865 0.012464 0.228562
C40   C     C_3   0.000670 0.500458 0.916402 -0.071687
C41   C     C_3   0.000490 0.501669 0.083238 -0.066003
C42   C     C_1   0.000779 0.499897 0.824948 0.083712
C43   C     C_1   0.000149 0.501735 0.174787 0.103209
C44   C     C_R   0.812005 0.203186 0.524304 0.037162
C45   C     C_R   0.839686 0.127245 0.584226 -0.144184
C46   C     C_R   0.188075 0.796875 0.475053 0.036366
C47   C     C_R   0.160204 0.872639 0.415032 -0.142503
C48   C     C_R   0.715358 0.175271 0.479329 0.145435
C49   C     C_R   0.285038 0.824941 0.519401 0.141646
C50   C     C_R   0.639957 0.076084 0.509683 0.025266
Cu1   Cu    Cu3+1 0.081740 0.475690 0.522610 1.089776
Cu2   Cu    Cu3+1 0.918260 0.524310 0.477390 1.097612
H1    H     H_    0.870377 0.336928 0.969073 0.186417
H2    H     H_    0.914559 0.147160 0.618278 0.148196
H3    H     H_    0.796774 0.967329 0.643289 0.191383
H4    H     H_    0.203076 0.032419 0.355288 0.189606
H5    H     H_    0.452494 0.790368 0.547218 0.177701
H6    H     H_    0.547705 0.209684 0.450166 0.197061
H7    H     H_    0.484136 0.509621 0.268362 0.168177
H8    H     H_    0.515882 0.490444 0.731574 0.163463
H9    H     H_    0.429083 0.687004 0.410621 0.344176
H10   H     H_    0.762309 0.453596 0.744901 0.386232
H11   H     H_    0.074028 0.194760 0.114339 0.377577
H12   H     H_    0.130800 0.665174 0.030611 0.193912
H13   H     H_    0.932406 0.810330 0.886991 0.378308
H14   H     H_    0.650270 0.459178 0.950502 0.378550
H15   H     H_    0.350497 0.541378 0.049094 0.376321
H16   H     H_    0.162447 0.369999 0.688717 0.155397
H17   H     H_    0.837540 0.629992 0.311282 0.156448
H18   H     H_    0.666728 0.604943 0.245524 0.150859
H19   H     H_    0.333287 0.395102 0.754467 0.148634
H20   H     H_    0.350903 0.431218 0.368362 0.210919
H21   H     H_    0.649121 0.568513 0.631599 0.214404
H22   H     H_    0.085131 0.852614 0.381396 0.148148
N1    N     N_R   0.795440 0.560790 0.443380 -0.252631
N2    N     N_R   0.204560 0.439210 0.556620 -0.250192
O1    O     O_R   0.977900 0.338120 0.529810 -0.524251
O2    O     O_2   0.233348 0.638008 0.379958 -0.261458
O3    O     O_3   0.400651 0.645691 0.365213 -0.510078
O4    O     O_2   0.612463 0.364654 0.632849 -0.297276
O5    O     O_2   0.766784 0.362295 0.619875 -0.258726
O6    O     O_3   0.777612 0.503938 0.686639 -0.509417
O7    O     O_2   0.137851 0.358433 0.188246 -0.186843
O8    O     O_2   0.956487 0.250032 0.184172 -0.244879
O9    O     O_3   0.057946 0.249419 0.069275 -0.464936
O10   O     O_2   0.043428 0.750506 0.813720 -0.238898
O11   O     O_2   0.861642 0.644977 0.814191 -0.197171
O12   O     O_R   0.022100 0.661880 0.470190 -0.522353
O13   O     O_3   0.948563 0.755466 0.931621 -0.465238
O14   O     O_2   0.747462 0.380559 0.103788 -0.218881
O15   O     O_2   0.801292 0.568287 0.058126 -0.229391
O16   O     O_3   0.713886 0.463251 0.936643 -0.475565
O17   O     O_2   0.199536 0.434714 0.939753 -0.233306
O18   O     O_2   0.254330 0.622586 0.896768 -0.218386
O19   O     O_3   0.286799 0.536828 0.063246 -0.445358
O20   O     O_R   0.839850 0.379180 0.491620 -0.422716
O21   O     O_R   0.160150 0.620820 0.508380 -0.428127
O22   O     O_R   0.069010 0.479460 0.640020 -0.519466
O23   O     O_R   0.930990 0.520540 0.359980 -0.520913
O24   O     O_R   0.930960 0.520530 0.601820 -0.415487
O25   O     O_R   0.069040 0.479470 0.398180 -0.421786
O26   O     O_2   0.230836 0.505180 0.320982 -0.228576
S1    S     S_3+6 0.282026 0.566474 0.390459 0.042917
S2    S     S_3+6 0.718547 0.434042 0.609928 0.033552
S3    S     S_3+6 0.043724 0.317802 0.128605 0.096857
S4    S     S_3+6 0.957931 0.684868 0.871590 0.095267
S5    S     S_3+6 0.790504 0.475556 0.030985 0.088246
S6    S     S_3+6 0.210625 0.526584 0.968500 0.097175

loop_
_geom_bond_atom_site_label_1
_geom_bond_atom_site_label_2
_ccdc_geom_bond_type
C11   C14   A    
Cu1   Cu2   S    
Br3   C49   S    
C35   H12   S    
C21   C24   A    
C36   C42   T    
Cu1   O22   S    
Cu2   N1    S    
C4    C34   A    
Cu1   O25   S    
O11   S4    D    
C31   C33   S    
C20   C22   A    
C18   N1    A    
C25   C28   A    
H13   O13   S    
C26   C27   A    
C16   C36   S    
H9    O3    S    
C16   O22   A    
O26   S1    D    
O9    S3    S    
O14   S5    D    
H11   O9    S    
C3    C23   A    
C31   C38   S    
C38   S6    S    
C20   C25   A    
O4    S2    D    
C28   H21   S    
C48   C50   A    
C14   N1    A    
C27   C29   A    
C19   N2    A    
Cu1   O1    S    
O5    S2    D    
C5    C6    A    
C31   S3    S    
O13   S4    S    
C35   C41   S    
C24   C30   A    
C15   H16   S    
C38   C40   S    
Br2   C10   S    
C17   O23   A    
O16   S5    S    
C40   C42   S    
C35   C38   S    
C41   C43   S    
C1    C44   S    
C46   C49   A    
O18   S6    D    
Cu2   O24   S    
C6    C7    A    
O17   S6    D    
C11   C22   A    
C2    C4    A    
C34   C47   A    
H15   O19   S    
C45   H2    S    
C28   C30   A    
C33   C39   S    
H14   O16   S    
C2    C6    A    
C25   C26   A    
C8    H6    S    
C22   C29   A    
C1    O20   A    
Cu2   O12   S    
C29   H7    S    
C19   S1    S    
C30   H8    S    
C46   C47   A    
C37   C43   T    
O2    S1    D    
C39   C41   S    
C17   C37   S    
O8    S3    D    
C44   C45   A    
Br4   C48   S    
C12   O12   A    
C14   H17   S    
C32   S4    S    
C34   H4    S    
C32   C40   S    
Br1   C9    S    
Cu2   O20   S    
C2    C49   A    
C31   C41   S    
C1    O1    A    
C21   C26   A    
C4    C10   A    
C13   C24   A    
C32   C35   S    
O6    S2    S    
Cu2   O23   S    
C8    C10   A    
C7    H5    S    
H10   O6    S    
O7    S3    D    
Cu1   O21   S    
C33   C40   S    
C47   H22   S    
O15   S5    D    
Cu1   N2    S    
C7    C9    A    
C27   H20   S    
C18   S2    S    
O19   S6    S    
C13   C15   A    
O3    S1    S    
C18   C20   A    
C19   C21   A    
C15   N2    A    
C12   C46   S    
C5    C8    A    
C17   O25   A    
C16   O24   A    
C39   S5    S    
C12   O21   A    
C3    C9    A    
C11   H18   S    
C13   H19   S    
O10   S4    D    
C32   C39   S    
C23   H3    S    
C5    C50   A    
C3    C50   A    
C44   C48   A    
C33   H1    S    
C23   C45   A    
