data_mof_unit_48206.cif
_audit_creation_date              2012-12-10T17:04:29-0500
_audit_creation_method            fapswitch 2.2
_symmetry_space_group_name_H-M    P1
_symmetry_Int_Tables_number       1
_space_group_crystal_system       triclinic
_cell_length_a                    14.982195
_cell_length_b                    10.726915
_cell_length_c                    10.02842
_cell_angle_alpha                 90.268349
_cell_angle_beta                  90.439128
_cell_angle_gamma                 91.679653
_cell_volume                      1610.93554784

loop_
_atom_site_label
_atom_site_type_symbol
_atom_type_description
_atom_site_fract_x
_atom_site_fract_y
_atom_site_fract_z
_atom_type_partial_charge
C1    C     C_R   0.503757 0.262912 0.499759 0.903639
C2    C     C_R   0.178806 0.386150 0.437068 0.123746
C3    C     C_R   0.230280 0.485692 0.497720 -0.234447
C4    C     C_R   0.326711 0.491668 0.499310 0.987892
C5    C     C_R   0.188705 0.587889 0.555578 0.513797
C6    C     C_2   0.519600 0.933420 0.388406 -0.150592
C7    C     C_2   0.519045 0.868706 0.501804 -0.287604
C8    C     C_2   0.526035 0.067952 0.391042 -0.143689
C9    C     C_2   0.501987 0.130779 0.499495 -0.315933
C10   C     C_2   0.560218 0.560802 0.926090 0.227535
C11   C     C_2   0.549577 0.575322 0.075894 -0.156712
C12   C     C_R   0.909848 0.601496 0.557878 0.040164
C13   C     C_R   0.504059 0.737357 0.500304 0.978130
C14   C     C_R   0.672830 0.503613 0.500197 0.954622
C15   C     C_R   0.816962 0.600651 0.563216 0.547786
C16   C     C_R   0.767901 0.505503 0.498400 -0.194235
C17   C     C_R   0.808825 0.414818 0.423049 -0.281612
C18   C     C_R   0.900876 0.413952 0.416556 -0.018305
C19   C     C_R   0.952058 0.506223 0.486165 -0.039321
C20   C     C_3   0.714195 0.650664 0.942262 -0.712557
C21   C     C_3   0.302934 0.231732 0.411888 -0.735032
C22   C     C_R   0.942471 0.321736 0.342983 0.644007
C23   C     C_R   0.034551 0.316060 0.345114 -0.274916
C24   C     C_R   0.086727 0.401832 0.421486 -0.043111
C25   C     C_R   0.045254 0.501577 0.486230 -0.022847
C26   C     C_R   0.096291 0.594075 0.554704 0.021602
C27   C     C_R   0.053991 0.691358 0.620852 -0.153104
C28   C     C_R   0.961268 0.694522 0.623287 -0.177949
F1    F     F_    0.774126 0.693627 0.626496 -0.701985
F2    F     F_    0.894144 0.235185 0.271519 -0.664584
F3    F     F_    0.238923 0.681283 0.613935 -0.668280
H1    H     H_    0.532470 0.910973 0.598554 0.153951
H2    H     H_    0.930044 0.768972 0.677485 0.200805
H3    H     H_    0.513232 0.887975 0.291588 0.173778
H4    H     H_    0.620747 0.681748 0.789873 0.282876
H5    H     H_    0.771964 0.669061 0.876086 0.287154
H6    H     H_    0.731292 0.572512 0.009272 0.243988
H7    H     H_    0.702862 0.736477 0.001377 0.217760
H8    H     H_    0.169604 0.192115 0.439991 0.240833
H9    H     H_    0.308769 0.130995 0.388280 0.237923
H10   H     H_    0.329307 0.247381 0.514251 0.219629
H11   H     H_    0.340165 0.282978 0.333761 0.276024
H12   H     H_    0.546629 0.115617 0.300447 0.179596
H13   H     H_    0.476616 0.086633 0.589021 0.156773
H14   H     H_    0.443568 0.469193 0.897661 0.148469
H15   H     H_    0.587600 0.648610 0.127313 0.174435
H16   H     H_    0.470861 0.425562 0.101006 0.161519
H17   H     H_    0.768360 0.343915 0.371425 0.221543
H18   H     H_    0.064482 0.243241 0.286905 0.191162
H19   H     H_    0.092343 0.763786 0.673090 0.203850
N1    N     N_2   0.500970 0.501330 0.852150 -0.217539
N2    N     N_2   0.500990 0.501360 0.147810 -0.206019
N3    N     N_2   0.635828 0.618095 0.862556 -0.245440
N4    N     N_2   0.210853 0.264018 0.406670 -0.311388
O1    O     O_R   0.499990 0.319060 0.613040 -0.621173
O2    O     O_R   0.500010 0.319100 0.386900 -0.631546
O3    O     O_R   0.367830 0.499950 0.613080 -0.581363
O4    O     O_R   0.367860 0.499990 0.386940 -0.618097
O5    O     O_R   0.499990 0.680900 0.613100 -0.619245
O6    O     O_R   0.500010 0.680940 0.386960 -0.618267
O7    O     O_R   0.632140 0.500010 0.613060 -0.583949
O8    O     O_R   0.632170 0.500050 0.386920 -0.625980
Zn1   Zn    Zn3+2 0.499980 0.499970 0.650990 0.990845
Zn2   Zn    Zn3+2 0.500020 0.500030 0.349010 0.950985

loop_
_geom_bond_atom_site_label_1
_geom_bond_atom_site_label_2
_ccdc_geom_bond_type
C4    O3    A    
C6    C8    S    
C23   C24   A    
C12   C15   A    
O3    Zn1   S    
C6    C7    D    
C13   O5    A    
N2    Zn2   S    
H4    N3    S    
C20   H7    S    
O5    Zn1   S    
C17   H17   S    
O6    Zn2   S    
C3    C5    A    
O2    Zn2   S    
C2    C3    A    
C1    O1    A    
N1    Zn1   S    
C7    H1    S    
C2    C24   A    
C20   H6    S    
C26   C27   A    
H16   N2    S    
C21   H9    S    
C12   C28   A    
C21   H10   S    
C10   N1    D    
C8    H12   S    
O1    Zn1   S    
C1    O2    A    
C28   H2    S    
C15   F1    S    
O4    Zn2   S    
C21   N4    S    
C19   C25   A    
C14   C16   S    
C23   H18   S    
H8    N4    S    
C16   C17   A    
C10   C11   S    
H14   N1    S    
C5    C26   A    
C20   H5    S    
C6    H3    S    
C7    C13   S    
C1    C9    S    
C24   C25   A    
C12   C19   A    
C27   H19   S    
C17   C18   A    
C18   C19   A    
C2    N4    S    
C4    O4    A    
C27   C28   A    
O7    Zn1   S    
C10   N3    S    
C22   C23   A    
C8    C9    D    
C9    H13   S    
O8    Zn2   S    
C11   N2    D    
C22   F2    S    
C5    F3    S    
C25   C26   A    
C18   C22   A    
C14   O7    A    
C15   C16   A    
C3    C4    S    
C21   H11   S    
C13   O6    A    
C20   N3    S    
C11   H15   S    
C14   O8    A    
