data_mof_unit_12789.cif
_audit_creation_date              2012-12-10T20:33:27-0500
_audit_creation_method            fapswitch 2.2
_symmetry_space_group_name_H-M    P1
_symmetry_Int_Tables_number       1
_space_group_crystal_system       triclinic
_cell_length_a                    14.146494
_cell_length_b                    10.663851
_cell_length_c                    9.889445
_cell_angle_alpha                 90.133537
_cell_angle_beta                  89.539439
_cell_angle_gamma                 89.693245
_cell_volume                      1491.80936287

loop_
_atom_site_label
_atom_site_type_symbol
_atom_type_description
_atom_site_fract_x
_atom_site_fract_y
_atom_site_fract_z
_atom_type_partial_charge
C1    C     C_R   0.495164 0.260564 0.499937 0.903549
C2    C     C_1   0.772249 0.500479 0.498641 -0.180468
C3    C     C_R   0.534786 0.064134 0.598467 0.062017
C4    C     C_R   0.483480 0.128922 0.502242 -0.110351
C5    C     C_R   0.416957 0.065722 0.419982 0.086664
C6    C     C_R   0.419859 0.933278 0.418852 -0.049898
C7    C     C_R   0.486155 0.871354 0.502088 -0.214270
C8    C     C_R   0.536869 0.937261 0.597730 0.061059
C9    C     C_3   0.638988 0.932003 0.638386 -0.040949
C10   C     C_3   0.635910 0.075124 0.639206 -0.479147
C11   C     C_R   0.430499 0.559538 0.072249 0.249136
C12   C     C_R   0.329204 0.500647 0.500507 0.920067
C13   C     C_R   0.573499 0.447290 0.069356 -0.017772
C14   C     C_R   0.573318 0.448776 0.925816 -0.171843
C15   C     C_R   0.430479 0.559408 0.929903 0.230252
C16   C     C_3   0.327411 0.531680 0.925309 -0.494284
C17   C     C_3   0.327395 0.531590 0.078755 -0.487463
C18   C     C_R   0.497088 0.739572 0.500118 0.903339
C19   C     C_R   0.670794 0.499758 0.499502 0.873626
C20   C     C_1   0.227731 0.501452 0.501378 -0.183544
C21   C     C_1   0.142485 0.501872 0.501162 -0.008695
C22   C     C_1   0.042618 0.501993 0.500290 0.017169
C23   C     C_1   0.957366 0.501789 0.499451 0.017379
C24   C     C_1   0.857494 0.501184 0.498718 0.010603
H1    H     H_    0.312366 0.438132 0.880685 0.215786
H2    H     H_    0.285946 0.610353 0.123504 0.222389
H3    H     H_    0.312383 0.437971 0.123141 0.207448
H4    H     H_    0.647737 0.890637 0.740748 0.178857
H5    H     H_    0.642946 0.115856 0.742181 0.197084
H6    H     H_    0.679980 0.121099 0.560085 0.196429
H7    H     H_    0.630819 0.405592 0.869406 0.163941
H8    H     H_    0.286177 0.610652 0.881744 0.219178
N1    N     N_R   0.499420 0.499140 0.142800 -0.150914
N2    N     N_R   0.499420 0.499180 0.857150 -0.112506
O1    O     O_R   0.500010 0.316790 0.614690 -0.616215
O2    O     O_R   0.500000 0.316760 0.385350 -0.577817
O3    O     O_R   0.373720 0.500020 0.614700 -0.604010
O4    O     O_R   0.373710 0.499980 0.385350 -0.604581
O5    O     O_R   0.500000 0.683240 0.614650 -0.601843
O6    O     O_R   0.499990 0.683210 0.385310 -0.604791
O7    O     O_R   0.626290 0.500020 0.614650 -0.604957
O8    O     O_R   0.626280 0.499980 0.385300 -0.584129
Zn1   Zn    Zn3+2 0.500010 0.500020 0.653130 0.950742
Zn2   Zn    Zn3+2 0.499990 0.499980 0.346870 0.980113
C25   C     C_3   0.339512 0.137171 0.345548 -0.394971
C26   C     C_3   0.261699 0.178255 0.443960 -0.867650
H9    H     H_    0.227231 0.094731 0.489158 0.277443
H10   H     H_    0.291091 0.236711 0.526327 0.245784
H11   H     H_    0.207515 0.233718 0.389310 0.253710
H12   H     H_    0.367599 0.219419 0.290812 0.232429
H13   H     H_    0.306185 0.080010 0.265688 0.232656
C27   C     C_2   0.353717 0.859652 0.335087 0.921176
O9    O     O_2   0.359604 0.863324 0.211738 -0.644725
O10   O     O_R   0.285903 0.784614 0.398092 -0.818245
H14   H     H_    0.244416 0.739403 0.330832 0.332884
C28   C     C_3   0.705619 0.875237 0.530252 -0.360698
C29   C     C_3   0.808915 0.887181 0.571290 -0.834678
H15   H     H_    0.828719 0.987397 0.581021 0.263246
H16   H     H_    0.821060 0.838992 0.669137 0.261284
H17   H     H_    0.854873 0.842832 0.492964 0.254849
H18   H     H_    0.689706 0.774085 0.518293 0.196732
H19   H     H_    0.694974 0.921521 0.430783 0.223096
C30   C     C_2   0.653749 0.385064 0.135355 0.960319
O11   O     O_2   0.733709 0.424980 0.117294 -0.643829
O12   O     O_R   0.639382 0.276911 0.211817 -0.782886
H20   H     H_    0.700181 0.242465 0.251072 0.325697

loop_
_geom_bond_atom_site_label_1
_geom_bond_atom_site_label_2
_ccdc_geom_bond_type
C14   N2    A    
C18   O5    A    
C30   O12   S    
O4    Zn2   S    
C6    C7    A    
C13   C14   A    
C16   H8    S    
O1    Zn1   S    
C9    C10   S    
C10   H6    S    
C15   N2    A    
C26   H11   S    
C19   O8    A    
C11   N1    A    
C14   H7    S    
C23   C24   S    
C7    C18   S    
C12   C20   S    
C3    C4    A    
C7    C8    A    
C28   H18   S    
C9    C28   S    
C12   O3    A    
C25   C26   S    
C28   C29   S    
C13   N1    A    
O7    Zn1   S    
C10   H5    S    
C29   H15   S    
C16   C17   S    
O8    Zn2   S    
C25   H12   S    
C17   H2    S    
C27   O10   S    
C3    C8    A    
C26   H10   S    
C22   C23   T    
C1    O2    A    
C2    C24   T    
C5    C6    A    
C28   H19   S    
O3    Zn1   S    
C29   H16   S    
C1    C4    S    
O2    Zn2   S    
C25   H13   S    
C15   C16   S    
C17   H3    S    
C12   O4    A    
C19   O7    A    
O6    Zn2   S    
C20   C21   T    
C1    O1    A    
O12   H20   S    
C26   H9    S    
C16   H1    S    
C3    C10   S    
C18   O6    A    
O10   H14   S    
C8    C9    S    
C29   H17   S    
O5    Zn1   S    
C5    C25   S    
C6    C27   S    
C2    C19   S    
C21   C22   S    
N1    Zn2   S    
C11   C15   A    
C11   C17   S    
N2    Zn1   S    
C30   O11   D    
C9    H4    S    
C27   O9    D    
C4    C5    A    
C13   C30   S    
