data_mof_unit_32749.cif
_audit_creation_date              2012-12-10T18:49:03-0500
_audit_creation_method            fapswitch 2.2
_symmetry_space_group_name_H-M    P1
_symmetry_Int_Tables_number       1
_space_group_crystal_system       triclinic
_cell_length_a                    10.817735
_cell_length_b                    9.812235
_cell_length_c                    14.158284
_cell_angle_alpha                 89.989774
_cell_angle_beta                  89.982183
_cell_angle_gamma                 90.205808
_cell_volume                      1502.83765805

loop_
_atom_site_label
_atom_site_type_symbol
_atom_type_description
_atom_site_fract_x
_atom_site_fract_y
_atom_site_fract_z
_atom_type_partial_charge
C1    C     C_R   0.259966 0.499799 0.500241 1.053008
C2    C     C_1   0.499601 0.499999 0.957396 0.038436
C3    C     C_R   0.062205 0.380978 0.475807 0.331085
C4    C     C_R   0.940632 0.625743 0.504390 0.304744
C5    C     C_R   0.939055 0.375329 0.500981 0.231093
C6    C     C_R   0.064109 0.618358 0.528807 0.298550
C7    C     C_R   0.873850 0.500698 0.502047 -0.436454
C8    C     C_R   0.127957 0.499609 0.501520 -0.424564
C9    C     C_R   0.528333 0.072013 0.580119 0.050802
C10   C     C_R   0.471286 0.927941 0.419953 -0.026765
C11   C     C_R   0.471646 0.071831 0.419883 0.023821
C12   C     C_R   0.740696 0.500285 0.500611 0.991909
C13   C     C_R   0.528366 0.928137 0.580114 0.026111
C14   C     C_R   0.499991 0.500008 0.329018 0.914755
C15   C     C_R   0.500100 0.499989 0.670982 0.903837
C16   C     C_1   0.499773 0.500002 0.227620 -0.146187
C17   C     C_1   0.499925 0.499987 0.772377 -0.151713
C18   C     C_1   0.499623 0.499985 0.142422 0.016579
C19   C     C_1   0.499750 0.500003 0.857573 0.014909
C20   C     C_1   0.499558 0.499988 0.042598 0.038751
H1    H     H_    0.551202 0.126295 0.644223 0.157685
H2    H     H_    0.447909 0.873589 0.355966 0.139131
H3    H     H_    0.448612 0.125994 0.355828 0.131743
H4    H     H_    0.551564 0.873936 0.644142 0.136535
H5    H     H_    0.252731 0.242853 0.284906 0.369016
H6    H     H_    0.749647 0.854068 0.361339 0.380400
H7    H     H_    0.839897 0.301237 0.683513 0.341911
H8    H     H_    0.270043 0.747221 0.713095 0.375300
N1    N     N_R   0.500000 0.857200 0.500000 -0.077329
N2    N     N_R   0.500000 0.142800 0.500000 -0.077286
O1    O     O_R   0.316770 0.614620 0.499990 -0.561353
O2    O     O_2   0.020607 0.181111 0.348529 -0.214369
O3    O     O_3   0.221309 0.320633 0.322347 -0.585248
O4    O     O_2   0.808914 0.850866 0.543896 -0.230486
O5    O     O_2   0.986431 0.880313 0.438441 -0.146896
O6    O     O_3   0.791441 0.765290 0.370091 -0.549116
O7    O     O_2   0.806234 0.146589 0.470274 -0.199047
O8    O     O_2   0.983569 0.125828 0.576219 -0.152400
O9    O     O_3   0.788795 0.245698 0.639956 -0.552107
O10   O     O_2   0.197585 0.849842 0.548660 -0.216965
O11   O     O_2   0.027411 0.814101 0.660202 -0.207773
O12   O     O_R   0.683230 0.385380 0.500010 -0.546443
O13   O     O_3   0.225672 0.670753 0.682292 -0.582692
O14   O     O_R   0.683230 0.614620 0.500010 -0.552751
O15   O     O_R   0.316770 0.385380 0.499990 -0.560638
O16   O     O_R   0.500000 0.614690 0.373720 -0.614537
O17   O     O_R   0.500000 0.385310 0.626280 -0.609811
O18   O     O_R   0.500000 0.614690 0.626280 -0.612407
O19   O     O_R   0.500000 0.385310 0.373720 -0.608518
O20   O     O_2   0.191250 0.147414 0.459652 -0.218827
S1    S     S_3+6 0.123449 0.250922 0.401249 0.104673
S2    S     S_3+6 0.882174 0.786602 0.465558 0.141556
S3    S     S_3+6 0.880002 0.217483 0.545739 0.137611
S4    S     S_3+6 0.128302 0.744929 0.605403 0.105891
Zn1   Zn    Zn3+2 0.500000 0.653120 0.500000 1.043565
Zn2   Zn    Zn3+2 0.500000 0.346880 0.500000 1.059275

loop_
_geom_bond_atom_site_label_1
_geom_bond_atom_site_label_2
_ccdc_geom_bond_type
O16   Zn1   S    
O18   Zn1   S    
C6    C8    A    
O2    S1    D    
O3    S1    S    
O19   Zn2   S    
C5    C7    A    
O13   S4    S    
C18   C20   S    
O6    S2    S    
C15   O17   A    
C1    O15   A    
O20   S1    D    
O7    S3    D    
C14   O16   A    
C10   H2    S    
O14   Zn1   S    
C9    H1    S    
O9    S3    S    
O8    S3    D    
C9    N2    A    
C6    S4    S    
C4    C7    A    
O1    Zn1   S    
C15   O18   A    
C5    S3    S    
O15   Zn2   S    
C17   C19   T    
C4    S2    S    
C3    C8    A    
O10   S4    D    
C7    C12   S    
C14   C16   S    
O11   S4    D    
C14   O19   A    
H5    O3    S    
C10   C11   A    
C13   N1    A    
C2    C20   T    
C1    C8    S    
C10   N1    A    
C1    O1    A    
C13   H4    S    
C16   C18   T    
C4    C6    A    
C11   H3    S    
O5    S2    D    
C15   C17   S    
C3    S1    S    
C9    C13   A    
C12   O14   A    
C12   O12   A    
O4    S2    D    
H8    O13   S    
O12   Zn2   S    
C2    C19   S    
N1    Zn1   S    
N2    Zn2   S    
H6    O6    S    
C11   N2    A    
H7    O9    S    
O17   Zn2   S    
C3    C5    A    
