data_mof_unit_63938.cif
_audit_creation_date              2012-12-10T19:20:59-0500
_audit_creation_method            fapswitch 2.2
_symmetry_space_group_name_H-M    P1
_symmetry_Int_Tables_number       1
_space_group_crystal_system       triclinic
_cell_length_a                    25.865761
_cell_length_b                    34.568823
_cell_length_c                    21.592757
_cell_angle_alpha                 90.000235
_cell_angle_beta                  126.83045
_cell_angle_gamma                 89.999983
_cell_volume                      15453.6841907

loop_
_atom_site_label
_atom_site_type_symbol
_atom_type_description
_atom_site_fract_x
_atom_site_fract_y
_atom_site_fract_z
_atom_type_partial_charge
C1    C     C_R   0.999997 0.021684 0.999975 0.120393
C2    C     C_R   0.601542 0.367762 0.914981 -0.249003
C3    C     C_R   0.352958 0.218611 0.664243 -0.187247
C4    C     C_R   0.852472 0.249994 0.704986 0.001873
C5    C     C_R   0.147475 0.750048 0.295015 0.000880
C6    C     C_R   0.147515 0.249979 0.295015 0.000873
C7    C     C_R   0.852518 0.750031 0.704987 0.001143
C8    C     C_R   0.352473 0.749994 0.704986 0.001872
C9    C     C_R   0.647475 0.250048 0.295015 0.000880
C10   C     C_R   0.647515 0.749979 0.295015 0.000873
C11   C     C_R   0.352518 0.250031 0.704987 0.001143
C12   C     C_R   0.811241 0.218586 0.664195 -0.189554
C13   C     C_R   0.616733 0.627018 0.946844 -0.237039
C14   C     C_R   0.209847 0.765650 0.335826 -0.188201
C15   C     C_R   0.209868 0.234347 0.335808 -0.187899
C16   C     C_R   0.811351 0.781464 0.664207 -0.189505
C17   C     C_R   0.311240 0.718586 0.664195 -0.189553
C18   C     C_R   0.709847 0.265651 0.335826 -0.188201
C19   C     C_R   0.709868 0.734347 0.335808 -0.187899
C20   C     C_R   0.311351 0.281464 0.664207 -0.189505
C21   C     C_R   0.771309 0.218465 0.583669 -0.179513
C22   C     C_R   0.250283 0.765386 0.416349 -0.180223
C23   C     C_R   0.250332 0.234629 0.416332 -0.180341
C24   C     C_R   0.398487 0.367754 0.085055 -0.248397
C25   C     C_R   0.771451 0.781602 0.583681 -0.179711
C26   C     C_R   0.271308 0.718465 0.583668 -0.179513
C27   C     C_R   0.750283 0.265386 0.416349 -0.180223
C28   C     C_R   0.750332 0.734629 0.416332 -0.180341
C29   C     C_R   0.271451 0.281602 0.583681 -0.179711
C30   C     C_R   0.771290 0.250020 0.542667 0.113096
C31   C     C_R   0.228619 0.750039 0.457334 0.112959
C32   C     C_R   0.228715 0.250022 0.457335 0.113081
C33   C     C_R   0.771395 0.750039 0.542668 0.113050
C34   C     C_R   0.271290 0.750020 0.542667 0.113096
C35   C     C_R   0.861351 0.163730 0.054736 -0.123766
C36   C     C_R   0.728619 0.250039 0.457334 0.112960
C37   C     C_R   0.728715 0.750023 0.457335 0.113081
C38   C     C_R   0.271395 0.250039 0.542668 0.113050
C39   C     C_R   0.039875 0.042270 0.069770 -0.150939
C40   C     C_R   0.942652 0.958371 0.947641 -0.143230
C41   C     C_R   0.960118 0.042274 0.930186 -0.150760
C42   C     C_R   0.057346 0.958373 0.052305 -0.143260
C43   C     C_R   0.539874 0.542270 0.069770 -0.150938
C44   C     C_R   0.442653 0.458371 0.947637 -0.143232
C45   C     C_R   0.460121 0.542274 0.930185 -0.150762
C46   C     C_R   0.128816 0.831055 0.927630 -0.126424
C47   C     C_R   0.557345 0.458373 0.052307 -0.143255
C48   C     C_R   0.040482 0.082541 0.069592 -0.213799
C49   C     C_R   0.942690 0.918103 0.947522 -0.214333
C50   C     C_R   0.959514 0.082546 0.930377 -0.214409
C51   C     C_R   0.057309 0.918105 0.052437 -0.212725
C52   C     C_R   0.540480 0.582541 0.069592 -0.213797
C53   C     C_R   0.442690 0.418103 0.947518 -0.214335
C54   C     C_R   0.459516 0.582546 0.930376 -0.214411
C55   C     C_R   0.557309 0.418105 0.052440 -0.212727
C56   C     C_R   0.999999 0.102786 0.999988 -0.023193
C57   C     C_R   0.138678 0.163724 0.945305 -0.122797
C58   C     C_R   1.000000 0.897655 0.999986 -0.030480
C59   C     C_R   0.499999 0.602786 0.999988 -0.023188
C60   C     C_R   0.500000 0.397655 0.999985 -0.030481
C61   C     C_R   0.105144 0.249991 0.210286 0.779256
C62   C     C_R   0.894863 0.750012 0.789715 0.780611
C63   C     C_R   0.894853 0.249994 0.789714 0.779265
C64   C     C_R   0.105135 0.750015 0.210286 0.780637
C65   C     C_R   0.605144 0.749991 0.210286 0.779256
C66   C     C_R   0.394863 0.250012 0.789715 0.780610
C67   C     C_R   0.394853 0.749994 0.789714 0.779265
C68   C     C_R   0.871206 0.831049 0.072408 -0.127637
C69   C     C_R   0.605135 0.250015 0.210286 0.780637
C70   C     C_R   1.000000 0.144956 0.999997 0.787123
C71   C     C_R   0.000000 0.855197 0.999997 0.795920
C72   C     C_R   0.500000 0.644956 0.999997 0.787123
C73   C     C_R   0.500000 0.355197 0.999997 0.795920
C74   C     C_R   0.999996 0.355144 0.999996 0.784220
C75   C     C_R   0.999997 0.644862 0.999997 0.784157
C76   C     C_R   0.499996 0.855144 0.999996 0.784220
C77   C     C_R   0.499997 0.144862 0.999997 0.784157
C78   C     C_R   0.989498 0.458159 0.937202 -0.176497
C79   C     C_R   0.361349 0.663730 0.054733 -0.123764
C80   C     C_R   0.972619 0.541865 0.029985 -0.176371
C81   C     C_R   0.010424 0.458165 0.062724 -0.176303
C82   C     C_R   0.027301 0.541862 0.969931 -0.176384
C83   C     C_R   0.489498 0.958159 0.937202 -0.176497
C84   C     C_R   0.472619 0.041865 0.029985 -0.176371
C85   C     C_R   0.510424 0.958165 0.062724 -0.176303
C86   C     C_R   0.527301 0.041862 0.969931 -0.176385
C87   C     C_R   0.989983 0.417899 0.937485 -0.187506
C88   C     C_R   0.973076 0.582124 0.030526 -0.186244
C89   C     C_R   0.009962 0.417905 0.062464 -0.186469
C90   C     C_R   0.628814 0.331055 0.927630 -0.126422
C91   C     C_R   0.026870 0.582122 0.969417 -0.187702
C92   C     C_R   0.489984 0.917899 0.937485 -0.187505
C93   C     C_R   0.473076 0.082124 0.030526 -0.186245
C94   C     C_R   0.509962 0.917905 0.062464 -0.186469
C95   C     C_R   0.526870 0.082122 0.969417 -0.187700
C96   C     C_R   0.999981 0.397516 0.999982 -0.000150
C97   C     C_R   0.999982 0.602501 0.999982 -0.000358
C98   C     C_R   0.499981 0.897516 0.999982 -0.000150
C99   C     C_R   0.499982 0.102501 0.999982 -0.000358
C100  C     C_R   0.999957 0.478679 0.999958 0.113429
C101  C     C_R   0.638678 0.663724 0.945304 -0.122800
C102  C     C_R   0.999956 0.521346 0.999954 0.110495
C103  C     C_R   0.499957 0.978679 0.999958 0.113429
C104  C     C_R   0.499956 0.021346 0.999954 0.110495
C105  C     C_2   0.866053 0.062703 0.991597 0.437342
C106  C     C_2   0.110137 0.937688 0.946811 0.369515
C107  C     C_2   0.134003 0.062699 0.008474 0.437370
C108  C     C_2   0.889925 0.937675 0.053224 0.369811
C109  C     C_2   0.366049 0.562703 0.991590 0.437341
C110  C     C_2   0.610132 0.437687 0.946810 0.369518
C111  C     C_2   0.634003 0.562699 0.008473 0.437372
C112  C     C_R   0.999998 0.978946 0.999972 0.089536
C113  C     C_R   0.371204 0.331050 0.072405 -0.127635
C114  C     C_2   0.389921 0.437676 0.053215 0.369812
C115  C     C_R   0.798415 0.175599 0.994438 0.143593
C116  C     C_R   0.193765 0.824441 0.990101 0.142351
C117  C     C_R   0.201608 0.175601 0.005604 0.143925
C118  C     C_R   0.806255 0.824441 0.009934 0.142220
C119  C     C_R   0.298413 0.675598 0.994435 0.143593
C120  C     C_R   0.693764 0.324441 0.990099 0.142350
C121  C     C_R   0.701607 0.675601 0.005604 0.143925
C122  C     C_R   0.306254 0.324441 0.009932 0.142220
C123  C     C_R   0.757827 0.150234 0.932730 -0.193672
C124  C     C_R   0.499997 0.521684 0.999974 0.120397
C125  C     C_R   0.230840 0.855278 0.039742 -0.204239
C126  C     C_R   0.242200 0.150245 0.067326 -0.195488
C127  C     C_R   0.769191 0.855281 0.960295 -0.203035
C128  C     C_R   0.257825 0.650235 0.932726 -0.193671
C129  C     C_R   0.730839 0.355279 0.039739 -0.204240
C130  C     C_R   0.742199 0.650245 0.067326 -0.195486
C131  C     C_R   0.269188 0.355280 0.960291 -0.203033
C132  C     C_R   0.779813 0.113623 0.931072 -0.111914
C133  C     C_R   0.203677 0.892097 0.026696 -0.116404
C134  C     C_R   0.220224 0.113631 0.068993 -0.111081
C135  C     C_R   0.499998 0.478946 0.999971 0.089539
C136  C     C_R   0.796366 0.892096 0.973343 -0.117006
C137  C     C_R   0.279810 0.613623 0.931067 -0.111914
C138  C     C_R   0.703675 0.392097 0.026693 -0.116401
C139  C     C_R   0.720223 0.613632 0.068993 -0.111081
C140  C     C_R   0.296363 0.392095 0.973336 -0.117005
C141  C     C_R   0.842642 0.101656 0.991559 0.059947
C142  C     C_R   0.138952 0.898680 0.963653 0.079769
C143  C     C_R   0.157401 0.101655 0.008505 0.060257
C144  C     C_R   0.861094 0.898672 0.036386 0.079611
C145  C     C_R   0.342639 0.601656 0.991553 0.059946
C146  C     C_R   0.883306 0.127026 0.053207 -0.236398
C147  C     C_R   0.638949 0.398680 0.963651 0.079770
C148  C     C_R   0.657401 0.601655 0.008504 0.060256
C149  C     C_R   0.361091 0.398673 0.036379 0.079612
C150  C     C_R   0.219277 0.715554 0.994470 -0.249018
C151  C     C_R   0.779883 0.284538 0.004149 -0.244255
C152  C     C_R   0.780734 0.715556 0.005553 -0.249318
C153  C     C_R   0.220126 0.284540 0.995869 -0.243841
C154  C     C_R   0.719278 0.215554 0.994470 -0.249017
C155  C     C_R   0.279884 0.784538 0.004151 -0.244255
C156  C     C_R   0.280734 0.215556 0.005553 -0.249318
C157  C     C_R   0.101545 0.867763 0.914981 -0.249004
C158  C     C_R   0.720127 0.784540 0.995870 -0.243840
C159  C     C_R   0.194812 0.751012 0.997368 -0.047817
C160  C     C_R   0.804697 0.249026 0.001881 -0.047687
C161  C     C_R   0.805195 0.751014 0.002647 -0.047804
C162  C     C_R   0.195311 0.249028 0.998134 -0.047612
C163  C     C_R   0.694812 0.251012 0.997367 -0.047816
C164  C     C_R   0.304697 0.749026 0.001881 -0.047687
C165  C     C_R   0.305195 0.251014 0.002646 -0.047804
C166  C     C_R   0.695311 0.749029 0.998134 -0.047612
C167  C     C_R   0.223908 0.786102 0.999839 0.009827
C168  C     C_R   0.116733 0.127018 0.946845 -0.237037
C169  C     C_R   0.774017 0.214057 0.996408 0.003739
C170  C     C_R   0.776105 0.786104 0.000184 0.010155
C171  C     C_R   0.225997 0.214059 0.003620 0.003497
C172  C     C_R   0.723907 0.286102 0.999838 0.009828
C173  C     C_R   0.274016 0.714057 0.996406 0.003739
C174  C     C_R   0.276104 0.286104 0.000183 0.010155
C175  C     C_R   0.725997 0.714059 0.003619 0.003496
C176  C     C_R   0.812313 0.281561 0.583732 -0.180213
C177  C     C_R   0.165919 0.734714 0.416251 -0.179637
C178  C     C_R   0.166038 0.265383 0.416270 -0.179831
C179  C     C_R   0.898489 0.867753 0.085060 -0.248397
C180  C     C_R   0.812368 0.718479 0.583724 -0.180092
C181  C     C_R   0.312314 0.781560 0.583732 -0.180213
C182  C     C_R   0.665919 0.234713 0.416251 -0.179639
C183  C     C_R   0.666038 0.765383 0.416270 -0.179831
C184  C     C_R   0.312368 0.218479 0.583724 -0.180092
C185  C     C_R   0.139713 0.249599 0.999263 0.787778
C186  C     C_R   0.860323 0.750342 0.000728 0.787940
C187  C     C_R   0.860289 0.249597 0.000742 0.788167
C188  C     C_R   0.139679 0.750341 0.999276 0.787401
C189  C     C_R   0.639713 0.749598 0.999263 0.787779
C190  C     C_R   0.383303 0.627026 0.053203 -0.236397
C191  C     C_R   0.360323 0.250342 0.000728 0.787940
C192  C     C_R   0.360290 0.749597 0.000742 0.788168
C193  C     C_R   0.639679 0.250341 0.999276 0.787401
C194  C     C_R   0.852931 0.281412 0.664251 -0.187851
C195  C     C_R   0.125844 0.734463 0.335729 -0.189317
C196  C     C_R   0.125938 0.265618 0.335749 -0.190542
C197  C     C_R   0.852958 0.718611 0.664243 -0.187247
C198  C     C_R   0.352931 0.781412 0.664251 -0.187851
C199  C     C_R   0.625844 0.234462 0.335729 -0.189315
C200  C     C_R   0.625938 0.765618 0.335749 -0.190542
H1    H     H_    0.980126 0.473191 0.887411 0.131037
H2    H     H_    0.227714 0.777550 0.305526 0.157443
H3    H     H_    0.883993 0.693893 0.694593 0.157090
H4    H     H_    0.384008 0.806115 0.694609 0.155486
H5    H     H_    0.577642 0.222568 0.305352 0.156241
H6    H     H_    0.577756 0.777541 0.305388 0.156372
H7    H     H_    0.383993 0.193893 0.694593 0.157090
H8    H     H_    0.913154 0.053035 0.041090 0.074617
H9    H     H_    0.059406 0.941886 0.899559 0.059005
H10   H     H_    0.086906 0.053026 0.958983 0.074434
H11   H     H_    0.940657 0.941868 0.100476 0.059464
H12   H     H_    0.413150 0.553035 0.041082 0.074617
H13   H     H_    0.227697 0.222408 0.305494 0.157927
H14   H     H_    0.559402 0.441884 0.899560 0.059006
H15   H     H_    0.586906 0.553025 0.958981 0.074435
H16   H     H_    0.440653 0.441869 0.100467 0.059463
H17   H     H_    0.810648 0.806179 0.694534 0.155811
H18   H     H_    0.310512 0.693876 0.694514 0.156363
H19   H     H_    0.727714 0.277551 0.305526 0.157444
H20   H     H_    0.727697 0.722408 0.305494 0.157927
H21   H     H_    0.310648 0.306179 0.694534 0.155811
H22   H     H_    0.741073 0.193453 0.553569 0.131297
H23   H     H_    0.298769 0.776749 0.446459 0.131170
H24   H     H_    0.298799 0.223239 0.446426 0.131219
H25   H     H_    0.950141 0.526832 0.052192 0.134382
H26   H     H_    0.741259 0.806630 0.553591 0.130822
H27   H     H_    0.241071 0.693453 0.553569 0.131296
H28   H     H_    0.798768 0.276750 0.446459 0.131170
H29   H     H_    0.798799 0.723239 0.446426 0.131219
H30   H     H_    0.241259 0.306630 0.553591 0.130822
H31   H     H_    0.070149 0.027333 0.124640 0.134720
H32   H     H_    0.897361 0.973319 0.907744 0.180683
H33   H     H_    0.929843 0.027341 0.875312 0.134040
H34   H     H_    0.102636 0.973322 0.092197 0.180943
H35   H     H_    0.570145 0.527333 0.124641 0.134716
H36   H     H_    0.019789 0.473201 0.112508 0.131699
H37   H     H_    0.397362 0.473319 0.907737 0.180681
H38   H     H_    0.429847 0.527342 0.875310 0.134040
H39   H     H_    0.602635 0.473322 0.092202 0.180937
H40   H     H_    0.071618 0.097895 0.123909 0.155185
H41   H     H_    0.897675 0.903031 0.906788 0.171319
H42   H     H_    0.928377 0.097905 0.876065 0.153058
H43   H     H_    0.102325 0.903035 0.093175 0.172176
H44   H     H_    0.571615 0.597895 0.123909 0.155182
H45   H     H_    0.397676 0.403031 0.906782 0.171319
H46   H     H_    0.428381 0.597905 0.876064 0.153056
H47   H     H_    0.049771 0.526827 0.947716 0.134336
H48   H     H_    0.602324 0.403035 0.093180 0.172175
H49   H     H_    0.981645 0.402735 0.888332 0.155425
H50   H     H_    0.951554 0.597298 0.053811 0.156467
H51   H     H_    0.018308 0.402746 0.111625 0.157077
H52   H     H_    0.048400 0.597293 0.946141 0.156274
H53   H     H_    0.481645 0.902735 0.888332 0.155425
H54   H     H_    0.451554 0.097298 0.053811 0.156467
H55   H     H_    0.518308 0.902746 0.111625 0.157077
H56   H     H_    0.548400 0.097293 0.946141 0.156274
H57   H     H_    0.931974 0.118369 0.100307 0.116781
H58   H     H_    0.480126 0.973191 0.887411 0.131037
H59   H     H_    0.051544 0.872210 0.866111 0.121318
H60   H     H_    0.068069 0.118354 0.899744 0.116331
H61   H     H_    0.948490 0.872195 0.133931 0.122045
H62   H     H_    0.431971 0.618368 0.100302 0.116780
H63   H     H_    0.551541 0.372208 0.866112 0.121317
H64   H     H_    0.568069 0.618354 0.899742 0.116331
H65   H     H_    0.448488 0.372197 0.133926 0.122045
H66   H     H_    0.893186 0.182766 0.103201 0.108758
H67   H     H_    0.099555 0.807993 0.887514 0.113458
H68   H     H_    0.106839 0.182753 0.896831 0.110056
H69   H     H_    0.450141 0.026832 0.052192 0.134382
H70   H     H_    0.900459 0.807984 0.112524 0.111786
H71   H     H_    0.393185 0.682765 0.103199 0.108757
H72   H     H_    0.599553 0.307992 0.887514 0.113457
H73   H     H_    0.606839 0.682753 0.896830 0.110057
H74   H     H_    0.400458 0.307985 0.112522 0.111785
H75   H     H_    0.709118 0.158876 0.885738 0.139711
H76   H     H_    0.281016 0.850911 0.088131 0.139745
H77   H     H_    0.290903 0.158894 0.114319 0.138558
H78   H     H_    0.719015 0.850917 0.911905 0.140555
H79   H     H_    0.209117 0.658877 0.885734 0.139711
H80   H     H_    0.519789 0.973201 0.112508 0.131699
H81   H     H_    0.781015 0.350911 0.088127 0.139745
H82   H     H_    0.790902 0.658894 0.114319 0.138558
H83   H     H_    0.219012 0.350916 0.911900 0.140555
H84   H     H_    0.747493 0.094581 0.882853 0.168242
H85   H     H_    0.233481 0.915474 0.065354 0.174793
H86   H     H_    0.252547 0.094596 0.117222 0.168236
H87   H     H_    0.766571 0.915475 0.934684 0.174787
H88   H     H_    0.247490 0.594583 0.882846 0.168242
H89   H     H_    0.733479 0.415475 0.065350 0.174793
H90   H     H_    0.752546 0.594596 0.117222 0.168236
H91   H     H_    0.549771 0.026827 0.947716 0.134336
H92   H     H_    0.266567 0.415474 0.934676 0.174787
H93   H     H_    0.196381 0.688800 0.992479 0.155895
H94   H     H_    0.802303 0.311228 0.004883 0.155502
H95   H     H_    0.803631 0.688802 0.007546 0.156080
H96   H     H_    0.197707 0.311231 0.995134 0.155280
H97   H     H_    0.696382 0.188800 0.992481 0.155894
H98   H     H_    0.302304 0.811228 0.004885 0.155504
H99   H     H_    0.303632 0.188802 0.007547 0.156080
H100  H     H_    0.697708 0.811231 0.995136 0.155279
H101  H     H_    0.812466 0.306584 0.553687 0.130662
H102  H     H_    0.810513 0.193876 0.694514 0.156362
H103  H     H_    0.147502 0.723347 0.446285 0.131158
H104  H     H_    0.147656 0.276786 0.446317 0.131158
H105  H     H_    0.812495 0.693450 0.553672 0.131137
H106  H     H_    0.312468 0.806584 0.553687 0.130662
H107  H     H_    0.647503 0.223346 0.446286 0.131159
H108  H     H_    0.647656 0.776786 0.446317 0.131158
H109  H     H_    0.312495 0.193450 0.553672 0.131137
H110  H     H_    0.884007 0.306115 0.694609 0.155486
H111  H     H_    0.077641 0.722569 0.305352 0.156241
H112  H     H_    0.077756 0.277541 0.305388 0.156372
O1    O     O_3   1.000000 0.250000 0.000000 -0.477449
O2    O     O_R   0.406930 0.227260 0.045480 -0.649856
O3    O     O_R   0.406930 0.772740 0.045480 -0.646903
O4    O     O_R   0.593070 0.227260 0.954520 -0.647521
O5    O     O_R   0.117100 0.227270 0.173460 -0.645691
O6    O     O_R   0.882900 0.772730 0.826540 -0.645477
O7    O     O_R   0.882900 0.227270 0.826540 -0.645168
O8    O     O_R   0.117100 0.772730 0.173460 -0.646093
O9    O     O_R   0.617100 0.727270 0.173460 -0.645691
O10   O     O_R   0.382900 0.272730 0.826540 -0.645477
O11   O     O_R   0.382900 0.727270 0.826540 -0.645168
O12   O     O_3   0.000000 0.750000 0.000000 -0.475830
O13   O     O_R   0.617100 0.272730 0.173460 -0.646093
O14   O     O_R   0.053120 0.163270 0.045480 -0.634683
O15   O     O_R   0.946880 0.836730 0.954520 -0.642765
O16   O     O_R   0.946880 0.163270 0.954520 -0.636334
O17   O     O_R   0.053120 0.836730 0.045480 -0.641066
O18   O     O_R   0.553120 0.663270 0.045480 -0.634682
O19   O     O_R   0.446880 0.336730 0.954520 -0.642764
O20   O     O_R   0.446880 0.663270 0.954520 -0.636333
O21   O     O_R   0.553120 0.336730 0.045480 -0.641066
O22   O     O_R   0.007620 0.336730 0.954520 -0.646624
O23   O     O_3   0.500000 0.750000 0.000000 -0.477450
O24   O     O_R   0.992380 0.663270 0.045480 -0.644619
O25   O     O_R   0.992380 0.336730 0.045480 -0.645003
O26   O     O_R   0.007620 0.663270 0.954520 -0.646628
O27   O     O_R   0.507620 0.836730 0.954520 -0.646624
O28   O     O_R   0.492380 0.163270 0.045480 -0.644619
O29   O     O_R   0.492380 0.836730 0.045480 -0.645003
O30   O     O_R   0.507620 0.163270 0.954520 -0.646628
O31   O     O_R   0.056370 0.272740 0.173460 -0.646674
O32   O     O_R   0.943630 0.727260 0.826540 -0.645705
O33   O     O_R   0.943630 0.272740 0.826540 -0.646828
O34   O     O_3   0.500000 0.250000 0.000000 -0.475830
O35   O     O_R   0.056370 0.727260 0.173460 -0.645228
O36   O     O_R   0.556370 0.772740 0.173460 -0.646674
O37   O     O_R   0.443630 0.227260 0.826540 -0.645705
O38   O     O_R   0.443630 0.772740 0.826540 -0.646829
O39   O     O_R   0.556370 0.227260 0.173460 -0.645228
O40   O     O_R   0.138550 0.227260 0.045470 -0.629098
O41   O     O_R   0.861450 0.772740 0.954530 -0.627614
O42   O     O_R   0.861450 0.227260 0.954530 -0.626758
O43   O     O_R   0.138550 0.772740 0.045470 -0.629984
O44   O     O_R   0.638550 0.727260 0.045470 -0.629098
O45   O     O_R   0.093070 0.272740 0.954520 -0.644564
O46   O     O_R   0.361450 0.272740 0.954530 -0.627614
O47   O     O_R   0.361450 0.727260 0.954530 -0.626759
O48   O     O_R   0.638550 0.272740 0.045470 -0.629984
O49   O     O_2   0.833244 0.040988 0.936418 -0.547143
O50   O     O_2   0.142595 0.965621 0.985168 -0.547828
O51   O     O_2   0.166818 0.040989 0.063660 -0.546870
O52   O     O_2   0.857477 0.965611 0.014865 -0.547823
O53   O     O_2   0.333240 0.540989 0.936409 -0.547141
O54   O     O_2   0.642591 0.465621 0.985165 -0.547830
O55   O     O_2   0.666817 0.540989 0.063660 -0.546871
O56   O     O_R   0.906930 0.727260 0.045480 -0.649856
O57   O     O_2   0.357473 0.465611 0.014854 -0.547824
O58   O     O_R   0.906930 0.272740 0.045480 -0.646903
O59   O     O_R   0.093070 0.727260 0.954520 -0.647521
O60   O     O_R   0.593070 0.772740 0.954520 -0.644564
Zn1   Zn    Zn3+2 0.989110 0.282490 0.064980 0.962293
Zn2   Zn    Zn3+2 0.924120 0.782490 0.935020 0.974604
Zn3   Zn    Zn3+2 0.924120 0.217510 0.935020 0.976225
Zn4   Zn    Zn3+2 0.075880 0.782490 0.064980 0.973994
Zn5   Zn    Zn3+2 0.575880 0.717510 0.064980 0.975603
Zn6   Zn    Zn3+2 0.424120 0.282490 0.935020 0.974604
Zn7   Zn    Zn3+2 0.424120 0.717510 0.935020 0.976226
Zn8   Zn    Zn3+2 0.575880 0.282490 0.064980 0.973994
Zn9   Zn    Zn3+2 0.010890 0.717510 0.935020 0.962523
Zn10  Zn    Zn3+2 0.010890 0.282490 0.935020 0.962595
Zn11  Zn    Zn3+2 0.989110 0.717510 0.064980 0.962604
Zn12  Zn    Zn3+2 0.489110 0.782490 0.064980 0.962292
Zn13  Zn    Zn3+2 0.510890 0.217510 0.935020 0.962523
Zn14  Zn    Zn3+2 0.510890 0.782490 0.935020 0.962595
Zn15  Zn    Zn3+2 0.489110 0.217510 0.064980 0.962604
Zn16  Zn    Zn3+2 0.075880 0.217510 0.064980 0.975603

loop_
_geom_bond_atom_site_label_1
_geom_bond_atom_site_label_2
_ccdc_geom_bond_type
O23   Zn12  S    
C110  O54   D    
C24   H65   S    
O19   Zn6   S    
C183  H108  S    
C63   O33   A    
C6    C196  A    
O42   Zn3   S    
C69   O13   A    
C66   O37   A    
C111  H15   S    
C29   H30   S    
C65   O9    A    
C95   C99   A    
C181  C198  A    
C76   C98   S    
C177  H103  S    
C178  H104  S    
O44   Zn5   S    
O41   Zn2   S    
C2    C90   A    
C131  C140  A    
C193  O48   A    
O43   Zn4   S    
C44   C53   A    
C111  O55   D    
C113  C122  A    
C154  H97   S    
C155  C167  A    
C46   H67   S    
C192  O47   A    
C35   C115  A    
C80   H25   S    
C4    C12   A    
C61   O31   A    
C117  C126  A    
C128  H79   S    
C88   C97   A    
C85   C103  A    
O1    Zn3   S    
C92   H53   S    
C44   C135  A    
C33   C180  A    
O39   Zn15  S    
O34   Zn6   S    
C32   C178  A    
O37   Zn13  S    
C30   C176  A    
C106  C142  S    
C91   H52   S    
C11   C20   A    
C115  C123  A    
C150  C159  A    
C114  H16   S    
C127  C136  A    
O27   Zn14  S    
O1    Zn10  S    
C93   H54   S    
O13   Zn8   S    
O23   Zn7   S    
C79   H71   S    
C82   C91   A    
C5    C64   S    
C10   C200  A    
C7    C197  A    
C4    C194  A    
C7    C62   S    
C161  C186  S    
C26   H27   S    
C191  O2    A    
C164  C173  A    
C163  C172  A    
O12   Zn11  S    
C191  O46   A    
C1    C41   A    
C198  H4    S    
C107  C143  S    
O22   Zn10  S    
C108  C144  S    
C67   O38   A    
C16   C25   A    
C177  C195  A    
O15   Zn2   S    
C64   O8    A    
C109  C145  S    
C182  C199  A    
C49   H41   S    
O24   Zn11  S    
C75   O24   A    
C8    C17   A    
O59   Zn9   S    
C30   C36   S    
C3    H7    S    
C89   C96   A    
C2    C147  A    
C80   C88   A    
C111  C148  S    
C179  H61   S    
C121  C175  S    
C41   H33   S    
O16   Zn3   S    
C134  H86   S    
C159  C167  A    
C84   C93   A    
C127  H78   S    
C189  O44   A    
C3    C11   A    
C86   C95   A    
C1    C39   A    
C126  C134  A    
C72   O18   A    
C106  O50   D    
O46   Zn6   S    
C78   C87   A    
C123  C132  A    
C49   C58   A    
C8    C198  A    
C199  H5    S    
C121  C130  A    
C15   H13   S    
C86   C104  A    
C131  H83   S    
C40   C112  A    
C57   C168  A    
C61   O5    A    
O23   Zn5   S    
C155  H98   S    
C133  C142  A    
O35   Zn11  S    
C84   H69   S    
C6    C61   S    
C110  H14   S    
C77   O30   A    
C138  H89   S    
C1    C112  S    
C43   C52   A    
C40   C49   A    
C37   C183  A    
O25   Zn1   S    
C38   C184  A    
C83   H58   S    
C42   C112  A    
C68   C118  A    
C29   C38   A    
O10   Zn6   S    
C39   H31   S    
C165  C174  A    
C134  C143  A    
O34   Zn13  S    
O36   Zn12  S    
C100  C102  S    
C53   C60   A    
C123  H75   S    
C54   C59   A    
C139  C148  A    
C85   H80   S    
C162  C171  A    
C120  C129  A    
C74   C96   S    
C74   O22   A    
C107  O51   D    
C158  C170  A    
C70   O16   A    
O3    Zn12  S    
C122  C174  S    
O23   Zn14  S    
C178  C196  A    
C50   C56   A    
C80   C102  A    
C90   C120  A    
C65   O36   A    
O26   Zn9   S    
C72   O20   A    
C181  H106  S    
O45   Zn10  S    
C82   C102  A    
C31   C34   S    
C19   C28   A    
C158  H100  S    
C47   H39   S    
O34   Zn15  S    
C116  C125  A    
C84   C104  A    
C67   O11   A    
C40   H32   S    
C184  H109  S    
C122  C131  A    
C105  H8    S    
C3    C184  A    
C132  C141  A    
C87   H49   S    
C196  H112  S    
C86   H91   S    
C47   C135  A    
O20   Zn7   S    
C51   H43   S    
C162  C185  S    
O30   Zn13  S    
O28   Zn15  S    
C56   C70   S    
C183  C200  A    
O8    Zn4   S    
O40   Zn16  S    
C55   H48   S    
C166  C189  S    
C14   C22   A    
C189  O60   A    
C193  O4    A    
C43   H35   S    
C94   H55   S    
C119  C128  A    
C157  H59   S    
C105  O49   D    
C28   C37   A    
C14   H2    S    
C76   O27   A    
C77   C99   S    
C9    C18   A    
O18   Zn5   S    
O60   Zn14  S    
C8    C67   S    
C118  C127  A    
C19   H20   S    
C160  C187  S    
C164  C192  S    
C136  H87   S    
C95   H56   S    
C17   H18   S    
C9    C199  A    
C25   C33   A    
C71   O15   A    
C109  O53   D    
C185  O45   A    
C156  H99   S    
C78   H1    S    
O47   Zn7   S    
C70   O14   A    
C166  C175  A    
C63   O7    A    
C137  C145  A    
C66   O10   A    
C9    C69   S    
C145  C190  A    
C186  O56   A    
C58   C71   S    
C94   C98   A    
C60   C73   S    
C75   C97   S    
C182  H107  S    
C34   C181  A    
C187  O42   A    
O56   Zn11  S    
O5    Zn16  S    
C152  C175  A    
C57   H68   S    
C69   O39   A    
C79   C119  A    
C160  C169  A    
C93   C99   A    
C11   C66   S    
C59   C72   S    
C188  O43   A    
C81   C89   A    
C47   C55   A    
C55   C60   A    
C130  C139  A    
C48   H40   S    
C153  H96   S    
C126  H77   S    
C21   H22   S    
C152  H95   S    
C107  H10   S    
C137  H88   S    
C106  H9    S    
C153  C174  A    
C101  C121  A    
C154  C169  A    
C185  O40   A    
C113  H74   S    
O32   Zn9   S    
C140  H92   S    
O7    Zn3   S    
C117  C171  S    
C2    H63   S    
C4    C63   S    
C10   C19   A    
C51   C58   A    
C91   C97   A    
C5    C14   A    
C83   C103  A    
C141  C146  A    
C7    C16   A    
C132  H84   S    
C133  H85   S    
C78   C100  A    
C36   C182  A    
C142  C157  A    
C41   C50   A    
C158  C166  A    
C57   C117  A    
C89   H51   S    
C150  H93   S    
O11   Zn7   S    
O48   Zn8   S    
C81   C100  A    
C27   C36   A    
C21   C30   A    
C46   C116  A    
C153  C162  A    
C23   C32   A    
C168  H60   S    
C136  C144  A    
O21   Zn8   S    
C119  C173  S    
C73   O19   A    
C156  C165  A    
C76   O29   A    
C165  C191  S    
C54   H46   S    
C13   H64   S    
C33   C37   S    
O58   Zn1   S    
C43   C124  A    
C103  C104  S    
C71   O17   A    
C118  C170  S    
C20   C29   A    
C114  C149  S    
C176  C194  A    
C62   O32   A    
C28   H29   S    
C35   C146  A    
C139  H90   S    
C39   C48   A    
C125  H76   S    
C151  H94   S    
O1    Zn16  S    
C115  C169  S    
C44   H37   S    
C92   C98   A    
C83   C92   A    
O38   Zn14  S    
C82   H47   S    
C31   C177  A    
C187  O58   A    
C17   C26   A    
O31   Zn1   S    
C52   H44   S    
C105  C141  S    
C27   H28   S    
C163  C193  S    
C74   O25   A    
C25   H26   S    
C114  O57   D    
C176  H101  S    
C20   H21   S    
C45   H38   S    
C188  O59   A    
C180  C197  A    
O12   Zn2   S    
C6    C15   A    
C26   C34   A    
C129  C138  A    
C79   C190  A    
C116  C167  S    
C32   C38   S    
C109  H12   S    
O2    Zn15  S    
C42   C51   A    
C77   O28   A    
C15   C23   A    
C24   C113  A    
C62   O6    A    
O17   Zn4   S    
C101  H73   S    
C18   H19   S    
O33   Zn10  S    
C45   C124  A    
C192  O3    A    
C22   C31   A    
C154  C163  A    
C73   O21   A    
C120  C172  S    
C64   O35   A    
C46   C157  A    
C12   C21   A    
C151  C172  A    
C159  C188  S    
C128  C137  A    
C68   H70   S    
C52   C59   A    
C146  H57   S    
C85   C94   A    
C144  C179  A    
C138  C147  A    
C87   C96   A    
C150  C173  A    
O14   Zn16  S    
C81   H36   S    
C16   H17   S    
C75   O26   A    
C129  H81   S    
C186  O41   A    
C195  H111  S    
C161  C170  A    
C45   C54   A    
O9    Zn5   S    
C13   C101  A    
C110  C147  S    
C108  H11   S    
C88   H50   S    
C10   C65   S    
C125  C133  A    
C48   C56   A    
C180  H105  S    
C200  H6    S    
O34   Zn8   S    
C124  C135  S    
C90   H72   S    
C18   C27   A    
C152  C161  A    
O1    Zn1   S    
C50   H42   S    
C68   C179  A    
O4    Zn13  S    
C108  O52   D    
C155  C164  A    
C22   H23   S    
C156  C171  A    
C5    C195  A    
C151  C160  A    
C190  H62   S    
C194  H110  S    
C130  H82   S    
O12   Zn4   S    
C42   H34   S    
C140  C149  A    
C197  H3    S    
C35   H66   S    
C53   H45   S    
C143  C168  A    
O6    Zn2   S    
C24   C149  A    
C23   H24   S    
C12   H102  S    
O29   Zn12  S    
C13   C148  A    
O12   Zn9   S    
