data_mof_unit_21024.cif
_audit_creation_date              2012-12-10T17:44:29-0500
_audit_creation_method            fapswitch 2.2
_symmetry_space_group_name_H-M    P1
_symmetry_Int_Tables_number       1
_space_group_crystal_system       triclinic
_cell_length_a                    9.913443
_cell_length_b                    10.57055
_cell_length_c                    15.423188
_cell_angle_alpha                 91.106641
_cell_angle_beta                  67.693357
_cell_angle_gamma                 88.322629
_cell_volume                      1493.80701898

loop_
_atom_site_label
_atom_site_type_symbol
_atom_type_description
_atom_site_fract_x
_atom_site_fract_y
_atom_site_fract_z
_atom_type_partial_charge
C1    C     C_R   0.507609 0.736508 0.482002 0.866008
C2    C     C_R   0.746312 0.532027 0.027190 0.043311
C3    C     C_R   0.617140 0.466516 0.076137 0.076467
C4    C     C_R   0.407659 0.495683 0.676534 0.839880
C5    C     C_R   0.838393 0.563865 0.076221 -0.016111
C6    C     C_R   0.790585 0.546449 0.172643 -0.227152
C7    C     C_R   0.567193 0.462636 0.173701 -0.202176
C8    C     C_R   0.257038 0.893563 0.458944 -0.063207
C9    C     C_R   0.118885 0.955160 0.505514 -0.025649
C10   C     C_R   0.107231 0.060097 0.564901 -0.146491
C11   C     C_R   0.232006 0.112061 0.568533 -0.203438
C12   C     C_R   0.432118 0.454012 0.906846 0.085443
C13   C     C_R   0.371425 0.057895 0.515417 0.083457
C14   C     C_R   0.380308 0.937612 0.474955 0.077885
C15   C     C_R   0.513165 0.867214 0.452979 -0.249441
C16   C     C_R   0.499355 0.258423 0.503279 0.873873
C17   C     C_R   0.644554 0.930220 0.425316 0.012509
C18   C     C_R   0.637912 0.058850 0.447929 -0.091156
C19   C     C_R   0.502709 0.121671 0.496828 -0.185467
C20   C     C_R   0.785041 0.668928 0.622190 -0.149203
C21   C     C_R   0.819542 0.753203 0.680351 -0.192615
C22   C     C_R   0.959957 0.753257 0.678795 -0.182146
C23   C     C_R   0.329197 0.359551 0.945830 0.060322
C24   C     C_R   0.065409 0.666502 0.621382 -0.061246
C25   C     C_R   0.034799 0.581617 0.560518 0.146149
C26   C     C_R   0.890219 0.582101 0.560623 0.131461
C27   C     C_R   0.966531 0.423327 0.440379 0.002641
C28   C     C_R   0.591704 0.500059 0.323866 0.866886
C29   C     C_R   0.109308 0.422864 0.441063 -0.116514
C30   C     C_R   0.348589 0.471509 0.778162 -0.139569
C31   C     C_R   0.651985 0.502250 0.221815 -0.068993
C32   C     C_R   0.227901 0.329507 0.905064 -0.081393
C33   C     C_R   0.242736 0.379063 0.817876 -0.013756
C34   C     C_R   0.542454 0.473998 0.943482 0.080787
C35   C     C_R   0.420541 0.523963 0.832296 -0.087749
C36   C     C_1   0.982072 0.613564 0.032723 0.214000
C37   C     C_2   0.784385 0.865503 0.364275 0.434028
C38   C     C_1   0.276440 0.799535 0.384966 0.185190
C39   C     C_2   0.986268 0.910306 0.494144 0.468397
C40   C     C_1   0.939259 0.343653 0.372701 0.237533
C41   C     C_2   0.885646 0.654429 0.882943 0.410775
C42   C     C_1   0.110179 0.245315 0.951372 0.145508
C43   C     C_2   0.149238 0.327853 0.770451 0.431473
C44   C     C_2   0.453725 0.660732 0.820768 0.402482
C45   C     C_R   0.529245 0.420560 0.029322 0.012401
C46   C     C_1   0.440188 0.234672 0.133285 0.174559
C47   C     C_R   0.430370 0.321866 0.064364 -0.035467
C48   C     C_R   0.332004 0.293685 0.023159 -0.219514
C49   C     C_R   0.669857 0.539350 0.894414 -0.170642
C50   C     C_R   0.771543 0.567486 0.934281 -0.007483
H1    H     H_    0.259593 0.216683 0.050928 0.177808
H2    H     H_    0.194499 0.360414 0.392891 0.156665
H3    H     H_    0.858713 0.573723 0.210241 0.158906
H4    H     H_    0.692775 0.567936 0.823440 0.163850
H5    H     H_    0.789747 0.764704 0.348195 0.063449
H6    H     H_    0.991151 0.824644 0.453103 0.074844
H7    H     H_    0.857831 0.754574 0.883920 0.059828
H8    H     H_    0.126940 0.227769 0.774463 0.025868
H9    H     H_    0.459061 0.707505 0.757682 0.045833
H10   H     H_    0.002306 0.106470 0.604805 0.193916
H11   H     H_    0.218342 0.196231 0.611600 0.175976
H12   H     H_    0.737487 0.110371 0.425872 0.216512
H13   H     H_    0.675835 0.676954 0.626495 0.205361
H14   H     H_    0.737245 0.820189 0.725871 0.185529
H15   H     H_    0.457275 0.435039 0.213844 0.162194
H16   H     H_    0.987555 0.820792 0.722488 0.161493
H17   H     H_    0.169921 0.669144 0.625816 0.212635
N1    N     N_R   0.856800 0.501200 0.500850 -0.137111
N2    N     N_R   0.142390 0.501280 0.500880 -0.116694
N3    N     N_1   0.097418 0.653378 0.999103 -0.123845
N4    N     N_1   0.291542 0.725019 0.325711 -0.179131
N5    N     N_1   0.918494 0.279915 0.317533 -0.179103
N6    N     N_1   0.016261 0.178598 0.988251 -0.172587
N7    N     N_1   0.447837 0.164809 0.188275 -0.180718
O1    O     O_R   0.385310 0.683220 0.500000 -0.637593
O2    O     O_2   0.868803 0.967447 0.532098 -0.589064
O3    O     O_2   0.010323 0.615046 0.838719 -0.536568
O4    O     O_2   0.087416 0.396301 0.733203 -0.512274
O5    O     O_2   0.463789 0.725211 0.884439 -0.561184
O6    O     O_R   0.614640 0.683250 0.500010 -0.645180
O7    O     O_R   0.319840 0.499980 0.632240 -0.559001
O8    O     O_R   0.549160 0.500000 0.632250 -0.636207
O9    O     O_R   0.385360 0.316750 0.499990 -0.606534
O10   O     O_R   0.614690 0.316780 0.500000 -0.600200
O11   O     O_R   0.450840 0.500000 0.367750 -0.609267
O12   O     O_R   0.680160 0.500020 0.367760 -0.624708
O13   O     O_2   0.894234 0.925200 0.327388 -0.570892
Zn1   Zn    Zn3+2 0.346880 0.499980 0.499990 0.969425
Zn2   Zn    Zn3+2 0.653120 0.500020 0.500010 0.940923

loop_
_geom_bond_atom_site_label_1
_geom_bond_atom_site_label_2
_ccdc_geom_bond_type
C27   C29   A    
C16   O10   A    
C43   O4    D    
C12   C23   A    
O8    Zn2   S    
C30   C35   A    
C3    C7    A    
C41   O3    D    
C5    C6    A    
C44   H9    S    
C49   H4    S    
C5    C36   S    
C9    C39   S    
C18   C19   A    
O6    Zn2   S    
C22   H16   S    
C21   H14   S    
C27   N1    A    
C2    C50   A    
C43   H8    S    
C38   N4    T    
C48   H1    S    
C4    O7    A    
C39   H6    S    
C8    C9    A    
C34   C49   A    
C1    C15   S    
C9    C10   A    
C24   H17   S    
C45   C47   A    
C6    C31   A    
C13   C14   A    
C8    C38   S    
C36   N3    T    
N1    Zn2   S    
C29   N2    A    
C28   C31   S    
C7    C31   A    
C13   C19   A    
C33   C43   S    
C24   C25   A    
C18   H12   S    
C25   C26   A    
C3    C45   A    
C16   O9    A    
C1    O1    A    
C10   H10   S    
C7    H15   S    
C47   C48   A    
C27   C40   S    
C17   C18   A    
C34   C45   A    
C17   C37   S    
C39   O2    D    
C12   C35   A    
C35   C44   S    
N2    Zn1   S    
C28   O12   A    
C22   C24   A    
C2    C5    A    
C25   N2    A    
O10   Zn2   S    
C6    H3    S    
C12   C34   A    
C41   C50   S    
C46   N7    T    
O11   Zn1   S    
C15   C17   A    
C46   C47   S    
C42   N6    T    
C8    C14   A    
C23   C48   A    
C40   N5    T    
C30   C33   A    
C37   O13   D    
C44   O5    D    
C11   H11   S    
O12   Zn2   S    
C26   N1    A    
C23   C32   A    
C20   H13   S    
C2    C3    A    
C41   H7    S    
C32   C33   A    
C11   C13   A    
C20   C26   A    
C16   C19   S    
O9    Zn1   S    
O7    Zn1   S    
C10   C11   A    
C37   H5    S    
O1    Zn1   S    
C4    O8    A    
C20   C21   A    
C49   C50   A    
C28   O11   A    
C1    O6    A    
C32   C42   S    
C14   C15   A    
C21   C22   A    
C4    C30   S    
C29   H2    S    
