data_mof_unit_11357.cif
_audit_creation_date              2013-03-05T15:57:26-0500
_audit_creation_method            fapswitch 2.2
_symmetry_space_group_name_H-M    P1
_symmetry_Int_Tables_number       1
_space_group_crystal_system       triclinic
_cell_length_a                    12.944205
_cell_length_b                    13.001642
_cell_length_c                    15.312329
_cell_angle_alpha                 116.510504
_cell_angle_beta                  64.301772
_cell_angle_gamma                 96.643525
_cell_volume                      2068.23712792

loop_
_atom_site_label
_atom_site_type_symbol
_atom_site_description
_atom_site_fract_x
_atom_site_fract_y
_atom_site_fract_z
_atom_type_partial_charge
C1    C     C_R   0.005421 0.834763 0.047423 0.491064
N1    N     N_R   0.037320 0.720000 0.995830 -0.108901
C2    C     C_R   0.678998 0.465353 0.218913 -0.215261
H1    H     H_    0.610347 0.426053 0.196737 0.131096
N2    N     N_R   0.790770 0.446140 0.151990 -0.064205
C3    C     C_R   0.759089 0.509740 0.885906 0.620929
N3    N     N_R   0.824900 0.517970 0.936430 -0.081234
C4    C     C_R   0.028265 0.690633 0.295768 -0.103960
H2    H     H_    0.011661 0.651694 0.349217 0.178895
N4    N     N_R   0.003190 0.648180 0.211390 -0.076261
C5    C     C_R   0.677490 0.419837 0.989214 -0.213875
H3    H     H_    0.631678 0.358365 0.018113 0.127758
N5    N     N_R   0.774330 0.457010 0.995830 -0.078405
C6    C     C_R   0.107975 0.790541 0.203584 0.643139
N6    N     N_R   0.053760 0.709130 0.151980 -0.086513
C7    C     C_R   0.780282 0.559356 0.313585 0.540823
N7    N     N_R   0.853840 0.498830 0.211390 -0.074124
C8    C     C_R   0.907422 0.750105 0.949640 0.478391
N8    N     N_R   0.974250 0.667320 0.936430 -0.107814
C9    C     C_R   0.920235 0.856713 0.023226 -0.248528
C10   C     C_R   0.670899 0.535233 0.321342 -0.120352
C11   C     C_R   0.664654 0.451520 0.920300 -0.083125
C12   C     C_R   0.094171 0.779533 0.293232 -0.234651
C13   C     C_R   0.338346 0.516224 0.951980 -0.062511
H4    H     H_    0.397261 0.554955 0.902490 0.090585
N9    N     N_R   0.225670 0.542990 0.004170 -0.049903
C14   C     C_R   0.962774 0.179038 0.780360 -0.115991
H5    H     H_    0.926510 0.110140 0.801784 0.135093
N10   N     N_R   0.946240 0.290870 0.848020 -0.049281
C15   C     C_R   0.199631 0.505807 0.694356 -0.101423
H6    H     H_    0.166941 0.478834 0.634100 0.109285
N11   N     N_R   0.146160 0.501170 0.788610 -0.046990
C16   C     C_R   0.056466 0.253803 0.084261 -0.121213
H7    H     H_    0.094974 0.272238 0.139059 0.094952
N12   N     N_R   0.025750 0.332680 0.063570 -0.041174
C17   C     C_R   0.956829 0.169915 0.988754 -0.108891
H8    H     H_    0.904372 0.110748 0.954054 0.087845
N13   N     N_R   0.962680 0.280000 0.004170 -0.042210
C18   C     C_R   0.299399 0.592910 0.791540 -0.140739
N14   N     N_R   0.209230 0.553860 0.848010 -0.045268
C19   C     C_R   0.259403 0.417032 0.049236 -0.167152
H9    H     H_    0.249370 0.363593 0.089119 0.099640
N15   N     N_R   0.175100 0.482030 0.063570 -0.051178
C20   C     C_R   0.046536 0.279062 0.683997 -0.106587
H10   H     H_    0.087479 0.302567 0.618078 0.099927
N16   N     N_R   0.996810 0.351820 0.788610 -0.039470
Ni1   Ni    Ni4+2 0.130310 0.630310 0.000000 0.264195
Ni2   Ni    Ni4+2 0.869690 0.369690 0.000000 0.190221
Ni3   Ni    Ni4+2 0.985660 0.509480 0.863750 0.268223
Ni4   Ni    Ni4+2 0.014340 0.490520 0.136250 0.214136
C21   C     C_R   0.361819 0.434651 0.976986 0.127754
C22   C     C_R   0.027761 0.170173 0.677979 0.042956
C23   C     C_R   0.295430 0.562784 0.695364 0.038176
C24   C     C_R   0.016475 0.149093 0.036848 0.034434
H11   H     H_    0.606079 0.692330 0.153628 0.114898
C25   C     C_R   0.426171 0.673823 0.232935 -0.131041
H12   H     H_    0.439086 0.580897 0.200194 0.111788
C26   C     C_R   0.315358 0.730893 0.301771 -0.114012
H13   H     H_    0.243992 0.680620 0.321947 0.114923
C27   C     C_R   0.297301 0.851706 0.344532 0.126495
C28   C     C_R   0.392977 0.914019 0.318089 -0.173077
H14   H     H_    0.381755 0.006896 0.349318 0.117078
C29   C     C_R   0.503756 0.856569 0.249467 -0.096590
H15   H     H_    0.576791 0.905101 0.229056 0.127633
C30   C     C_R   0.520317 0.736591 0.206793 -0.071850
C31   C     C_R   0.158725 0.012466 0.512675 -0.255379
H16   H     H_    0.228661 0.045765 0.535381 0.142769
C32   C     C_R   0.046948 0.068120 0.581080 0.059723
C33   C     C_R   0.953835 0.026824 0.555872 0.117015
C34   C     C_R   0.974274 0.930980 0.460511 -0.185320
H17   H     H_    0.902997 0.900093 0.438937 0.146446
C35   C     C_R   0.084939 0.874905 0.391543 0.062231
C36   C     C_R   0.179256 0.912982 0.416542 0.025720
C37   C     C_R   0.755214 0.040498 0.696785 0.557960
C38   C     C_R   0.637610 0.079655 0.747458 -0.409457
H18   H     H_    0.575088 0.048651 0.802897 0.152798
C39   C     C_R   0.599359 0.156198 0.724143 -0.146344
C40   C     C_R   0.677506 0.198441 0.653294 0.607917
C41   C     C_R   0.795535 0.161369 0.603885 -0.433918
H19   H     H_    0.856654 0.190750 0.546314 0.154186
C42   C     C_R   0.834236 0.081730 0.624427 0.011177
C43   C     C_R   0.856980 0.301808 0.349677 -0.106167
H20   H     H_    0.899645 0.223315 0.277168 0.123028
C44   C     C_R   0.752932 0.350397 0.370546 -0.119873
H21   H     H_    0.715651 0.308591 0.313485 0.119686
C45   C     C_R   0.698179 0.453291 0.464294 0.143265
C46   C     C_R   0.747728 0.504622 0.537893 -0.096894
H22   H     H_    0.706744 0.583662 0.610889 0.114429
C47   C     C_R   0.852021 0.455998 0.516201 -0.120742
H23   H     H_    0.890550 0.496899 0.572279 0.157502
C48   C     C_R   0.906684 0.354728 0.422070 -0.148574
C49   C     C_R   0.495228 0.523329 0.580930 -0.239106
H24   H     H_    0.503992 0.493295 0.633418 0.151451
C50   C     C_R   0.388855 0.568619 0.604745 0.067265
C51   C     C_R   0.373267 0.603195 0.536118 0.012384
C52   C     C_R   0.468245 0.590093 0.441489 -0.231831
H25   H     H_    0.459997 0.617208 0.387137 0.143387
C53   C     C_R   0.574850 0.544358 0.417905 0.079083
C54   C     C_R   0.588943 0.508253 0.486903 -0.001508
C55   C     C_R   0.210352 0.602838 0.489251 -0.182779
C56   C     C_R   0.102539 0.648158 0.515069 -0.146301
C57   C     C_R   0.044912 0.745393 0.612715 -0.025756
H26   H     H_    0.961707 0.780490 0.632174 0.158747
C58   C     C_R   0.094491 0.796855 0.685392 -0.083081
C59   C     C_R   0.201729 0.750978 0.660501 -0.148454
C60   C     C_R   0.260500 0.653468 0.562117 0.131693
C61   C     C_2   0.474829 0.391798 0.949356 -0.202490
C62   C     C_2   0.567740 0.430434 0.893305 -0.121315
H27   H     H_    0.563529 0.469575 0.845540 0.133957
C63   C     C_2   0.842989 0.963492 0.077816 -0.170887
C64   C     C_2   0.800797 0.029333 0.184330 -0.211281
O1    O     O_3   0.054273 0.915494 0.109532 -0.722378
H28   H     H_    0.027520 0.993015 0.125840 0.314911
H29   H     H_    0.357823 0.647790 0.821131 0.112947
O2    O     O_3   0.794313 0.959698 0.713717 -0.799696
H30   H     H_    0.728167 0.939705 0.766119 0.308784
H31   H     H_    0.508199 0.182728 0.761270 0.158652
O3    O     O_3   0.635716 0.273594 0.632409 -0.783864
H32   H     H_    0.701163 0.293971 0.579939 0.320438
H33   H     H_    0.987380 0.317041 0.405374 0.114946
O4    O     O_3   0.801810 0.521119 0.791421 -0.731804
H34   H     H_    0.746625 0.493526 0.758821 0.297840
H35   H     H_    0.253825 0.527256 0.413367 0.109914
H36   H     H_    0.063556 0.607464 0.459464 0.117844
H37   H     H_    0.049651 0.872024 0.761187 0.112635
H38   H     H_    0.239035 0.791465 0.717682 0.115780
H39   H     H_    0.478333 0.347718 0.993729 0.127805
H40   H     H_    0.810788 0.984584 0.032666 0.135774
H41   H     H_    0.823954 0.009916 0.235913 0.158421
O5    O     O_3   0.194726 0.844565 0.153426 -0.717052
H42   H     H_    0.229364 0.891886 0.203562 0.306164
O6    O     O_3   0.810748 0.628794 0.395688 -0.793584
H43   H     H_    0.739984 0.674744 0.459735 0.312340
O7    O     O_3   0.837193 0.728978 0.898458 -0.719306
H44   H     H_    0.799257 0.803358 0.919210 0.307553

loop_
_geom_bond_atom_site_label_1
_geom_bond_atom_site_label_2
_geom_bond_distance
_ccdc_geom_bond_type
N14   Ni1   1.885708 S    
C31   C32   1.401936 A    
C46   H22   1.083189 S    
C29   C30   1.397205 A    
C7    C10   1.379061 A    
C14   N10   1.329740 A    
C19   H9    1.077822 S    
C51   C52   1.386790 A    
N6    Ni1   1.885159 S    
C18   C23   1.367789 A    
C39   C40   1.397654 A    
C25   H12   1.082743 S    
N16   Ni3   1.834515 S    
C56   C57   1.397752 A    
C59   H38   1.083206 S    
C17   H8    1.078096 S    
C40   O3    1.378738 S    
C13   N9    1.321100 A    
C8    N8    1.347970 A    
C39   H31   1.082547 S    
N4    N6    1.375180 A    
C1    O1    1.372182 S    
C15   H6    1.081067 S    
N2    N7    1.386148 A    
C26   C27   1.408794 A    
O2    H30   0.991653 S    
C3    C11   1.388538 A    
C27   C36   1.490493 S    
C4    C12   1.359576 A    
C62   H27   1.081734 S    
C1    N1    1.352160 A    
C28   C29   1.399516 A    
O3    H32   0.990550 S    
O1    H28   0.989554 S    
H11   C30   1.082629 S    
C63   C64   1.334327 D    
C64   H41   1.085503 S    
C58   H37   1.083265 S    
C4    H2    1.079117 S    
C52   C53   1.397908 A    
C61   C62   1.336135 D    
C34   H17   1.087108 S    
C47   C48   1.395947 A    
N13   Ni2   1.808498 S    
C22   C32   1.422281 S    
C20   C22   1.376664 A    
C13   C21   1.379045 A    
C31   H16   1.084313 S    
N1    N8    1.386132 A    
C19   N15   1.339101 A    
C57   H26   1.082126 S    
C48   H33   1.082375 S    
C58   C59   1.399173 A    
N2    Ni2   1.885707 S    
C20   N16   1.330058 A    
N9    N15   1.375177 A    
C15   C23   1.371349 A    
C56   H36   1.080836 S    
C37   C38   1.407448 A    
N10   Ni2   1.885161 S    
N12   N13   1.386131 A    
C17   C24   1.389673 A    
C44   H21   1.082936 S    
N3    Ni3   1.875088 S    
C18   N14   1.321845 A    
C41   C42   1.403380 A    
C45   C46   1.408266 A    
O6    H43   0.991074 S    
C26   H13   1.081260 S    
C31   C36   1.396792 A    
C43   C48   1.396905 A    
C29   H15   1.082298 S    
C27   C28   1.407096 A    
C6    C12   1.376059 A    
C38   H18   1.082712 S    
C51   C60   1.483524 S    
N8    Ni3   1.833169 S    
C18   H29   1.081687 S    
C52   H25   1.084466 S    
N12   Ni4   1.833170 S    
C49   C50   1.391430 A    
C16   H7    1.079580 S    
C50   C51   1.404879 A    
C13   H4    1.077040 S    
C57   C58   1.397614 A    
C45   C54   1.489370 S    
C38   C39   1.395518 A    
O4    H34   0.989059 S    
O7    H44   0.988701 S    
N9    Ni1   1.809408 S    
C9    C63   1.478591 S    
C21   C61   1.438987 S    
C53   C54   1.414064 A    
C43   C44   1.399466 A    
C46   C47   1.397718 A    
C2    C10   1.379763 A    
C37   C42   1.407743 A    
C2    H1    1.080639 S    
N4    Ni4   1.834515 S    
C20   H10   1.080310 S    
C6    O5    1.376715 S    
C16   C24   1.388873 A    
C1    C9    1.398614 A    
C23   C50   1.418107 S    
C40   C41   1.407570 A    
C12   C35   1.424738 S    
C32   C33   1.399533 A    
C44   C45   1.405461 A    
C35   C36   1.406546 A    
C2    N2    1.332305 A    
N7    Ni4   1.876052 S    
N5    Ni2   1.809408 S    
C34   C35   1.393233 A    
C5    H3    1.079237 S    
N15   Ni4   1.875087 S    
C3    N3    1.346190 A    
N1    Ni1   1.808498 S    
C59   C60   1.407033 A    
C5    C11   1.366285 A    
C55   C60   1.404690 A    
N10   N16   1.375181 A    
C55   H35   1.083528 S    
C17   N13   1.341202 A    
O5    H42   0.990931 S    
C61   H39   1.082842 S    
C15   N11   1.329417 A    
C10   C53   1.424540 S    
C5    N5    1.319621 A    
C7    N7    1.325309 A    
C11   C62   1.445237 S    
C37   O2    1.380925 S    
C49   H24   1.086648 S    
C16   N12   1.343073 A    
C25   C26   1.398524 A    
C8    O7    1.372593 S    
C8    C9    1.390309 A    
N11   N14   1.386150 A    
C28   H14   1.082956 S    
C7    O6    1.373121 S    
C33   C34   1.368163 A    
N11   Ni3   1.876051 S    
C33   C42   1.478356 S    
C41   H19   1.083878 S    
N3    N5    1.375178 A    
C4    N4    1.328511 A    
C43   H20   1.079964 S    
C14   H5    1.077911 S    
C6    N6    1.341494 A    
C55   C56   1.398172 A    
C3    O4    1.378100 S    
C47   H23   1.082235 S    
C14   C22   1.376945 A    
C19   C21   1.384883 A    
C25   C30   1.396351 A    
C49   C54   1.367943 A    
C63   H40   1.082830 S    
