data_mof_unit_53957.cif
_audit_creation_date              2012-12-10T17:49:43-0500
_audit_creation_method            fapswitch 2.2
_symmetry_space_group_name_H-M    P1
_symmetry_Int_Tables_number       1
_space_group_crystal_system       triclinic
_cell_length_a                    10.514234
_cell_length_b                    10.683459
_cell_length_c                    9.960493
_cell_angle_alpha                 89.955831
_cell_angle_beta                  90.769054
_cell_angle_gamma                 93.683801
_cell_volume                      1116.43380427

loop_
_atom_site_label
_atom_site_type_symbol
_atom_type_description
_atom_site_fract_x
_atom_site_fract_y
_atom_site_fract_z
_atom_type_partial_charge
C1    C     C_R   0.520554 0.263468 0.499979 0.948859
C2    C     C_R   0.557376 0.068056 0.621017 0.069249
C3    C     C_R   0.549664 0.132587 0.499078 -0.248786
C4    C     C_R   0.257943 0.504096 0.499954 0.994380
C5    C     C_R   0.537036 0.067003 0.377775 0.387373
C6    C     C_R   0.491423 0.942466 0.378722 0.116650
C7    C     C_R   0.486282 0.877034 0.502787 -0.202792
C8    C     C_R   0.327778 0.339031 0.138214 0.497357
C9    C     C_R   0.306863 0.215846 0.092444 0.090014
C10   C     C_R   0.331151 0.192594 0.958176 -0.259161
C11   C     C_R   0.365580 0.293190 0.873040 0.416685
C12   C     C_3   0.954327 0.477204 0.377738 -0.077228
C13   C     C_R   0.426612 0.406815 0.928800 0.062792
C14   C     C_R   0.419682 0.416090 0.071997 -0.041909
C15   C     C_R   0.580280 0.578806 0.071369 0.420677
C16   C     C_R   0.490607 0.740538 0.500460 0.886392
C17   C     C_R   0.575601 0.582594 0.928861 -0.153553
C18   C     C_R   0.742121 0.502029 0.500745 0.933141
C19   C     C_3   0.043043 0.535516 0.625473 0.414131
C20   C     C_3   0.953137 0.420208 0.591771 -0.228792
C21   C     C_3   0.876599 0.504896 0.502124 -0.194998
C22   C     C_3   0.963012 0.621030 0.538384 -0.215691
C23   C     C_3   0.033479 0.393803 0.468364 0.410046
C24   C     C_3   0.043777 0.592368 0.415350 0.100328
C25   C     C_3   0.442115 0.884466 0.247848 -0.769636
C26   C     C_3   0.225562 0.121253 0.170453 -0.692060
C27   C     C_3   0.094400 0.694928 0.320364 -0.740890
C28   C     C_3   0.122939 0.507970 0.502500 -0.179709
C29   C     C_R   0.612557 0.125289 0.737689 -0.118747
C30   C     C_R   0.602386 0.065353 0.861325 -0.096729
C31   C     C_R   0.532363 0.951068 0.871023 -0.147195
C32   C     C_R   0.482666 0.891798 0.755385 -0.122953
C33   C     C_R   0.508175 0.943430 0.626303 0.073029
Cl1   Cl    Cl    0.698243 0.674715 0.154022 -0.600070
Cl2   Cl    Cl    0.183595 0.410391 0.160077 -0.577604
Cl3   Cl    Cl    0.270865 0.276998 0.727564 -0.511649
Cl4   Cl    Cl    0.099434 0.575295 0.790637 -0.518304
Cl5   Cl    Cl    0.077457 0.239581 0.433209 -0.559314
Cl6   Cl    Cl    0.593191 0.136094 0.225783 -0.646593
H1    H     H_    0.912178 0.349690 0.663790 0.198093
H2    H     H_    0.356051 0.821092 0.264541 0.225033
H3    H     H_    0.413225 0.955988 0.175569 0.239585
H4    H     H_    0.517319 0.834000 0.199409 0.294100
H5    H     H_    0.265755 0.111942 0.273325 0.262336
H6    H     H_    0.126631 0.150852 0.175638 0.306760
H7    H     H_    0.219990 0.027715 0.121522 0.207875
H8    H     H_    0.013312 0.738163 0.269903 0.279745
H9    H     H_    0.151062 0.768023 0.378495 0.209698
H10   H     H_    0.155672 0.655984 0.243342 0.282718
H11   H     H_    0.517164 0.907579 0.967818 0.167727
H12   H     H_    0.421552 0.807947 0.770060 0.185924
H13   H     H_    0.295881 0.103505 0.915212 0.206871
H14   H     H_    0.637997 0.649426 0.875511 0.184355
H15   H     H_    0.929643 0.713676 0.567240 0.189425
H16   H     H_    0.915012 0.452900 0.276364 0.229860
H17   H     H_    0.665204 0.215685 0.733334 0.151824
H18   H     H_    0.644733 0.110022 0.949864 0.210776
N1    N     N_R   0.498800 0.498800 0.142780 -0.135569
N2    N     N_R   0.498760 0.498720 0.857170 -0.124576
O1    O     O_R   0.500000 0.316780 0.614690 -0.601974
O2    O     O_R   0.499990 0.316750 0.385360 -0.577536
O3    O     O_R   0.313960 0.499980 0.614650 -0.541306
O4    O     O_R   0.313940 0.499960 0.385310 -0.594211
O5    O     O_R   0.500010 0.683250 0.614640 -0.643983
O6    O     O_R   0.500000 0.683220 0.385310 -0.583118
O7    O     O_R   0.686060 0.500040 0.614690 -0.636698
O8    O     O_R   0.686040 0.500020 0.385350 -0.565826
Zn1   Zn    Zn3+2 0.500010 0.500020 0.653130 1.008331
Zn2   Zn    Zn3+2 0.499990 0.499980 0.346870 1.047023

loop_
_geom_bond_atom_site_label_1
_geom_bond_atom_site_label_2
_ccdc_geom_bond_type
C27   H9    S    
C25   H3    S    
C27   H10   S    
O7    Zn1   S    
C20   C23   S    
N1    Zn2   S    
C6    C7    A    
C13   N2    A    
C29   H17   S    
C17   H14   S    
N2    Zn1   S    
C18   O7    A    
C18   C21   S    
C24   C28   S    
C9    C10   A    
C12   C24   S    
C15   Cl1   S    
C31   C32   A    
C12   C23   S    
C24   C27   S    
O3    Zn1   S    
C30   C31   A    
C10   H13   S    
C32   C33   A    
C25   H4    S    
C2    C3    A    
C26   H5    S    
C32   H12   S    
C21   C22   S    
O8    Zn2   S    
C19   C28   S    
C11   C13   A    
C4    O4    A    
C29   C30   A    
C17   N2    A    
C2    C29   A    
O6    Zn2   S    
O5    Zn1   S    
C2    C33   A    
C27   H8    S    
C7    C16   S    
C4    C28   S    
C9    C26   S    
C5    Cl6   S    
O4    Zn2   S    
C5    C6    A    
C14   N1    A    
C15   N1    A    
C22   C24   S    
C12   H16   S    
C10   C11   A    
C26   H7    S    
C31   H11   S    
O2    Zn2   S    
C13   C14   A    
C23   Cl5   S    
C30   H18   S    
C4    O3    A    
C19   C22   S    
C16   O5    A    
C20   C21   S    
O1    Zn1   S    
C22   H15   S    
C6    C25   S    
C1    O1    A    
C25   H2    S    
C15   C17   A    
C7    C33   A    
C11   Cl3   S    
C8    C14   A    
C16   O6    A    
C19   Cl4   S    
C26   H6    S    
C3    C5    A    
C18   O8    A    
C23   C28   S    
C20   H1    S    
C12   C21   S    
C19   C20   S    
C8    C9    A    
C1    C3    S    
C8    Cl2   S    
C1    O2    A    
