data_mof_unit_5113.cif
_audit_creation_date              2012-12-10T18:53:40-0500
_audit_creation_method            fapswitch 2.2
_symmetry_space_group_name_H-M    P1
_symmetry_Int_Tables_number       1
_space_group_crystal_system       triclinic
_cell_length_a                    10.601941
_cell_length_b                    9.811987
_cell_length_c                    19.225992
_cell_angle_alpha                 90.015123
_cell_angle_beta                  90.020649
_cell_angle_gamma                 89.426392
_cell_volume                      1999.90468193

loop_
_atom_site_label
_atom_site_type_symbol
_atom_type_description
_atom_site_fract_x
_atom_site_fract_y
_atom_site_fract_z
_atom_type_partial_charge
C1    C     C_R   0.260488 0.500913 0.509648 0.879355
C2    C     C_R   0.739715 0.498931 0.509434 0.879277
C3    C     C_R   0.500582 0.500628 0.930275 0.314319
C4    C     C_R   0.500467 0.500381 0.070588 0.310013
C5    C     C_R   0.500001 0.499981 0.366073 0.817591
C6    C     C_R   0.500114 0.499997 0.634144 0.829040
C7    C     C_R   0.069522 0.377447 0.546436 -0.016253
C8    C     C_R   0.930979 0.620957 0.547063 0.004784
C9    C     C_R   0.938797 0.372066 0.539355 -0.079974
C10   C     C_R   0.061717 0.626799 0.540481 -0.083074
C11   C     C_R   0.871073 0.496554 0.531852 -0.167283
C12   C     C_R   0.129456 0.502503 0.532303 -0.167935
C13   C     C_R   0.546329 0.071576 0.555535 -0.026023
C14   C     C_R   0.452460 0.928461 0.444744 -0.029824
C15   C     C_R   0.452372 0.072494 0.444766 -0.036245
C16   C     C_R   0.545980 0.927664 0.555605 -0.061202
C17   C     C_R   0.615773 0.511106 0.255279 -0.046449
C18   C     C_R   0.389556 0.538685 0.745696 -0.025464
C19   C     C_R   0.611009 0.461250 0.745646 -0.025686
C20   C     C_R   0.384616 0.488793 0.255116 -0.049952
C21   C     C_R   0.614251 0.510924 0.182789 -0.101827
C22   C     C_R   0.391382 0.538546 0.818174 -0.104304
C23   C     C_R   0.609563 0.462170 0.818141 -0.103859
C24   C     C_R   0.386366 0.489233 0.182629 -0.101079
C25   C     C_R   0.500364 0.500177 0.146465 -0.018248
C26   C     C_R   0.500559 0.500552 0.854399 -0.020298
C27   C     C_R   0.500132 0.499938 0.291136 -0.186535
C28   C     C_R   0.500226 0.499957 0.709452 -0.168431
H1    H     H_    0.702191 0.519894 0.154547 0.201125
H2    H     H_    0.307229 0.568297 0.846528 0.201688
H3    H     H_    0.693768 0.432449 0.846483 0.201546
H4    H     H_    0.298511 0.480335 0.154262 0.201262
H5    H     H_    0.583158 0.125678 0.600001 0.128120
H6    H     H_    0.414172 0.874288 0.400665 0.148430
H7    H     H_    0.414012 0.127451 0.400704 0.141455
H8    H     H_    0.581790 0.873108 0.600310 0.184613
N1    N     N_R   0.500000 0.857200 0.500000 -0.095762
N2    N     N_R   0.500000 0.142800 0.500000 -0.083713
N3    N     N_R   0.390832 0.513679 0.034879 -0.152803
N4    N     N_R   0.610222 0.487261 0.965979 -0.151618
N5    N     N_R   0.390899 0.513894 0.965908 -0.151699
N6    N     N_R   0.610174 0.487245 0.034957 -0.152413
O1    O     O_R   0.316770 0.614620 0.500000 -0.636459
O2    O     O_R   0.683230 0.385380 0.500000 -0.630911
O3    O     O_R   0.683230 0.614620 0.500000 -0.587119
O4    O     O_R   0.316770 0.385380 0.500000 -0.587000
O5    O     O_R   0.499990 0.614700 0.398140 -0.613478
O6    O     O_R   0.500010 0.385300 0.601860 -0.607549
O7    O     O_R   0.500010 0.614700 0.601860 -0.614184
O8    O     O_R   0.499990 0.385300 0.398140 -0.613122
Zn1   Zn    Zn3+2 0.500000 0.653120 0.500000 0.981709
Zn2   Zn    Zn3+2 0.500000 0.346880 0.500000 0.991351
C29   C     C_2   0.140393 0.257269 0.574628 0.469612
H9    H     H_    0.115016 0.154194 0.560675 0.136073
O9    O     O_2   0.225726 0.272989 0.616480 -0.563577
C30   C     C_2   0.859999 0.738545 0.577395 0.456766
H10   H     H_    0.881692 0.842580 0.563340 0.134532
O10   O     O_2   0.778815 0.719173 0.621212 -0.592416
C31   C     C_2   0.874164 0.238725 0.545024 0.424674
H11   H     H_    0.797175 0.226391 0.581498 0.064024
O11   O     O_2   0.904096 0.143399 0.507474 -0.552532
C32   C     C_2   0.126257 0.760218 0.547119 0.420842
H12   H     H_    0.205869 0.770910 0.582098 0.087035
O12   O     O_2   0.093399 0.857759 0.511854 -0.560541
C33   C     C_2   0.738292 0.522264 0.292795 0.460998
H13   H     H_    0.741811 0.521108 0.349153 0.062225
O13   O     O_2   0.837520 0.532815 0.261065 -0.508233
C34   C     C_2   0.271041 0.576751 0.708741 0.480619
H14   H     H_    0.265972 0.572108 0.652700 0.031881
O14   O     O_2   0.176985 0.613348 0.740610 -0.539283
C35   C     C_2   0.729095 0.421911 0.708618 0.478172
H15   H     H_    0.733425 0.424168 0.652508 0.032172
O15   O     O_2   0.823629 0.386776 0.740502 -0.539753
C36   C     C_2   0.261999 0.477389 0.292465 0.446086
H16   H     H_    0.258333 0.478199 0.348821 0.059559
O16   O     O_2   0.162858 0.466999 0.260594 -0.506841

loop_
_geom_bond_atom_site_label_1
_geom_bond_atom_site_label_2
_ccdc_geom_bond_type
C19   C35   S    
C8    C30   S    
C4    C25   S    
N3    N5    A    
C29   H9    S    
C5    O5    A    
C36   O16   D    
N1    Zn1   S    
C1    O4    A    
N2    Zn2   S    
O3    Zn1   S    
C18   C34   S    
O4    Zn2   S    
C30   H10   S    
C23   C26   A    
C32   O12   D    
C5    C27   S    
C1    O1    A    
C6    C28   S    
C20   C24   A    
C2    O2    A    
C34   H14   S    
C33   O13   D    
O8    Zn2   S    
C16   N1    A    
O2    Zn2   S    
N4    N6    A    
C31   H11   S    
C10   C32   S    
C1    C12   S    
C2    C11   S    
C15   H7    S    
C29   O9    D    
C2    O3    A    
C7    C12   A    
C31   O11   D    
C36   H16   S    
C17   C27   A    
C18   C28   A    
C24   C25   A    
C35   O15   D    
O5    Zn1   S    
O7    Zn1   S    
C21   H1    S    
C17   C21   A    
C9    C31   S    
C23   H3    S    
C19   C23   A    
C24   H4    S    
C15   N2    A    
C13   H5    S    
C32   H12   S    
C4    N3    A    
C20   C36   S    
C19   C28   A    
C9    C11   A    
C13   N2    A    
C6    O6    A    
C10   C12   A    
C34   O14   D    
C3    N4    A    
C5    O8    A    
C7    C29   S    
C7    C9    A    
C21   C25   A    
C3    N5    A    
C22   H2    S    
C18   C22   A    
C3    C26   S    
C14   H6    S    
C20   C27   A    
C17   C33   S    
C35   H15   S    
C16   H8    S    
C14   N1    A    
O1    Zn1   S    
C4    N6    A    
C8    C11   A    
C30   O10   D    
C6    O7    A    
O6    Zn2   S    
C8    C10   A    
C33   H13   S    
C22   C26   A    
C13   C16   A    
C14   C15   A    
