data_mof_unit_17687.cif
_audit_creation_date              2012-12-10T16:50:02-0500
_audit_creation_method            fapswitch 2.2
_symmetry_space_group_name_H-M    P1
_symmetry_Int_Tables_number       1
_space_group_crystal_system       triclinic
_cell_length_a                    7.774671
_cell_length_b                    8.590718
_cell_length_c                    10.639687
_cell_angle_alpha                 91.154514
_cell_angle_beta                  83.135429
_cell_angle_gamma                 94.145649
_cell_volume                      703.637061424

loop_
_atom_site_label
_atom_site_type_symbol
_atom_type_description
_atom_site_fract_x
_atom_site_fract_y
_atom_site_fract_z
_atom_type_partial_charge
C1    C     C_R   0.545223 0.794485 0.507411 1.060631
C2    C     C_R   0.453072 0.205635 0.510752 0.821257
C3    C     C_R   0.503622 0.505351 0.260149 0.969394
C4    C     C_R   0.326722 0.756770 0.902298 -0.171615
C5    C     C_R   0.340607 0.908024 0.957272 0.464404
C6    C     C_R   0.413122 0.928816 0.070045 -0.277084
C7    C     C_R   0.471279 0.802089 0.130256 0.382126
C8    C     C_R   0.467404 0.653178 0.070728 0.059315
C9    C     C_2   0.169021 0.709824 0.839960 0.510402
C10   C     C_R   0.422812 0.638387 0.947389 -0.145614
C11   C     C_R   0.485492 0.508930 0.874412 -0.044311
C12   C     C_R   0.556024 0.385814 0.928797 -0.124241
C13   C     C_R   0.562470 0.386987 0.056672 -0.234398
C14   C     C_R   0.514650 0.518105 0.127217 -0.051773
C15   C     C_2   0.566337 0.958873 0.514177 -0.438972
C16   C     C_2   0.425339 0.043083 0.532450 0.237225
C17   C     C_R   0.497387 0.506129 0.740342 0.850442
H1    H     H_    0.601120 0.286821 0.872525 0.160634
H2    H     H_    0.175131 0.057394 0.585744 0.356109
H3    H     H_    0.985058 0.619259 0.594109 0.229797
H4    H     H_    0.420149 0.044241 0.112671 0.155146
H5    H     H_    0.605936 0.286539 0.100768 0.143349
H6    H     H_    0.698015 0.010562 0.491704 0.158470
H7    H     H_    0.014789 0.380800 0.405675 0.194233
H8    H     H_    0.118672 0.588616 0.842039 0.081105
H9    H     H_    0.289334 0.022523 0.814093 0.375516
H10   H     H_    0.556699 0.938599 0.260088 0.320367
N1    N     N_2   0.950330 0.457950 0.466250 -0.173058
N2    N     N_2   0.049670 0.542050 0.533750 -0.159512
O1    O     O_R   0.389250 0.738570 0.508280 -0.515089
O2    O     O_3   0.278439 0.036473 0.907167 -0.738353
O3    O     O_3   0.549813 0.825551 0.239006 -0.776233
O4    O     O_3   0.259470 0.976145 0.570500 -0.711729
O5    O     O_R   0.678390 0.711630 0.486650 -0.615702
O6    O     O_R   0.355400 0.513470 0.694050 -0.648836
O7    O     O_R   0.644540 0.486530 0.672420 -0.624903
O8    O     O_R   0.321610 0.288370 0.513350 -0.637117
O9    O     O_R   0.610750 0.261430 0.491720 -0.637737
O10   O     O_R   0.355460 0.513470 0.327580 -0.619911
O11   O     O_R   0.644600 0.486530 0.305950 -0.604988
O12   O     O_2   0.087478 0.804419 0.792202 -0.556458
Zn1   Zn    Zn3+2 0.306930 0.517990 0.514440 1.001934
Zn2   Zn    Zn3+2 0.693070 0.482010 0.485560 0.975773

loop_
_geom_bond_atom_site_label_1
_geom_bond_atom_site_label_2
_ccdc_geom_bond_type
C3    O11   A    
C11   C12   A    
C6    C7    A    
C1    C15   S    
C17   O7    A    
N2    Zn1   S    
C2    C16   S    
C2    O9    A    
N1    Zn2   S    
C9    O12   D    
C1    O5    A    
C15   H6    S    
C4    C9    S    
C3    O10   A    
H9    O2    S    
C13   C14   A    
C2    O8    A    
C3    C14   S    
N1    N2    D    
C13   H5    S    
O10   Zn1   S    
H3    N2    S    
C5    C6    A    
C16   O4    S    
C7    C8    A    
C10   C11   A    
C4    C10   A    
C15   C16   D    
O9    Zn2   S    
C12   C13   A    
C8    C10   A    
H2    O4    S    
C12   H1    S    
O8    Zn1   S    
O6    Zn1   S    
C1    O1    A    
O7    Zn2   S    
C8    C14   A    
C7    O3    S    
C17   O6    A    
H10   O3    S    
C9    H8    S    
C6    H4    S    
O11   Zn2   S    
O1    Zn1   S    
O5    Zn2   S    
H7    N1    S    
C4    C5    A    
C5    O2    S    
C11   C17   S    
