data_mof_unit_26295.cif
_audit_creation_date              2012-12-11T14:20:59-0500
_audit_creation_method            fapswitch 2.2
_symmetry_space_group_name_H-M    P1
_symmetry_Int_Tables_number       1
_space_group_crystal_system       triclinic
_cell_length_a                    11.632742
_cell_length_b                    11.591593
_cell_length_c                    19.465153
_cell_angle_alpha                 90.831527
_cell_angle_beta                  90.063051
_cell_angle_gamma                 60.21271
_cell_volume                      2277.6346368

loop_
_atom_site_label
_atom_site_type_symbol
_atom_type_description
_atom_site_fract_x
_atom_site_fract_y
_atom_site_fract_z
_atom_type_partial_charge
C1    C     C_R   0.640278 0.117524 0.598973 0.546952
C2    C     C_1   0.652637 0.150369 0.668403 0.007139
C3    C     C_R   0.658572 0.677122 0.193255 0.039017
C4    C     C_R   0.611981 0.746523 0.598457 0.540322
C5    C     C_R   0.544969 0.698333 0.229183 0.003330
C6    C     C_R   0.559046 0.661271 0.297877 0.032503
C7    C     C_R   0.762639 0.668571 0.302350 -0.157426
C8    C     C_R   0.767652 0.664295 0.230521 0.205296
C9    C     C_R   0.421526 0.744056 0.197438 -0.055631
C10   C     C_R   0.322380 0.732788 0.230738 -0.131251
C11   C     C_R   0.345538 0.674981 0.295397 -0.173056
C12   C     C_1   0.640791 0.704152 0.667792 0.006607
C13   C     C_R   0.465300 0.634007 0.327525 -0.065916
C14   C     C_R   0.657246 0.668831 0.336542 -0.044331
C15   C     C_R   0.149042 0.196355 0.192992 -0.021093
C16   C     C_R   0.240839 0.145519 0.597907 0.545035
C17   C     C_R   0.160983 0.291130 0.234674 0.002945
C18   C     C_R   0.136613 0.292017 0.305236 -0.025426
C19   C     C_R   0.177031 0.066802 0.295388 -0.128792
C20   C     C_R   0.157734 0.083561 0.224566 -0.150317
C21   C     C_R   0.193531 0.386546 0.210134 0.277136
C22   C     C_R   0.174357 0.492260 0.253404 -0.015490
C23   C     C_1   0.127055 0.198097 0.859500 0.008176
C24   C     C_R   0.120776 0.507520 0.319330 0.152526
C25   C     C_R   0.097824 0.408678 0.344169 -0.088665
C26   C     C_R   0.168985 0.170896 0.336491 0.010005
C27   C     C_R   0.659506 0.178962 0.190054 0.073646
C28   C     C_R   0.646079 0.113038 0.402477 0.583380
C29   C     C_R   0.743969 0.056057 0.220142 -0.055258
C30   C     C_R   0.769977 0.055094 0.290594 -0.004966
C31   C     C_R   0.564803 0.264262 0.302870 -0.170731
C32   C     C_R   0.565209 0.282496 0.231513 0.201503
C33   C     C_R   0.819846 0.941349 0.179645 0.285961
C34   C     C_1   0.171099 0.170590 0.727563 -0.029792
C35   C     C_R   0.948944 0.851739 0.201089 0.208287
C36   C     C_R   0.985101 0.862967 0.268124 -0.109777
C37   C     C_R   0.897474 0.962348 0.313849 0.239676
C38   C     C_R   0.668073 0.150590 0.333473 0.001777
C39   C     C_R   0.081921 0.230910 0.928844 0.541083
C40   C     C_R   0.619371 0.733378 0.404087 0.536497
C41   C     C_R   0.684161 0.603956 0.929673 0.535744
C42   C     C_R   0.708786 0.206296 0.930394 0.550920
C43   C     C_R   0.085553 0.235105 0.124963 0.533237
C44   C     C_R   0.681244 0.615569 0.124748 0.555789
C45   C     C_1   0.150278 0.181844 0.798955 -0.029255
C46   C     C_R   0.704403 0.209138 0.125087 0.611148
C47   C     C_R   0.238867 0.142275 0.402826 0.542601
C48   C     C_1   0.670643 0.646276 0.860325 0.009960
C49   C     C_1   0.654557 0.683766 0.728341 -0.030283
C50   C     C_1   0.663527 0.666643 0.799764 -0.029316
C51   C     C_1   0.194742 0.161604 0.667084 0.007531
C52   C     C_1   0.679212 0.190094 0.861061 0.009972
C53   C     C_1   0.658407 0.167501 0.728996 -0.029927
C54   C     C_1   0.665963 0.180177 0.800469 -0.029408
Cr1   Cr    Cr6+3 0.404720 0.198220 0.499960 1.032184
Cr2   Cr    Cr6+3 0.698290 0.897110 0.500380 1.052356
Cr3   Cr    Cr6+3 0.396970 0.904720 0.499610 1.036675
Cr4   Cr    Cr6+3 0.926180 0.151990 0.028120 1.041112
Cr5   Cr    Cr6+3 0.921330 0.451820 0.027470 1.098554
Cr6   Cr    Cr6+3 0.626260 0.446870 0.028710 1.088801
H1    H     H_    0.230837 0.764235 0.204434 0.167223
H2    H     H_    0.816065 0.832104 0.103721 0.358449
H3    H     H_    0.415500 0.458023 0.237505 0.324652
H4    H     H_    0.019399 0.783833 0.109729 0.346030
H5    H     H_    0.082315 0.795410 0.284836 0.146473
H6    H     H_    0.033016 0.908626 0.384455 0.327329
H7    H     H_    0.402661 0.785865 0.146502 0.128044
H8    H     H_    0.940150 0.645034 0.230162 0.350678
H9    H     H_    0.199008 0.973171 0.317789 0.146674
H10   H     H_    0.295602 0.280510 0.131613 0.325744
H11   H     H_    0.274127 0.657530 0.320965 0.157400
H12   H     H_    0.481567 0.587723 0.377254 0.133504
H13   H     H_    0.149875 0.008588 0.194472 0.135833
H14   H     H_    0.838970 0.674667 0.331286 0.152024
H15   H     H_    0.194957 0.566729 0.234124 0.186262
H16   H     H_    0.056981 0.613021 0.403712 0.331062
H17   H     H_    0.059666 0.417675 0.395940 0.124573
H18   H     H_    0.485123 0.339269 0.334299 0.127750
O1    O     O_R   0.267740 0.231960 0.575440 -0.508406
O2    O     O_R   0.596130 0.579390 0.952730 -0.508802
O3    O     O_R   0.639060 0.321160 0.958670 -0.494648
O4    O     O_R   0.527280 0.186640 0.570530 -0.496919
O5    O     O_R   0.821240 0.124200 0.104370 -0.500717
O6    O     O_R   0.036890 0.167040 0.097840 -0.512932
O7    O     O_R   0.056180 0.349610 0.102880 -0.446436
O8    O     O_R   0.797660 0.564870 0.097950 -0.433680
O9    O     O_R   0.595880 0.584250 0.104270 -0.512614
O10   O     O_R   0.638830 0.325670 0.099150 -0.431872
O11   O     O_3   0.824590 0.350230 0.028100 -0.286268
O12   O     O_R   0.685970 0.784660 0.430010 -0.504952
O13   O     O_R   0.728090 0.003450 0.576380 -0.498715
O14   O     O_R   0.682970 0.789190 0.570490 -0.499012
O15   O     O_R   0.499290 0.771880 0.575530 -0.506669
O16   O     O_R   0.285330 0.030870 0.569730 -0.492331
O17   O     O_R   0.270980 0.227080 0.423890 -0.517886
O18   O     O_R   0.530280 0.182120 0.430050 -0.515135
O19   O     O_R   0.731330 0.998570 0.424830 -0.444361
O20   O     O_3   0.094670 0.617613 0.358834 -0.766153
O21   O     O_3   0.768654 0.926975 0.117983 -0.692914
O22   O     O_3   0.475661 0.399471 0.201369 -0.635097
O23   O     O_R   0.502530 0.767000 0.423990 -0.517497
O24   O     O_3   0.042233 0.755302 0.157900 -0.717986
O25   O     O_3   0.940750 0.980841 0.377072 -0.671175
O26   O     O_3   0.878247 0.645564 0.195913 -0.657848
O27   O     O_3   0.254138 0.374457 0.147451 -0.621708
O28   O     O_R   0.288330 0.026350 0.429250 -0.494239
O29   O     O_3   0.499990 0.000020 0.499980 -0.263573
O30   O     O_R   0.821500 0.119340 0.952830 -0.498647
O31   O     O_R   0.037130 0.162530 0.957360 -0.500124
O32   O     O_R   0.056440 0.344740 0.951340 -0.499133
O33   O     O_R   0.797900 0.560360 0.957470 -0.500533

loop_
_geom_bond_atom_site_label_1
_geom_bond_atom_site_label_2
_ccdc_geom_bond_type
C28   O19   A    
C23   C45   T    
C27   C29   A    
Cr4   O31   S    
C19   C20   A    
C18   C26   A    
C16   C51   S    
C35   O24   S    
C41   O2    A    
Cr5   O7    S    
C12   C49   T    
Cr6   O10   S    
C7    C8    A    
C53   C54   S    
H4    O24   S    
C18   C25   A    
C34   C51   T    
H3    O22   S    
C25   H17   S    
Cr2   O19   S    
C36   C37   A    
C5    C6    A    
C11   H11   S    
C46   O5    A    
H16   O20   S    
C29   C33   A    
C7    C14   A    
Cr5   O32   S    
C30   C38   A    
C1    C2    S    
Cr5   O11   S    
C19   C26   A    
C40   O23   A    
Cr2   O13   S    
C35   C36   A    
Cr5   O33   S    
C4    C12   S    
C44   O9    A    
C9    C10   A    
Cr4   O30   S    
Cr2   O12   S    
Cr3   O28   S    
C1    O13   A    
Cr3   O15   S    
C21   C22   A    
C43   O6    A    
C42   O3    A    
C22   H15   S    
C44   O8    A    
Cr6   O9    S    
C52   C54   T    
C7    H14   S    
C46   O10   A    
C39   O32   A    
C15   C20   A    
C3    C44   S    
C43   O7    A    
C24   C25   A    
Cr1   O17   S    
C3    C8    A    
C37   O25   S    
C36   H5    S    
C1    O4    A    
Cr6   O11   S    
C2    C53   T    
C17   C21   A    
C4    O15   A    
C30   C37   A    
Cr1   O29   S    
C33   O21   S    
C9    H7    S    
Cr2   O29   S    
C5    C9    A    
C29   C30   A    
Cr4   O6    S    
C6    C14   A    
Cr1   O1    S    
Cr6   O3    S    
C31   C32   A    
C28   C38   S    
C47   O28   A    
C17   C18   A    
C34   C45   S    
Cr1   O4    S    
C8    O26   S    
C26   C47   S    
C27   C46   S    
Cr3   O29   S    
Cr3   O16   S    
C24   O20   S    
C19   H9    S    
C10   H1    S    
C31   H18   S    
C15   C17   A    
Cr6   O2    S    
C27   C32   A    
H6    O25   S    
H8    O26   S    
Cr1   O18   S    
C3    C5    A    
H10   O27   S    
C13   H12   S    
Cr3   O23   S    
C16   O16   A    
C31   C38   A    
C28   O18   A    
C16   O1    A    
Cr5   O8    S    
C15   C43   S    
Cr4   O5    S    
C6    C13   A    
C11   C13   A    
C23   C39   S    
C48   C50   T    
C33   C35   A    
C41   C48   S    
C20   H13   S    
C22   C24   A    
Cr4   O11   S    
C10   C11   A    
C14   C40   S    
H2    O21   S    
C32   O22   S    
C39   O31   A    
C49   C50   S    
C41   O33   A    
C47   O17   A    
C40   O12   A    
Cr2   O14   S    
C42   O30   A    
C21   O27   S    
C42   C52   S    
C4    O14   A    
