data_mof_unit_46268.cif
_audit_creation_date              2013-03-05T16:11:20-0500
_audit_creation_method            fapswitch 2.2
_symmetry_space_group_name_H-M    P1
_symmetry_Int_Tables_number       1
_space_group_crystal_system       triclinic
_cell_length_a                    10.709386
_cell_length_b                    9.808357
_cell_length_c                    10.697524
_cell_angle_alpha                 90.153777
_cell_angle_beta                  89.680654
_cell_angle_gamma                 90.500518
_cell_volume                      1123.61953531

loop_
_atom_site_label
_atom_site_type_symbol
_atom_site_description
_atom_site_fract_x
_atom_site_fract_y
_atom_site_fract_z
_atom_type_partial_charge
O1    O     O_R   0.316750 0.614620 0.499990 -0.642340
O2    O     O_R   0.316750 0.385380 0.499990 -0.603616
C1    C     C_R   0.259760 0.499628 0.496321 1.004044
O3    O     O_R   0.499970 0.614670 0.314790 -0.611876
O4    O     O_R   0.499970 0.385330 0.314790 -0.572131
C2    C     C_R   0.500761 0.500260 0.257590 0.898011
Zn1   Zn    Zn3+2 0.499980 0.653120 0.500000 1.058792
Zn2   Zn    Zn3+2 0.499980 0.346880 0.500000 1.057366
O5    O     O_R   0.683220 0.614710 0.500010 -0.591130
O6    O     O_R   0.683220 0.385290 0.500010 -0.597229
O7    O     O_R   0.500010 0.614660 0.685200 -0.604304
O8    O     O_R   0.500010 0.385340 0.685200 -0.619738
C3    C     C_R   0.739677 0.500936 0.486691 0.917112
C4    C     C_R   0.495627 0.500583 0.742353 0.956119
C5    C     C_3   0.504473 0.653324 0.072370 0.040654
C6    C     C_3   0.370657 0.438910 0.074968 0.029284
H1    H     H_    0.422225 0.707970 0.111729 0.161752
H2    H     H_    0.298217 0.515386 0.099066 0.170109
C7    C     C_3   0.495123 0.653748 0.929082 0.061156
C8    C     C_3   0.376505 0.418628 0.931141 0.108983
H3    H     H_    0.582085 0.701567 0.890715 0.176396
H4    H     H_    0.396452 0.309305 0.911667 0.186601
H5    H     H_    0.699299 0.454846 0.108018 0.243359
H6    H     H_    0.601199 0.310405 0.094540 0.258538
H7    H     H_    0.696086 0.490340 0.895451 0.233656
H8    H     H_    0.620718 0.327504 0.884296 0.223036
C9    C     C_3   0.609151 0.419454 0.068174 -0.281933
C10   C     C_3   0.497780 0.501733 0.121504 -0.205471
C11   C     C_3   0.490915 0.502725 0.878593 -0.197032
C12   C     C_3   0.611699 0.431510 0.925228 -0.508950
C13   C     C_R   0.064214 0.379285 0.456972 -0.138285
C14   C     C_R   0.066117 0.624140 0.491488 -0.192245
H9    H     H_    0.114229 0.284776 0.443265 0.213847
H10   H     H_    0.116673 0.719131 0.505696 0.209284
C15   C     C_R   0.936459 0.380596 0.441894 0.277439
C16   C     C_R   0.939158 0.628479 0.477572 0.296804
C17   C     C_R   0.872380 0.504047 0.463985 -0.276337
C18   C     C_R   0.127580 0.499994 0.484905 -0.129563
C19   C     C_R   0.583758 0.073058 0.570566 0.020187
C20   C     C_R   0.583633 0.928943 0.570688 0.087179
H11   H     H_    0.650565 0.128668 0.627019 0.149924
H12   H     H_    0.650042 0.874880 0.627523 0.160629
N1    N     N_R   0.499970 0.857200 0.499970 -0.097702
N2    N     N_R   0.499970 0.142800 0.499970 -0.109727
C21   C     C_R   0.416202 0.926920 0.429360 0.012784
C22   C     C_R   0.416050 0.071026 0.429573 0.016578
H13   H     H_    0.349419 0.871287 0.372888 0.145554
H14   H     H_    0.348815 0.124986 0.373736 0.189056
N3    N     N_R   0.616715 0.728840 0.113680 0.241432
O9    O     O_R   0.727608 0.696596 0.073661 -0.350708
O10   O     O_R   0.603976 0.839723 0.179461 -0.289395
N4    N     N_R   0.334337 0.310634 0.136870 0.230124
O11   O     O_R   0.398176 0.199597 0.120613 -0.365574
O12   O     O_R   0.231969 0.305287 0.202797 -0.374698
N5    N     N_R   0.390099 0.737986 0.887134 0.230240
O13   O     O_R   0.412434 0.844343 0.817770 -0.352639
O14   O     O_R   0.278324 0.721213 0.932933 -0.319814
N6    N     N_R   0.256404 0.446659 0.869794 0.238868
O15   O     O_R   0.240572 0.407093 0.755025 -0.387825
O16   O     O_R   0.156930 0.475100 0.935111 -0.282427
N7    N     N_R   0.874563 0.258344 0.399571 0.237571
O17   O     O_R   0.911112 0.139789 0.438733 -0.302436
O18   O     O_R   0.797119 0.263739 0.306399 -0.347450
N8    N     N_R   0.881120 0.759875 0.475076 0.222817
O19   O     O_R   0.909590 0.850791 0.559280 -0.347451
O20   O     O_R   0.821229 0.797670 0.375653 -0.265260

loop_
_geom_bond_atom_site_label_1
_geom_bond_atom_site_label_2
_geom_bond_distance
_ccdc_geom_bond_type
C6    C10   1.572327 S    
O4    Zn2   2.017857 S    
Zn1   O7    2.017772 S    
N5    O13   1.301482 A    
C13   H9    1.083856 S    
C11   C12   1.560395 S    
Zn1   N1    2.001691 S    
C3    C17   1.440516 S    
C13   C18   1.392081 A    
C6    C8    1.551860 S    
Zn2   O8    2.015782 S    
H6    C9    1.109327 S    
N8    O19   1.301362 A    
C20   N1    1.365263 A    
N3    O10   1.301559 A    
C21   H13   1.081871 S    
O2    C1    1.281481 A    
C19   H11   1.081808 S    
N8    O20   1.301500 A    
C16   N8    1.436086 S    
C21   C22   1.413451 A    
N2    C22   1.365310 A    
C9    C12   1.534116 S    
C5    C7    1.536678 S    
N1    C21   1.365297 A    
Zn2   N2    2.001688 S    
C5    C10   1.579262 S    
N7    O17   1.301268 A    
C15   N7    1.438313 S    
O3    Zn1   2.015868 S    
C9    C10   1.551159 S    
C14   C16   1.369649 A    
C6    H2    1.112592 S    
C16   C17   1.416719 A    
C7    H3    1.115754 S    
O8    C4    1.284752 A    
H8    C12   1.113808 S    
C14   C18   1.390670 A    
C8    C11   1.573152 S    
N5    O14   1.300180 A    
O4    C2    1.284023 A    
C5    N3    1.475605 S    
O7    C4    1.276866 A    
C13   C15   1.378723 A    
O3    C2    1.276786 A    
C8    H4    1.114051 S    
C19   N2    1.365473 A    
N6    O16   1.302595 A    
C7    C11   1.575683 S    
C22   H14   1.080983 S    
Zn1   O5    2.001454 S    
C2    C10   1.456425 S    
C19   C20   1.413518 A    
N4    O11   1.301712 A    
N7    O18   1.301670 A    
N3    O9    1.301476 A    
C7    N5    1.474080 S    
H7    C12   1.113479 S    
C5    H1    1.115040 S    
O5    C3    1.281074 A    
C4    C11   1.458130 S    
C15   C17   1.415666 A    
N6    O15   1.298202 A    
O1    Zn1   1.995044 S    
C8    N6    1.475516 S    
Zn2   O6    1.994990 S    
O2    Zn2   2.001523 S    
H5    C9    1.110034 S    
C6    N4    1.471680 S    
C1    C18   1.421546 S    
N4    O12   1.300992 A    
C20   H12   1.081565 S    
O1    C1    1.278343 A    
O6    C3    1.288573 A    
C14   H10   1.084277 S    
