data_mof_unit_28402.cif
_audit_creation_date              2012-12-11T17:07:25-0500
_audit_creation_method            fapswitch 2.2
_symmetry_space_group_name_H-M    P1
_symmetry_Int_Tables_number       1
_space_group_crystal_system       triclinic
_cell_length_a                    6.985904
_cell_length_b                    14.817654
_cell_length_c                    15.83232
_cell_angle_alpha                 90.091378
_cell_angle_beta                  90.356804
_cell_angle_gamma                 89.730244
_cell_volume                      1638.82603698

loop_
_atom_site_label
_atom_site_type_symbol
_atom_type_description
_atom_site_fract_x
_atom_site_fract_y
_atom_site_fract_z
_atom_type_partial_charge
O1    O     O_R   0.505720 0.583900 0.413310 -0.515238
O2    O     O_R   0.175940 0.594920 0.586080 -0.551871
O3    O     O_R   0.005640 0.416100 0.586690 -0.539102
C1    C     C_R   0.345691 0.620925 0.610997 0.645455
O4    O     O_R   0.176000 0.594930 0.413930 -0.504842
O5    O     O_R   0.005700 0.416110 0.413310 -0.536853
C2    C     C_R   0.344318 0.617134 0.385397 0.759609
O6    O     O_R   0.505660 0.583890 0.586690 -0.543675
O7    O     O_3   0.339200 0.441330 0.500000 -0.377719
V1    V     V_3+5 0.064350 0.510880 0.500000 1.516882
O8    O     O_R   0.675980 0.405080 0.413920 -0.539845
C3    C     C_R   0.844977 0.382556 0.385838 0.737169
O9    O     O_R   0.675920 0.405070 0.586070 -0.543464
C4    C     C_R   0.844782 0.387262 0.618215 0.764019
V2    V     V_3+5 0.564340 0.489120 0.500000 1.497375
O10   O     O_3   0.839360 0.558670 0.500000 -0.359523
H1    H     H_    0.950440 0.097129 0.488116 0.112301
C5    C     C_R   0.801164 0.430116 0.803651 0.272598
C6    C     C_R   0.761594 0.447595 0.888953 -0.167374
C7    C     C_R   0.783515 0.380677 0.948656 -0.172230
C8    C     C_R   0.833839 0.294442 0.923466 -0.150419
C9    C     C_R   0.847960 0.271269 0.836999 0.033993
C10   C     C_R   0.834121 0.340392 0.774586 0.030369
C11   C     C_R   0.880459 0.180642 0.813556 -0.141913
C12   C     C_R   0.902177 0.157978 0.726998 0.029837
C13   C     C_R   0.890326 0.226400 0.664072 0.058696
C14   C     C_R   0.857260 0.317811 0.686982 -0.169083
C15   C     C_R   0.934345 0.067673 0.701468 -0.225586
C16   C     C_R   0.954959 0.044410 0.615842 0.354431
C17   C     C_R   0.940152 0.112282 0.554735 -0.145199
C18   C     C_R   0.909466 0.201446 0.578296 -0.187348
H2    H     H_    0.734270 0.516007 0.910123 0.126284
H3    H     H_    0.768704 0.396435 0.015114 0.166638
H4    H     H_    0.862165 0.246113 0.972922 0.105095
H5    H     H_    0.943036 0.014332 0.747970 0.079118
H6    H     H_    0.899260 0.250356 0.527835 0.105533
C19   C     C_R   0.714890 0.194533 0.232698 0.050282
C20   C     C_R   0.873062 0.190251 0.179029 -0.074963
C21   C     C_R   0.021339 0.251192 0.195064 -0.198641
H7    H     H_    0.138387 0.254293 0.152679 0.144572
C22   C     C_R   0.012970 0.312952 0.262419 -0.153837
H8    H     H_    0.125844 0.362274 0.268998 0.140902
C23   C     C_R   0.857726 0.313148 0.318673 -0.137792
C24   C     C_R   0.714606 0.248356 0.305613 0.050034
C25   C     C_3   0.503788 0.263284 0.300280 0.083006
C26   C     C_3   0.509514 0.218493 0.213046 0.068785
H9    H     H_    0.463093 0.335879 0.300416 0.112528
H10   H     H_    0.412109 0.160000 0.204443 0.123261
C27   C     C_R   0.524978 0.705218 0.722762 0.053558
C28   C     C_R   0.357461 0.692579 0.676563 -0.085209
C29   C     C_R   0.203619 0.750470 0.694990 -0.223252
H11   H     H_    0.080525 0.750415 0.654091 0.152591
C30   C     C_R   0.212791 0.811637 0.763261 -0.179635
H12   H     H_    0.094227 0.856788 0.774624 0.122473
C31   C     C_R   0.378823 0.818853 0.813439 -0.086927
C32   C     C_R   0.535208 0.764741 0.791428 0.046338
C33   C     C_3   0.730128 0.795979 0.768177 -0.416286
C34   C     C_3   0.714944 0.735388 0.691066 0.130283
H13   H     H_    0.836403 0.771229 0.815294 0.147510
H14   H     H_    0.737814 0.869475 0.755033 0.171909
H15   H     H_    0.818941 0.679575 0.690963 0.097309
C35   C     C_R   0.481798 0.758517 0.321300 -0.113242
C36   C     C_R   0.350764 0.687071 0.318364 -0.180499
C37   C     C_R   0.218411 0.686855 0.250402 0.670786
C38   C     C_R   0.229783 0.751742 0.185216 -0.268729
H16   H     H_    0.129151 0.748122 0.133006 0.152669
C39   C     C_R   0.377326 0.816566 0.184407 -0.138746
C40   C     C_R   0.495677 0.820753 0.256008 -0.018939
C41   C     C_3   0.707379 0.828848 0.265938 -0.409030
C42   C     C_3   0.692059 0.761305 0.338176 0.566271
H17   H     H_    0.750340 0.897311 0.287454 0.101920
H18   H     H_    0.786577 0.802520 0.210313 0.208861
H19   H     H_    0.729181 0.789453 0.401251 0.010085
O11   O     O_R   0.229140 0.916090 0.913340 -0.541976
O12   O     O_R   0.558860 0.905090 0.086080 -0.535663
O13   O     O_R   0.729100 0.083920 0.086690 -0.540524
C43   C     C_R   0.390296 0.883323 0.114946 0.732680
O14   O     O_R   0.558860 0.905090 0.913930 -0.539031
O15   O     O_R   0.729100 0.083920 0.913310 -0.539665
C44   C     C_R   0.390069 0.885004 0.883683 0.698387
O16   O     O_R   0.229140 0.916080 0.086720 -0.539428
O17   O     O_3   0.395570 0.058660 0.000020 -0.380946
V3    V     V_3+5 0.670450 0.989140 0.000000 1.399450
O18   O     O_R   0.058810 0.094980 0.913910 -0.539122
C45   C     C_R   0.890557 0.110571 0.880777 0.693152
O19   O     O_R   0.058810 0.094980 0.086060 -0.549406
C46   C     C_R   0.888491 0.119582 0.112499 0.670394
V4    V     V_3+5 0.170450 0.010950 0.999970 1.384317
O20   O     O_3   0.895460 0.941370 0.999990 -0.368665
N1    N     N_2   0.397887 0.212634 0.363861 -0.506504
H20   H     H_    0.251751 0.220001 0.359065 0.263670
C47   C     C_3   0.456195 0.121461 0.386092 -0.548641
H21   H     H_    0.363891 0.096349 0.437733 0.194364
H22   H     H_    0.606243 0.120274 0.409535 0.203042
H23   H     H_    0.440628 0.075451 0.331113 0.174752
N2    N     N_2   0.495679 0.286935 0.146645 -0.531234
H24   H     H_    0.412709 0.342485 0.161348 0.253806
C48   C     C_3   0.461511 0.256289 0.061158 -0.485340
H25   H     H_    0.435392 0.315193 0.019327 0.182298
H26   H     H_    0.335357 0.211949 0.057171 0.203265
H27   H     H_    0.586481 0.219636 0.037300 0.222711
N3    N     N_2   0.844205 0.505170 0.752951 -0.543628
H28   H     H_    0.746063 0.556365 0.761002 0.235004
C49   C     C_3   0.038626 0.534792 0.767507 -0.535384
H29   H     H_    0.063587 0.596254 0.731714 0.200521
H30   H     H_    0.142244 0.482200 0.746816 0.203046
H31   H     H_    0.063643 0.551287 0.835228 0.188304
N4    N     N_2   0.712850 0.783163 0.610195 -0.499555
H32   H     H_    0.746272 0.742591 0.559366 0.259680
C50   C     C_3   0.569244 0.851188 0.590453 -0.471151
H33   H     H_    0.626133 0.897504 0.541787 0.200116
H34   H     H_    0.529832 0.891888 0.646526 0.211150
H35   H     H_    0.440094 0.818894 0.563246 0.165443
F1    F     F_    0.088404 0.619542 0.243051 -0.640601
F2    F     F_    0.779937 0.679853 0.320126 -0.611519
N5    N     N_2   0.980238 0.951952 0.592686 -0.510795
H36   H     H_    0.002772 0.908439 0.642209 0.271832
C51   C     C_3   0.089791 0.930298 0.517924 -0.575878
H37   H     H_    0.108983 0.855996 0.513327 0.193711
H38   H     H_    0.232932 0.962436 0.521284 0.191275
H39   H     H_    0.012014 0.952088 0.460111 0.193962

loop_
_geom_bond_atom_site_label_1
_geom_bond_atom_site_label_2
_ccdc_geom_bond_type
C31   C32   A    
C22   H8    S    
C6    C7    A    
C39   C43   S    
C1    O6    A    
C49   H30   S    
N1    H20   S    
C21   C22   A    
C30   H12   S    
C32   C33   S    
C12   C15   A    
C13   C14   A    
C35   C36   A    
C15   C16   A    
C19   C20   A    
C3    C23   S    
O5    C3    A    
C17   C18   A    
O14   C44   A    
C33   H13   S    
V2    O10   S    
C48   H25   S    
N5    H36   S    
C35   C42   S    
C5    C6    A    
C5    N3    S    
C41   H17   S    
C51   H37   S    
C50   H33   S    
O8    V2    S    
O14   V3    S    
C15   H5    S    
N5    C51   S    
C40   C41   S    
C38   C39   A    
N2    C48   S    
O1    V2    S    
C10   C14   A    
C4    C14   S    
C11   C45   S    
C34   N4    S    
V4    O20   S    
C34   H15   S    
C25   H9    S    
C13   C18   A    
O11   C44   A    
O9    C4    A    
H1    C17   S    
C22   C23   A    
C41   C42   S    
C6    H2    S    
O13   V3    S    
C49   H29   S    
C51   H38   S    
C30   C31   A    
V3    O20   S    
C26   H10   S    
C37   F1    S    
C5    C10   A    
C11   C12   A    
C21   H7    S    
O4    C2    A    
O19   C46   A    
C33   H14   S    
C8    H4    S    
C12   C13   A    
C25   C26   S    
C47   H23   S    
C27   C34   S    
C39   C40   A    
C1    C28   S    
C29   C30   A    
C51   H39   S    
C41   H18   S    
O2    C1    A    
C23   C24   A    
N4    H32   S    
C16   C17   A    
N1    C47   S    
C50   H35   S    
C43   O16   A    
N2    H24   S    
C42   H19   S    
C47   H22   S    
C28   C29   A    
O18   C45   A    
N3    C49   S    
C25   N1    S    
O12   C43   A    
O13   C46   A    
C2    C36   S    
O3    C4    A    
C7    H3    S    
C16   N5    S    
C27   C28   A    
O6    V2    S    
C48   H26   S    
O9    V2    S    
C9    C11   A    
C27   C32   A    
O15   C45   A    
C24   C25   S    
O7    V1    S    
O1    C2    A    
C9    C10   A    
O18   V4    S    
O5    V1    S    
O8    C3    A    
C42   F2    S    
C48   H27   S    
C35   C40   A    
C20   C46   S    
C37   C38   A    
C19   C24   A    
O7    V2    S    
C29   H11   S    
O3    V1    S    
V1    O10   S    
O15   V3    S    
C31   C44   S    
O12   V3    S    
C33   C34   S    
C20   C21   A    
O17   V4    S    
C47   H21   S    
N4    C50   S    
O19   V4    S    
C38   H16   S    
N3    H28   S    
C50   H34   S    
O16   V4    S    
C36   C37   A    
O4    V1    S    
C26   N2    S    
C7    C8    A    
O17   V3    S    
C18   H6    S    
O11   V4    S    
C19   C26   S    
C8    C9    A    
C49   H31   S    
O2    V1    S    
