data_mof_unit_33379.cif
_audit_creation_date              2013-03-05T16:10:15-0500
_audit_creation_method            fapswitch 2.2
_symmetry_space_group_name_H-M    P1
_symmetry_Int_Tables_number       1
_space_group_crystal_system       triclinic
_cell_length_a                    10.050859
_cell_length_b                    10.698482
_cell_length_c                    13.04799
_cell_angle_alpha                 89.245599
_cell_angle_beta                  73.743501
_cell_angle_gamma                 89.484779
_cell_volume                      1346.80307219

loop_
_atom_site_label
_atom_site_type_symbol
_atom_site_description
_atom_site_fract_x
_atom_site_fract_y
_atom_site_fract_z
_atom_type_partial_charge
O1    O     O_R   0.385370 0.683250 0.500010 -0.586943
O2    O     O_R   0.614700 0.683220 0.500010 -0.579782
C1    C     C_R   0.500398 0.739205 0.498778 0.908418
O3    O     O_R   0.328400 0.499990 0.653620 -0.538881
O4    O     O_R   0.557730 0.499960 0.653620 -0.605181
C2    C     C_R   0.428160 0.477145 0.700165 0.933565
Zn1   Zn    Zn3+2 0.346870 0.500020 0.500000 1.078352
Zn2   Zn    Zn3+2 0.653130 0.499980 0.500000 1.010458
O5    O     O_R   0.385300 0.316780 0.499990 -0.586051
O6    O     O_R   0.614630 0.316750 0.499990 -0.641877
O7    O     O_R   0.442270 0.500040 0.346380 -0.622000
O8    O     O_R   0.671600 0.500010 0.346380 -0.625481
C3    C     C_R   0.499612 0.260514 0.501617 0.885970
C4    C     C_R   0.574866 0.501690 0.297210 0.885699
C5    C     C_R   0.804217 0.464351 0.021499 0.398602
C6    C     C_R   0.618088 0.491598 0.181993 -0.130915
C7    C     C_R   0.271383 0.368198 0.859759 -0.026565
C8    C     C_R   0.250593 0.308614 0.959562 -0.060741
C9    C     C_R   0.345767 0.322613 0.018145 0.261966
C10   C     C_R   0.472687 0.381901 0.967924 -0.011174
C11   C     C_R   0.508840 0.397866 0.856864 -0.010234
C12   C     C_R   0.567361 0.422647 0.021398 0.043201
C13   C     C_R   0.708907 0.436400 0.964218 -0.080994
C14   C     C_R   0.750561 0.415349 0.852791 0.342035
C15   C     C_R   0.650311 0.391536 0.801440 -0.163227
C16   C     C_R   0.522615 0.457190 0.128463 -0.125604
C17   C     C_R   0.758245 0.497363 0.127884 -0.242493
C18   C     C_R   0.401266 0.416447 0.807145 -0.162112
H1    H     H_    0.189901 0.370868 0.820735 0.274437
H2    H     H_    0.160391 0.252694 0.993973 0.241714
C19   C     C_R   0.619599 0.936276 0.444150 -0.085956
H3    H     H_    0.711699 0.887618 0.398400 0.186010
C20   C     C_R   0.619194 0.064710 0.447821 -0.157792
H4    H     H_    0.711329 0.115078 0.404511 0.181098
C21   C     C_R   0.498757 0.127409 0.504246 -0.147497
C22   C     C_R   0.378154 0.061546 0.558532 0.294754
C23   C     C_R   0.382375 0.933328 0.557442 -0.150878
H5    H     H_    0.295071 0.882076 0.605875 0.243323
C24   C     C_R   0.500693 0.871617 0.499113 -0.099095
C25   C     C_R   0.945356 0.403560 0.457219 -0.096403
C26   C     C_R   0.087443 0.403146 0.457971 -0.023475
N1    N     N_R   0.142790 0.500030 0.500030 -0.156134
C27   C     C_R   0.055176 0.598237 0.540507 0.331065
C28   C     C_R   0.911619 0.596822 0.542847 0.283186
N2    N     N_R   0.857180 0.499940 0.500010 -0.172250
H6    H     H_    0.834055 0.515795 0.170656 0.207902
N3    N     N_R   0.253120 0.122146 0.617953 0.229270
O9    O     O_R   0.133317 0.080984 0.613789 -0.270000
O10   O     O_R   0.257512 0.202776 0.690215 -0.403375
H7    H     H_    0.906317 0.325524 0.422604 0.181298
H8    H     H_    0.152942 0.324724 0.424042 0.198499
N4    N     N_R   0.107388 0.704958 0.580343 0.228622
O11   O     O_R   0.140663 0.697821 0.669591 -0.301206
O12   O     O_R   0.108200 0.812746 0.532920 -0.340804
N5    N     N_R   0.822292 0.695005 0.595892 0.250696
O13   O     O_R   0.739817 0.675823 0.690991 -0.327680
O14   O     O_R   0.833791 0.807172 0.554877 -0.328558
N6    N     N_R   0.889769 0.434343 0.787794 0.216574
O15   O     O_R   0.946912 0.355222 0.713242 -0.350546
O16   O     O_R   0.950884 0.539946 0.791842 -0.318142
N7    N     N_R   0.944659 0.428794 0.981668 0.208681
O17   O     O_R   0.970185 0.315880 0.945409 -0.407536
O18   O     O_R   0.040556 0.494194 0.005007 -0.395997
H9    H     H_    0.413389 0.456926 0.170716 0.188171
N8    N     N_R   0.320270 0.260983 0.120455 0.192976
O19   O     O_R   0.419704 0.200719 0.145968 -0.364341
O20   O     O_R   0.194387 0.251403 0.182549 -0.391180
H10   H     H_    0.685874 0.368038 0.717952 0.202556

loop_
_geom_bond_atom_site_label_1
_geom_bond_atom_site_label_2
_geom_bond_distance
_ccdc_geom_bond_type
O4    Zn2   1.964963 S    
N5    O13   1.299788 A    
C19   C20   1.375437 A    
C14   C15   1.384262 A    
C9    N8    1.439039 S    
C23   H5    1.076594 S    
C8    H2    1.075279 S    
C16   H9    1.081810 S    
N3    O10   1.296333 A    
C7    H1    1.078635 S    
C26   N1    1.371587 A    
O5    C3    1.297592 A    
C5    C17   1.384186 A    
C21   C22   1.410347 A    
Zn2   O8    1.960578 S    
N4    O12   1.300490 A    
C6    C17   1.389347 A    
C5    C13   1.406262 A    
C7    C8    1.404993 A    
C5    N7    1.411424 S    
C1    C24   1.416712 S    
C23   C24   1.386245 A    
O1    Zn1   2.001529 S    
C10   C11   1.400327 A    
Zn1   O7    1.964964 S    
C28   N5    1.429246 S    
O4    C2    1.297445 A    
C15   H10   1.079455 S    
O3    Zn1   1.960576 S    
C25   H7    1.081663 S    
C17   H6    1.083798 S    
Zn2   O6    2.001531 S    
C22   C23   1.372156 A    
C20   C21   1.398831 A    
C11   C18   1.419449 A    
O8    C4    1.306070 A    
C3    C21   1.424036 S    
O2    C1    1.294808 A    
N5    O14   1.300283 A    
C27   C28   1.434832 A    
C6    C16   1.390154 A    
C25   N2    1.371879 A    
O7    C4    1.307459 A    
C4    C6    1.448529 S    
C27   N4    1.424179 S    
O3    C2    1.329115 A    
N7    O17   1.300177 A    
C10   C12   1.403377 A    
C13   C14   1.416324 A    
N6    O16   1.299519 A    
C19   H3    1.083681 S    
N3    O9    1.301380 A    
C2    C18   1.487040 S    
C20   H4    1.084076 S    
N4    O11   1.299621 A    
C22   N3    1.433109 S    
C14   N6    1.433317 S    
N8    O19   1.301665 A    
N1    C27   1.376904 A    
Zn1   N1    2.051069 S    
Zn1   O5    1.994663 S    
C25   C26   1.430847 A    
C11   C15   1.404718 A    
Zn2   N2    2.050910 S    
C8    C9    1.391663 A    
C12   C16   1.396158 A    
O1    C1    1.302707 A    
N6    O15   1.301069 A    
C12   C13   1.417344 A    
C7    C18   1.393888 A    
C26   H8    1.081643 S    
N7    O18   1.301289 A    
O2    Zn2   1.994663 S    
C28   N2    1.372149 A    
C9    C10   1.412305 A    
C19   C24   1.393941 A    
N8    O20   1.301520 A    
O6    C3    1.302783 A    
