data_mof_unit_56031.cif
_audit_creation_date              2012-12-10T16:50:06-0500
_audit_creation_method            fapswitch 2.2
_symmetry_space_group_name_H-M    P1
_symmetry_Int_Tables_number       1
_space_group_crystal_system       triclinic
_cell_length_a                    23.451508
_cell_length_b                    8.666625
_cell_length_c                    7.419699
_cell_angle_alpha                 103.571818
_cell_angle_beta                  93.868624
_cell_angle_gamma                 92.343772
_cell_volume                      1460.06652109

loop_
_atom_site_label
_atom_site_type_symbol
_atom_type_description
_atom_site_fract_x
_atom_site_fract_y
_atom_site_fract_z
_atom_type_partial_charge
C1    C     C_R   0.498111 0.199306 0.452672 0.878926
C2    C     C_R   0.501773 0.800685 0.547340 0.885431
C3    C     C_R   0.234982 0.553231 0.631389 0.135731
C4    C     C_R   0.769624 0.454772 0.587060 0.135920
C5    C     C_R   0.295665 0.553937 0.658032 0.062321
C6    C     C_R   0.709990 0.439728 0.605734 0.059619
C7    C     C_R   0.327051 0.490930 0.501822 -0.118831
C8    C     C_R   0.671883 0.503272 0.487684 -0.105528
C9    C     C_R   0.297272 0.420071 0.330018 -0.273352
C10   C     C_R   0.693507 0.575049 0.353681 -0.282294
C11   C     C_R   0.237993 0.415940 0.303218 0.157485
C12   C     C_R   0.751921 0.586582 0.331981 0.156676
C13   C     C_R   0.206419 0.487065 0.453322 0.257428
C14   C     C_R   0.790077 0.524397 0.447851 0.260352
C15   C     C_2   0.497228 0.031033 0.426244 -0.375762
C16   C     C_2   0.502675 0.968958 0.573776 -0.379577
C17   C     C_R   0.390576 0.498860 0.502918 0.817517
C18   C     C_R   0.609132 0.498031 0.496798 0.821252
C19   C     C_R   0.883649 0.663012 0.490467 0.583274
C20   C     C_R   0.110957 0.356871 0.385259 0.572210
C21   C     C_R   0.872642 0.387980 0.332862 0.609622
C22   C     C_R   0.122046 0.639274 0.444013 0.618890
C23   C     C_R   0.931846 0.380026 0.325759 -0.026625
C24   C     C_R   0.062755 0.650265 0.448860 -0.034121
C25   C     C_R   0.967297 0.519114 0.396318 -0.042986
C26   C     C_R   0.027177 0.510329 0.395851 -0.041776
C27   C     C_R   0.943204 0.665583 0.471669 -0.068406
C28   C     C_R   0.051550 0.361273 0.346150 -0.066777
C29   C     C_R   0.956231 0.235639 0.252783 -0.125423
C30   C     C_R   0.038786 0.796711 0.511192 -0.130352
C31   C     C_R   0.015489 0.224185 0.264715 0.198922
C32   C     C_R   0.980011 0.805737 0.528810 0.206395
Cu1   Cu    Cu3+1 0.506340 0.517380 0.684380 0.937326
Cu2   Cu    Cu3+1 0.493660 0.482620 0.315620 0.939061
H1    H     H_    0.929250 0.129411 0.190892 0.213154
H2    H     H_    0.066132 0.904815 0.554402 0.220558
H3    H     H_    0.320653 0.368821 0.211307 0.172258
H4    H     H_    0.664364 0.622700 0.263517 0.162327
H5    H     H_    0.492109 0.958052 0.284643 0.178577
H6    H     H_    0.507821 0.041948 0.715364 0.180199
H7    H     H_    0.454688 0.379411 0.948422 0.219326
H8    H     H_    0.545332 0.620538 0.051564 0.220905
N1    N     N_R   0.850144 0.526049 0.420769 -0.466486
N2    N     N_R   0.145230 0.494406 0.425252 -0.464940
N3    N     N_2   0.484110 0.456420 0.038520 -0.218491
N4    N     N_2   0.515890 0.543580 0.961480 -0.216343
O1    O     O_R   0.504120 0.286130 0.619770 -0.579878
O2    O     O_R   0.495880 0.713870 0.380230 -0.580056
O3    O     O_R   0.493410 0.256770 0.308360 -0.584728
O4    O     O_R   0.506590 0.743230 0.691640 -0.585886
O5    O     O_R   0.423230 0.514630 0.655730 -0.588886
O6    O     O_R   0.576770 0.485370 0.344270 -0.589883
O7    O     O_R   0.412530 0.485280 0.344320 -0.586396
O8    O     O_R   0.587470 0.514720 0.655680 -0.583291
O9    O     O_2   0.859071 0.793540 0.580664 -0.494491
O10   O     O_2   0.134246 0.218459 0.390340 -0.496638
O11   O     O_2   0.837737 0.257550 0.258490 -0.519404
O12   O     O_2   0.156422 0.772222 0.465951 -0.490521
I1    I     I_    0.044953 0.999248 0.132394 -0.251779
I2    I     I_    0.954363 0.039727 0.641702 -0.225505
I3    I     I_    0.184513 0.657362 0.856743 -0.362444
I4    I     I_    0.831823 0.373755 0.764877 -0.313811
C33   C     C_3   0.325854 0.625606 0.849438 -0.357593
C34   C     C_3   0.350332 0.794624 0.864357 -0.744167
H9    H     H_    0.381043 0.797336 0.757631 0.244838
H10   H     H_    0.315157 0.872876 0.845671 0.255943
H11   H     H_    0.373017 0.841934 0.004022 0.232476
H12   H     H_    0.297078 0.629391 0.962082 0.214965
H13   H     H_    0.359378 0.549005 0.884737 0.212093
C35   C     C_3   0.687493 0.347984 0.740876 -0.375721
C36   C     C_3   0.660141 0.185302 0.638198 -0.754038
H14   H     H_    0.623677 0.197070 0.540212 0.234680
H15   H     H_    0.692374 0.112898 0.559209 0.259761
H16   H     H_    0.644036 0.121895 0.740130 0.237002
H17   H     H_    0.721368 0.327105 0.841564 0.229459
H18   H     H_    0.657139 0.417070 0.831003 0.218017
C37   C     C_3   0.210924 0.343789 0.108196 -0.376542
C38   C     C_3   0.217358 0.164315 0.049140 -0.686100
H19   H     H_    0.263072 0.138245 0.036478 0.217653
H20   H     H_    0.200093 0.102822 0.150655 0.311638
H21   H     H_    0.193641 0.115496 0.911433 0.269912
H22   H     H_    0.165061 0.367829 0.092222 0.230793
H23   H     H_    0.232743 0.399252 0.009155 0.206534
C39   C     C_3   0.771898 0.661808 0.180425 -0.389727
C40   C     C_3   0.763538 0.840363 0.224757 -0.708028
H24   H     H_    0.717440 0.863622 0.232071 0.221134
H25   H     H_    0.787104 0.900824 0.359156 0.301513
H26   H     H_    0.780149 0.891733 0.113484 0.270725
H27   H     H_    0.817643 0.643397 0.158005 0.231094
H28   H     H_    0.747184 0.604575 0.046815 0.201690

loop_
_geom_bond_atom_site_label_1
_geom_bond_atom_site_label_2
_ccdc_geom_bond_type
C20   O10   S    
C17   O5    A    
C2    O4    A    
C18   O6    A    
C37   C38   S    
C12   C39   S    
C23   C29   A    
C24   C26   A    
C38   H20   S    
C37   H23   S    
C15   C16   D    
C4    I4    S    
C5    C33   S    
C7    C9    A    
H8    N4    S    
C31   I1    S    
C11   C37   S    
C21   N1    A    
C22   N2    A    
C33   H13   S    
C7    C17   S    
C35   C36   S    
C1    C15   S    
C2    C16   S    
C3    C13   A    
C3    I3    S    
Cu1   N4    S    
C39   H28   S    
C20   N2    A    
C19   N1    A    
C40   H25   S    
C34   H11   S    
C39   C40   S    
C4    C6    A    
C5    C7    A    
C38   H19   S    
C1    O1    A    
C6    C8    A    
C20   C28   A    
C2    O2    A    
C25   C26   A    
C40   H24   S    
C8    C18   S    
C34   H10   S    
C21   O11   S    
C9    H3    S    
Cu1   Cu2   S    
Cu2   N3    S    
C9    C11   A    
C15   H5    S    
C10   C12   A    
C16   H6    S    
C12   C14   A    
C21   C23   A    
C35   H18   S    
Cu1   O1    S    
C22   C24   A    
Cu1   O5    S    
C39   H27   S    
C32   I2    S    
C17   O7    A    
C19   C27   A    
C36   H15   S    
C40   H26   S    
C19   O9    S    
Cu1   O8    S    
C6    C35   S    
C33   H12   S    
Cu2   O3    S    
C27   C32   A    
Cu2   O6    S    
C28   C31   A    
C3    C5    A    
C22   O12   S    
C36   H16   S    
C25   C27   A    
C29   H1    S    
C26   C28   A    
C30   H2    S    
C10   H4    S    
C34   H9    S    
Cu1   O4    S    
C36   H14   S    
C29   C31   A    
C30   C32   A    
C11   C13   A    
C38   H21   S    
C37   H22   S    
C23   C25   A    
C4    C14   A    
C24   C30   A    
C18   O8    A    
C33   C34   S    
N3    N4    D    
Cu2   O2    S    
Cu2   O7    S    
C8    C10   A    
C35   H17   S    
H7    N3    S    
C1    O3    A    
C13   N2    S    
C14   N1    S    
