data_mof_unit_14003.cif
_audit_creation_date              2013-03-05T15:51:59-0500
_audit_creation_method            fapswitch 2.2
_symmetry_space_group_name_H-M    P1
_symmetry_Int_Tables_number       1
_space_group_crystal_system       triclinic
_cell_length_a                    19.337863
_cell_length_b                    11.308166
_cell_length_c                    18.708933
_cell_angle_alpha                 90.306774
_cell_angle_beta                  90.957048
_cell_angle_gamma                 89.511741
_cell_volume                      4090.41539796

loop_
_atom_site_label
_atom_site_type_symbol
_atom_site_description
_atom_site_fract_x
_atom_site_fract_y
_atom_site_fract_z
_atom_type_partial_charge
O1    O     O_R   0.214300 0.709080 0.827500 -0.497464
O2    O     O_R   0.785700 0.709080 0.172500 -0.516721
O3    O     O_R   0.714300 0.209080 0.827500 -0.495161
O4    O     O_R   0.285700 0.209080 0.172500 -0.516613
O5    O     O_R   0.236190 0.958390 0.823150 -0.499504
O6    O     O_R   0.763810 0.958390 0.176850 -0.514194
O7    O     O_R   0.736190 0.458390 0.823150 -0.497250
O8    O     O_R   0.263810 0.458390 0.176850 -0.513951
C1    C     C_R   0.273847 0.037533 0.854642 0.614209
C2    C     C_R   0.725394 0.035927 0.144718 0.606655
C3    C     C_R   0.773923 0.537383 0.854707 0.620520
C4    C     C_R   0.225201 0.535401 0.144521 0.607378
O9    O     O_R   0.332090 0.075280 0.831290 -0.450153
O10   O     O_R   0.667910 0.075280 0.168710 -0.464526
O11   O     O_R   0.832090 0.575280 0.831290 -0.450028
O12   O     O_R   0.167910 0.575280 0.168710 -0.464146
O13   O     O_R   0.446280 0.918040 0.826620 -0.432806
O14   O     O_R   0.553720 0.918040 0.173380 -0.450267
O15   O     O_R   0.946280 0.418040 0.826620 -0.433990
O16   O     O_R   0.053720 0.418040 0.173380 -0.448821
C5    C     C_R   0.465028 0.820995 0.857145 0.634666
C6    C     C_R   0.530359 0.821012 0.145614 0.627414
C7    C     C_R   0.964244 0.320773 0.857529 0.631959
C8    C     C_R   0.029971 0.321078 0.145906 0.626201
O17   O     O_R   0.457080 0.716270 0.831760 -0.551505
O18   O     O_R   0.542920 0.716270 0.168240 -0.530212
O19   O     O_R   0.957080 0.216270 0.831760 -0.553483
O20   O     O_R   0.042920 0.216270 0.168240 -0.535123
O21   O     O_R   0.320980 0.624440 0.823040 -0.488679
O22   O     O_R   0.679020 0.624440 0.176960 -0.481326
O23   O     O_R   0.820980 0.124440 0.823040 -0.489933
O24   O     O_R   0.179020 0.124440 0.176960 -0.484997
C9    C     C_R   0.261703 0.638468 0.851309 0.648015
C10   C     C_R   0.739133 0.637829 0.149287 0.634808
C11   C     C_R   0.761651 0.138310 0.851281 0.647232
C12   C     C_R   0.239017 0.137708 0.149242 0.633606
O25   O     O_R   0.213880 0.710510 0.665560 -0.454255
O26   O     O_R   0.786120 0.710510 0.334440 -0.474591
O27   O     O_R   0.713880 0.210510 0.665560 -0.461178
O28   O     O_R   0.286120 0.210510 0.334440 -0.475701
O29   O     O_R   0.235800 0.959720 0.673040 -0.529663
O30   O     O_R   0.764200 0.959720 0.326960 -0.489910
O31   O     O_R   0.735800 0.459720 0.673040 -0.522329
O32   O     O_R   0.264200 0.459720 0.326960 -0.491329
C13   C     C_R   0.274275 0.038652 0.644687 0.504784
C14   C     C_R   0.729602 0.051296 0.350353 0.543828
C15   C     C_R   0.774051 0.539787 0.645194 0.519492
C16   C     C_R   0.229420 0.550823 0.350728 0.549160
O33   O     O_R   0.331670 0.076720 0.669350 -0.460868
O34   O     O_R   0.668330 0.076720 0.330650 -0.490146
O35   O     O_R   0.831670 0.576720 0.669350 -0.466144
O36   O     O_R   0.168330 0.576720 0.330650 -0.488683
O37   O     O_R   0.445900 0.919370 0.676500 -0.465137
O38   O     O_R   0.554100 0.919370 0.323500 -0.445088
O39   O     O_R   0.945900 0.419370 0.676500 -0.460182
O40   O     O_R   0.054100 0.419370 0.323500 -0.440105
C17   C     C_R   0.438669 0.819169 0.640221 0.507353
C18   C     C_R   0.526870 0.823117 0.350500 0.602305
C19   C     C_R   0.938386 0.319035 0.640234 0.506270
C20   C     C_R   0.027237 0.322709 0.350845 0.601395
O41   O     O_R   0.456660 0.717710 0.669820 -0.479476
O42   O     O_R   0.543340 0.717710 0.330180 -0.513574
O43   O     O_R   0.956660 0.217710 0.669820 -0.482860
O44   O     O_R   0.043340 0.217710 0.330180 -0.519912
O45   O     O_R   0.320590 0.625770 0.672930 -0.465127
O46   O     O_R   0.679410 0.625770 0.327070 -0.477461
O47   O     O_R   0.820590 0.125770 0.672930 -0.470603
O48   O     O_R   0.179410 0.125770 0.327070 -0.478497
C21   C     C_R   0.272911 0.686251 0.636772 0.514048
C22   C     C_R   0.742362 0.635042 0.353497 0.557976
C23   C     C_R   0.772446 0.184548 0.636662 0.520575
C24   C     C_R   0.242832 0.133416 0.352611 0.551886
Cr1   Cr    Cr6+3 0.229640 0.835880 0.747370 1.101493
Cr2   Cr    Cr6+3 0.770360 0.835880 0.252630 1.107859
Cr3   Cr    Cr6+3 0.729640 0.335880 0.747370 1.110625
Cr4   Cr    Cr6+3 0.270360 0.335880 0.252630 1.106700
Cr5   Cr    Cr6+3 0.387390 0.989720 0.750850 1.195299
Cr6   Cr    Cr6+3 0.612610 0.989720 0.249150 1.158900
Cr7   Cr    Cr6+3 0.887390 0.489720 0.750850 1.193633
Cr8   Cr    Cr6+3 0.112610 0.489720 0.249150 1.165388
Cr9   Cr    Cr6+3 0.385770 0.677220 0.749340 1.114189
Cr10  Cr    Cr6+3 0.614230 0.677220 0.250660 1.056548
Cr11  Cr    Cr6+3 0.885770 0.177220 0.749340 1.105805
Cr12  Cr    Cr6+3 0.114230 0.177220 0.250660 1.052726
O49   O     O_3   0.334270 0.834280 0.749190 -0.349941
O50   O     O_3   0.665730 0.834280 0.250810 -0.283287
O51   O     O_3   0.834270 0.334280 0.749190 -0.351948
O52   O     O_3   0.165730 0.334280 0.250810 -0.284413
C25   C     C_3   0.467884 0.924273 0.033457 0.174881
C26   C     C_3   0.521044 0.926165 0.973213 0.167011
C27   C     C_3   0.967527 0.424853 0.033650 0.174269
C28   C     C_3   0.020621 0.424760 0.973344 0.170233
C29   C     C_3   0.427620 0.827928 0.993460 0.162241
C30   C     C_3   0.562355 0.829728 0.011264 0.194679
C31   C     C_3   0.926520 0.328922 0.994021 0.159336
C32   C     C_3   0.061164 0.327934 0.011746 0.194602
C33   C     C_3   0.481345 0.829016 0.933215 -0.028922
C34   C     C_3   0.509073 0.826414 0.071148 0.003082
C35   C     C_3   0.980251 0.328161 0.933720 -0.031870
C36   C     C_3   0.008029 0.326523 0.071704 0.000097
C37   C     C_3   0.523632 0.731740 0.971181 -0.188086
C38   C     C_3   0.468622 0.728941 0.031267 -0.189491
C39   C     C_3   0.021776 0.230256 0.972168 -0.182110
C40   C     C_3   0.966846 0.229460 0.032277 -0.183877
H1    H     H_    0.550709 0.659042 0.942824 0.149761
H2    H     H_    0.443465 0.650625 0.054308 0.145466
H3    H     H_    0.048756 0.155817 0.945487 0.154024
H4    H     H_    0.941153 0.151882 0.055574 0.157507
C41   C     C_R   0.239017 0.561536 0.070099 0.089639
C42   C     C_R   0.759468 0.566042 0.928856 0.100936
C43   C     C_R   0.739277 0.062499 0.070383 0.085261
C44   C     C_R   0.259158 0.066419 0.928707 0.095849
C45   C     C_R   0.299011 0.522698 0.035937 -0.046159
C46   C     C_R   0.698237 0.536374 0.964179 -0.017121
C47   C     C_R   0.799577 0.024816 0.036364 -0.034236
C48   C     C_R   0.197978 0.036042 0.963903 -0.014159
C49   C     C_R   0.309889 0.545836 0.963275 0.046323
C50   C     C_R   0.691786 0.556542 0.036878 0.112599
C51   C     C_R   0.809941 0.046981 0.963572 0.067938
C52   C     C_R   0.190897 0.056429 0.036618 0.115837
C53   C     C_R   0.192107 0.622654 0.956731 -0.083461
C54   C     C_R   0.808332 0.627007 0.042266 -0.106468
C55   C     C_R   0.692107 0.122733 0.956828 -0.086632
C56   C     C_R   0.307898 0.126157 0.042278 -0.105827
C57   C     C_R   0.183628 0.600679 0.027618 -0.040211
C58   C     C_R   0.814174 0.612679 0.969857 -0.077447
C59   C     C_R   0.683801 0.101332 0.027828 -0.041981
C60   C     C_R   0.313714 0.113005 0.969816 -0.076241
C61   C     C_3   0.319550 0.396276 0.027518 -0.234043
C62   C     C_3   0.657379 0.424578 0.969676 -0.222207
C63   C     C_3   0.821965 0.899095 0.028847 -0.226557
C64   C     C_3   0.158086 0.923419 0.968685 -0.223593
C65   C     C_3   0.341118 0.423260 0.951761 0.288519
C66   C     C_3   0.644051 0.455667 0.048699 0.317613
C67   C     C_3   0.842362 0.925176 0.952969 0.276471
C68   C     C_3   0.143552 0.953996 0.047475 0.311748
C69   C     C_R   0.254236 0.596325 0.923442 0.098343
C70   C     C_R   0.748167 0.596185 0.077301 0.109785
C71   C     C_R   0.754114 0.096082 0.923450 0.095017
C72   C     C_R   0.247614 0.095606 0.077204 0.107127
H5    H     H_    0.149534 0.663998 0.928191 0.202690
H6    H     H_    0.850099 0.670554 0.070178 0.196531
H7    H     H_    0.649548 0.164095 0.928307 0.203616
H8    H     H_    0.349812 0.168880 0.070371 0.200604
H9    H     H_    0.131895 0.609489 0.047825 0.224019
H10   H     H_    0.863432 0.635145 0.947163 0.199241
H11   H     H_    0.632063 0.110126 0.048034 0.224103
H12   H     H_    0.362867 0.136296 0.947141 0.213332
H13   H     H_    0.777572 0.840416 0.032780 0.207793
H14   H     H_    0.193546 0.847509 0.962058 0.187859
H15   H     H_    0.274425 0.339301 0.030190 0.215831
H16   H     H_    0.692027 0.347710 0.962611 0.187130
H17   H     H_    0.361376 0.372584 0.066405 0.115302
H18   H     H_    0.611161 0.424557 0.933959 0.114701
H19   H     H_    0.865666 0.878273 0.066272 0.134022
H20   H     H_    0.112495 0.922340 0.932131 0.113464
C73   C     C_R   0.484798 0.825356 0.416407 0.036660
C74   C     C_R   0.448571 0.823646 0.562804 -0.028635
C75   C     C_R   0.984463 0.323530 0.416321 0.042291
C76   C     C_R   0.947796 0.322691 0.562606 -0.018853
C77   C     C_R   0.477263 0.720064 0.454947 -0.037750
C78   C     C_R   0.459140 0.718189 0.525910 -0.070342
C79   C     C_R   0.976561 0.218078 0.454843 -0.040296
C80   C     C_R   0.959250 0.217276 0.526220 -0.069234
C81   C     C_R   0.442615 0.928721 0.522383 -0.088409
C82   C     C_R   0.458979 0.928616 0.448781 -0.073203
C83   C     C_R   0.940520 0.426336 0.521428 -0.085681
C84   C     C_R   0.957455 0.425886 0.448052 -0.070776
C85   C     C_3   0.523257 0.614512 0.464628 0.131991
C86   C     C_3   0.506751 0.616186 0.543393 0.116148
C87   C     C_3   0.022998 0.113356 0.465427 0.131429
C88   C     C_3   0.008271 0.118221 0.544437 0.121469
H21   H     H_    0.428556 0.010976 0.548211 0.223567
H22   H     H_    0.456643 0.009742 0.419016 0.231294
H23   H     H_    0.924725 0.507442 0.546451 0.220426
H24   H     H_    0.953825 0.505430 0.417453 0.231542
H25   H     H_    0.504589 0.538841 0.431840 0.145602
H26   H     H_    0.550296 0.643849 0.579408 0.174370
H27   H     H_    0.004093 0.036296 0.434083 0.147944
H28   H     H_    0.052322 0.149496 0.578646 0.174668
C89   C     C_R   0.252028 0.617013 0.413351 -0.006970
C90   C     C_R   0.764047 0.561795 0.571914 0.058787
C91   C     C_R   0.751522 0.115930 0.413679 -0.016468
C92   C     C_R   0.263600 0.058805 0.571064 0.042996
C93   C     C_R   0.205302 0.690247 0.449432 0.020247
C94   C     C_R   0.757872 0.675964 0.547657 0.014560
C95   C     C_R   0.703550 0.185027 0.450716 0.017853
C96   C     C_R   0.252985 0.171270 0.546189 0.051454
C97   C     C_R   0.211677 0.709683 0.520653 -0.031144
C98   C     C_R   0.756642 0.695511 0.475846 0.066329
C99   C     C_R   0.708975 0.201714 0.522059 -0.048778
C100  C     C_R   0.253843 0.191250 0.474799 0.096509
C101  C     C_R   0.319494 0.607678 0.522962 -0.172906
C102  C     C_R   0.767747 0.487652 0.449163 -0.098022
C103  C     C_R   0.818442 0.103761 0.523674 -0.142885
C104  C     C_R   0.270012 0.985047 0.448087 -0.100888
C105  C     C_R   0.314464 0.591402 0.448756 -0.172035
C106  C     C_R   0.773623 0.468270 0.522787 -0.130184
C107  C     C_R   0.813886 0.090276 0.449246 -0.178381
C108  C     C_R   0.275717 0.966058 0.521990 -0.127749
C109  C     C_3   0.130934 0.732005 0.448166 0.310647
C110  C     C_3   0.794003 0.791019 0.564298 0.251777
C111  C     C_3   0.632548 0.241243 0.446204 0.314967
C112  C     C_3   0.280355 0.291510 0.564541 0.233133
C113  C     C_3   0.140250 0.758956 0.529026 0.132264
C114  C     C_3   0.797991 0.806256 0.481949 0.107390
C115  C     C_3   0.642424 0.269807 0.527062 0.125798
C116  C     C_3   0.290884 0.305604 0.482982 0.092568
C117  C     C_R   0.267248 0.665587 0.560561 -0.027115
C118  C     C_R   0.756544 0.603104 0.425850 0.134983
C119  C     C_R   0.765493 0.159701 0.561434 -0.000817
C120  C     C_R   0.257398 0.100206 0.424637 0.120206
H29   H     H_    0.361688 0.569616 0.551841 0.214843
H30   H     H_    0.772742 0.415074 0.411645 0.109734
H31   H     H_    0.861959 0.068261 0.552152 0.214716
H32   H     H_    0.277058 0.912965 0.410586 0.105112
H33   H     H_    0.356487 0.551205 0.420745 0.191606
H34   H     H_    0.788329 0.382212 0.541842 0.070991
H35   H     H_    0.856485 0.052811 0.420859 0.191234
H36   H     H_    0.293911 0.882226 0.541274 0.079755
H37   H     H_    0.140709 0.854227 0.543601 0.164763
H38   H     H_    0.768596 0.881404 0.459478 0.122103
H39   H     H_    0.652223 0.363759 0.539463 0.167253
H40   H     H_    0.261253 0.378997 0.458082 0.142399
N1    N     N_R   0.353400 0.826995 0.984106 0.045642
O53   O     O_R   0.326233 0.830160 0.920463 -0.411747
O54   O     O_R   0.314313 0.813714 0.039092 -0.308727
N2    N     N_R   0.636143 0.827229 0.020904 0.047157
O55   O     O_R   0.663046 0.829970 0.084746 -0.402845
O56   O     O_R   0.672918 0.791134 0.967941 -0.332699
N3    N     N_R   0.852316 0.328985 0.984650 0.044428
O57   O     O_R   0.825264 0.329971 0.920934 -0.414026
O58   O     O_R   0.813184 0.316543 0.039672 -0.310152
N4    N     N_R   0.134906 0.324673 0.020806 0.047679
O59   O     O_R   0.162412 0.328678 0.084366 -0.404084
O60   O     O_R   0.171080 0.288277 0.967466 -0.335695
N5    N     N_R   0.095452 0.134602 0.457247 0.065710
O61   O     O_R   0.134407 0.047617 0.478044 -0.412567
O62   O     O_R   0.118744 0.242053 0.462608 -0.341005
N6    N     N_R   0.978452 0.009941 0.572687 0.056149
O63   O     O_R   0.983158 0.991638 0.641145 -0.241790
O64   O     O_R   0.967325 0.919444 0.531084 -0.266375
N7    N     N_R   0.596226 0.634898 0.458421 0.061853
O65   O     O_R   0.635041 0.553759 0.486689 -0.421011
O66   O     O_R   0.619964 0.741698 0.453577 -0.384708
N8    N     N_R   0.475372 0.506537 0.568069 0.054689
O67   O     O_R   0.464531 0.493499 0.635926 -0.230040
O68   O     O_R   0.475001 0.412588 0.527689 -0.241409
N9    N     N_R   0.080608 0.639179 0.431912 0.133611
O69   O     O_R   0.028841 0.661059 0.388577 -0.312467
O70   O     O_R   0.092873 0.530808 0.451823 -0.282189
N10   N     N_R   0.861252 0.781936 0.602808 0.154196
O71   O     O_R   0.872925 0.846362 0.659522 -0.236103
O72   O     O_R   0.908031 0.704651 0.585468 -0.224523
N11   N     N_R   0.577182 0.157397 0.429908 0.141175
O73   O     O_R   0.521763 0.192026 0.395371 -0.293428
O74   O     O_R   0.586573 0.045410 0.442549 -0.324702
N12   N     N_R   0.343023 0.298218 0.610753 0.123811
O75   O     O_R   0.343592 0.367444 0.666536 -0.264256
O76   O     O_R   0.397798 0.234103 0.599072 -0.189152
N13   N     N_2   0.119024 0.838739 0.406387 -0.497972
H41   H     H_    0.070783 0.874837 0.414704 0.303159
C121  C     C_3   0.136702 0.836109 0.331406 -0.215695
H42   H     H_    0.125595 0.923755 0.307426 0.156126
H43   H     H_    0.105062 0.770332 0.301648 0.201536
H44   H     H_    0.192544 0.816388 0.324912 0.149324
N14   N     N_2   0.748131 0.875447 0.600522 -0.527898
H45   H     H_    0.750720 0.868198 0.655452 0.308586
C122  C     C_3   0.676676 0.888680 0.577654 -0.249097
H46   H     H_    0.651169 0.952445 0.613900 0.222722
H47   H     H_    0.648762 0.803865 0.582476 0.178081
H48   H     H_    0.673022 0.923311 0.522530 0.219931
N15   N     N_2   0.628836 0.346877 0.402052 -0.513413
H49   H     H_    0.583713 0.393676 0.409612 0.301979
C123  C     C_3   0.644251 0.333955 0.326869 -0.225160
H50   H     H_    0.637616 0.420272 0.299806 0.158754
H51   H     H_    0.608128 0.271154 0.300380 0.201455
H52   H     H_    0.698606 0.304625 0.319907 0.154706
N16   N     N_2   0.224361 0.366727 0.590578 -0.486269
H53   H     H_    0.237217 0.454125 0.594786 0.297637
C124  C     C_3   0.186379 0.324989 0.651697 -0.188323
H54   H     H_    0.148078 0.393075 0.668179 0.213439
H55   H     H_    0.221787 0.306848 0.697725 0.203213
H56   H     H_    0.157531 0.243474 0.637594 0.148980
N17   N     N_R   0.096451 0.689262 0.576012 0.132864
O77   O     O_R   0.110022 0.578468 0.589076 -0.283236
O78   O     O_R   0.051591 0.744160 0.615420 -0.198020
N18   N     N_R   0.866702 0.788828 0.450097 0.139990
O79   O     O_R   0.897077 0.686087 0.452807 -0.301272
O80   O     O_R   0.887545 0.861385 0.401644 -0.332592
N19   N     N_R   0.591802 0.220057 0.575965 0.141803
O81   O     O_R   0.575548 0.108925 0.574971 -0.292118
O82   O     O_R   0.567097 0.287055 0.626318 -0.219448
N20   N     N_R   0.362202 0.291356 0.457092 0.128115
O83   O     O_R   0.395779 0.192758 0.467782 -0.286887
O84   O     O_R   0.382854 0.356902 0.405029 -0.320010
N21   N     N_R   0.443317 0.020633 0.078075 0.062474
O85   O     O_R   0.476050 0.120627 0.078337 -0.327909
O86   O     O_R   0.404894 0.995285 0.132285 -0.324220
N22   N     N_R   0.546240 0.025662 0.932681 0.061438
O87   O     O_R   0.518699 0.129952 0.941294 -0.312426
O88   O     O_R   0.581884 0.004141 0.875590 -0.301305
N23   N     N_R   0.943849 0.522430 0.077835 0.061996
O89   O     O_R   0.976572 0.622373 0.076537 -0.333132
O90   O     O_R   0.906070 0.498750 0.132813 -0.323510
N24   N     N_R   0.046929 0.522960 0.932464 0.065130
O91   O     O_R   0.019375 0.627557 0.939458 -0.340916
O92   O     O_R   0.083527 0.499656 0.876276 -0.301863
N25   N     N_2   0.416261 0.416314 0.947432 -0.488198
H57   H     H_    0.444080 0.413627 0.994777 0.236179
C125  C     C_3   0.447280 0.489060 0.894922 -0.204938
H58   H     H_    0.502818 0.466612 0.890200 0.132758
H59   H     H_    0.440917 0.579476 0.914469 0.158961
H60   H     H_    0.422180 0.477958 0.841645 0.240336
N26   N     N_2   0.573654 0.498876 0.061869 -0.493803
H61   H     H_    0.542394 0.506153 0.017339 0.215020
C126  C     C_3   0.536269 0.462936 0.124716 -0.192309
H62   H     H_    0.490937 0.521514 0.132652 0.121620
H63   H     H_    0.569626 0.468416 0.173485 0.188940
H64   H     H_    0.515459 0.372481 0.117167 0.192590
N27   N     N_2   0.917363 0.920747 0.950203 -0.553940
H65   H     H_    0.938373 0.836791 0.954154 0.307590
C127  C     C_3   0.947729 0.991944 0.896603 -0.223871
H66   H     H_    0.004203 0.976553 0.894992 0.120215
H67   H     H_    0.936697 0.082496 0.913259 0.190338
H68   H     H_    0.925409 0.973729 0.842723 0.237079
N28   N     N_2   0.072107 0.993904 0.059354 -0.498013
H69   H     H_    0.039253 0.987775 0.015832 0.240973
C128  C     C_3   0.037362 0.965862 0.125308 -0.181293
H70   H     H_    0.991872 0.024400 0.132120 0.128150
H71   H     H_    0.072403 0.977272 0.172385 0.187811
H72   H     H_    0.016657 0.874674 0.122904 0.194731
N29   N     N_R   0.308271 0.354480 0.893136 0.090510
O93   O     O_R   0.347812 0.299725 0.847977 -0.278300
O94   O     O_R   0.244369 0.372548 0.873375 -0.294385
N30   N     N_R   0.668748 0.365852 0.100375 0.086627
O95   O     O_R   0.628027 0.280240 0.116971 -0.365652
O96   O     O_R   0.723726 0.381496 0.140159 -0.321575
N31   N     N_R   0.810539 0.854002 0.894692 0.078173
O97   O     O_R   0.850827 0.798442 0.850599 -0.307621
O98   O     O_R   0.747031 0.871771 0.873473 -0.280236
N32   N     N_R   0.168324 0.864237 0.099132 0.084512
O99   O     O_R   0.127243 0.779632 0.116622 -0.363775
O100  O     O_R   0.223703 0.879612 0.138345 -0.318575

loop_
_geom_bond_atom_site_label_1
_geom_bond_atom_site_label_2
_geom_bond_distance
_ccdc_geom_bond_type
C35   C39   1.536900 S    
N11   O74   1.300170 A    
O39   C19   1.326682 A    
C64   H14   1.101866 S    
N19   O81   1.297973 A    
C49   C65   1.522912 S    
Cr7   O51   2.043267 S    
C25   N21   1.450691 S    
N23   O90   1.301848 A    
N29   O93   1.299914 A    
C111  N15   1.456531 S    
C124  H56   1.109850 S    
C86   H26   1.115427 S    
O25   C21   1.296942 A    
C31   C35   1.546400 S    
O21   C9    1.278703 A    
C36   C40   1.539377 S    
C94   C110  1.510550 S    
C1    O9    1.291607 A    
O44   Cr12  2.086240 S    
C11   C71   1.444644 S    
C3    O11   1.291320 A    
C98   C114  1.494375 S    
C4    O12   1.281250 A    
C9    C69   1.443524 S    
C27   C36   1.526993 S    
O2    C10   1.282284 A    
O17   Cr9   2.099136 S    
C46   C62   1.501400 S    
C62   C66   1.543184 S    
N4    O60   1.291757 A    
C116  N20   1.476580 S    
N2    O55   1.295133 A    
C111  N11   1.463389 S    
O31   Cr3   1.984547 S    
C82   H22   1.075960 S    
N26   C126  1.452185 S    
O16   Cr8   1.978113 S    
C127  H66   1.105284 S    
N32   O99   1.295557 A    
C87   N5    1.434403 S    
C34   C38   1.539457 S    
O13   C5    1.286422 A    
O28   Cr4   2.108489 S    
O12   Cr8   2.105125 S    
O22   Cr10  1.965542 S    
C126  H64   1.109833 S    
O15   C7    1.287822 A    
O6    C2    1.289062 A    
O46   Cr10  1.976622 S    
C5    C33   1.455105 S    
C19   C76   1.467546 S    
N23   O89   1.300492 A    
O48   C24   1.312170 A    
N24   O91   1.299996 A    
C2    C43   1.454236 S    
C17   O41   1.318178 A    
C61   C65   1.517379 S    
C23   C119  1.438060 S    
C122  H47   1.109409 S    
C62   H16   1.101711 S    
C108  H36   1.070686 S    
C63   H13   1.093173 S    
N22   O87   1.300222 A    
C26   N22   1.452301 S    
C121  H43   1.108834 S    
C8    C36   1.446322 S    
C66   N30   1.476876 S    
Cr12  O52   2.043577 S    
N30   O95   1.295416 A    
C101  H29   1.060516 S    
C19   O43   1.318131 A    
C20   O44   1.284153 A    
C98   C118  1.398706 A    
O1    Cr1   2.106313 S    
Cr8   O52   2.028439 S    
N20   O83   1.300168 A    
O19   Cr11  2.099136 S    
C65   N29   1.479002 S    
C10   C70   1.437291 S    
N16   C124  1.452412 S    
C104  C120  1.394599 A    
N21   O85   1.300511 A    
C29   N1    1.443096 S    
C16   O36   1.266061 A    
N17   O78   1.299544 A    
N27   H65   1.032012 S    
O27   C23   1.293913 A    
C86   N8    1.465291 S    
C68   N28   1.469836 S    
C39   H3    1.107549 S    
C50   C70   1.392403 A    
O31   C15   1.291382 A    
O32   C16   1.305632 A    
C13   C92   1.408850 S    
C99   C119  1.389566 A    
N10   O71   1.301578 A    
O47   Cr11  1.978438 S    
C6    C34   1.447565 S    
C89   C105  1.396354 A    
O46   C22   1.311070 A    
C53   C57   1.363446 A    
N9    O69   1.300578 A    
O24   C12   1.288968 A    
N19   O82   1.300358 A    
C68   N32   1.476651 S    
O30   C14   1.305633 A    
N13   H41   1.028967 S    
C55   C71   1.391189 A    
O8    Cr4   1.989313 S    
C53   C69   1.391740 A    
O32   Cr4   1.972569 S    
C100  C120  1.391408 A    
O11   Cr7   2.089282 S    
C92   C108  1.410852 A    
C67   N31   1.480488 S    
C52   C72   1.397362 A    
O27   Cr3   2.100948 S    
O3    Cr3   2.106313 S    
C42   C46   1.409478 A    
C50   C66   1.493221 S    
O8    C4    1.288851 A    
C77   C85   1.492450 S    
C1    C44   1.454027 S    
C27   N23   1.450796 S    
N5    O61   1.291544 A    
C3    C42   1.454030 S    
N21   O86   1.301841 A    
C87   H27   1.108904 S    
C85   H25   1.109549 S    
N1    O53   1.293927 A    
C103  C107  1.401369 A    
N25   C125  1.427712 S    
O22   C10   1.290813 A    
C112  C116  1.551997 S    
C123  H52   1.109047 S    
C107  H35   1.070700 S    
C2    O10   1.281127 A    
C27   C28   1.538118 S    
N28   C128  1.452615 S    
C112  N16   1.459689 S    
C96   C112  1.499330 S    
C48   C52   1.387436 A    
C127  H67   1.089133 S    
N18   O80   1.297379 A    
O5    C1    1.292090 A    
C102  C118  1.392743 A    
C55   C59   1.363846 A    
C48   C64   1.498451 S    
O3    C11   1.286297 A    
C64   C68   1.542125 S    
C62   H18   1.106976 S    
C99   C115  1.498098 S    
Cr1   O49   2.022969 S    
C42   C58   1.401345 A    
C45   C49   1.405355 A    
C88   N6    1.462978 S    
Cr3   O51   2.022969 S    
C47   C51   1.404024 A    
C125  H59   1.090688 S    
C22   C118  1.424495 S    
C80   C88   1.498229 S    
C29   C33   1.545771 S    
C44   C48   1.409499 A    
C83   H23   1.071944 S    
O26   Cr2   2.108489 S    
C84   H24   1.069966 S    
C5    O17   1.283073 A    
N8    O67   1.299555 A    
O29   C13   1.288881 A    
O28   C24   1.265477 A    
O14   C6    1.293172 A    
C8    O20   1.280127 A    
C18   C73   1.488554 S    
N14   H45   1.031726 S    
C93   C97   1.353081 A    
C116  H40   1.105119 S    
C109  N9    1.464761 S    
O40   Cr8   1.981851 S    
C25   C34   1.526707 S    
C96   C100  1.356196 A    
N12   O75   1.301188 A    
O41   Cr9   2.094845 S    
C61   H17   1.110861 S    
C102  C106  1.398514 A    
C28   N24   1.452106 S    
C114  H38   1.099818 S    
C32   C36   1.534064 S    
N6    O63   1.300047 A    
N15   C123  1.449058 S    
O33   Cr5   2.096894 S    
O5    Cr1   1.980223 S    
C64   H20   1.106837 S    
O35   Cr7   2.096894 S    
O29   Cr1   1.984547 S    
C74   C81   1.414699 A    
C109  C113  1.549461 S    
C66   N26   1.466703 S    
Cr9   O49   2.028798 S    
C28   C35   1.529310 S    
C18   O42   1.288204 A    
Cr11  O51   2.028798 S    
C17   C74   1.465363 S    
O26   C22   1.263760 A    
C37   C38   1.561157 S    
O20   Cr12  2.097665 S    
C110  N10   1.479211 S    
C123  H50   1.107502 S    
C20   C75   1.489451 S    
C87   C88   1.510657 S    
N2    O56   1.291670 A    
C77   C78   1.379096 A    
C121  H42   1.107983 S    
C106  H34   1.072660 S    
C115  H39   1.103540 S    
C76   C80   1.387551 A    
C31   N3    1.442708 S    
C61   H15   1.091067 S    
C16   C89   1.450215 S    
C104  H32   1.081853 S    
N32   O100  1.300328 A    
C30   C34   1.535543 S    
N7    O65   1.290410 A    
C95   C111  1.509401 S    
C90   C94   1.374345 A    
C93   C109  1.509679 S    
C126  H63   1.110356 S    
C112  N12   1.479105 S    
C97   C113  1.495333 S    
N24   O92   1.301571 A    
N16   H53   1.023459 S    
O6    Cr2   1.989313 S    
C79   C87   1.492117 S    
C26   C33   1.530554 S    
C103  H31   1.065247 S    
C30   N2    1.435333 S    
C56   C60   1.369429 A    
C88   H28   1.115714 S    
O42   Cr10  2.086240 S    
N26   H61   1.024374 S    
O18   Cr10  2.097665 S    
C122  H46   1.105875 S    
C85   N7    1.438398 S    
C105  H33   1.070988 S    
O34   Cr6   2.097850 S    
C65   N25   1.458145 S    
N22   O88   1.301583 A    
C26   C30   1.519435 S    
N29   O94   1.298728 A    
O24   Cr12  1.965542 S    
O30   Cr2   1.972569 S    
O48   Cr12  1.976622 S    
C85   C86   1.512986 S    
C53   H5    1.078372 S    
C54   C70   1.392688 A    
N30   O96   1.300362 A    
C83   C84   1.416590 A    
O37   C17   1.324933 A    
C60   H12   1.082480 S    
C15   O35   1.268566 A    
Cr10  O50   2.043577 S    
C51   C67   1.521880 S    
O40   C20   1.323213 A    
C113  N17   1.467961 S    
C52   C68   1.499345 S    
O37   Cr5   1.968083 S    
O21   Cr9   1.976479 S    
N17   O77   1.301477 A    
C91   C95   1.398047 A    
O39   Cr7   1.968083 S    
O45   Cr9   1.978438 S    
N31   O97   1.299930 A    
C78   C86   1.503670 S    
C13   O33   1.272404 A    
O13   Cr5   1.976379 S    
N3    O58   1.296719 A    
O15   Cr7   1.976379 S    
O9    Cr5   2.089282 S    
O23   C11   1.279198 A    
C124  H55   1.110072 S    
N4    O59   1.295281 A    
C73   C77   1.405149 A    
C40   H4    1.106879 S    
N10   O72   1.296387 A    
C56   C72   1.392868 A    
C29   C38   1.535118 S    
C102  H30   1.081832 S    
C67   N27   1.452574 S    
C51   C71   1.415780 A    
C63   H19   1.112862 S    
N28   H69   1.026790 S    
C97   C117  1.388885 A    
N14   C122  1.446430 S    
O45   C21   1.322438 A    
O47   C23   1.319903 A    
C44   C60   1.400020 A    
C6    O18   1.279893 A    
C122  H48   1.106066 S    
O43   Cr11  2.094845 S    
C39   C40   1.559891 S    
C32   N4    1.433409 S    
C57   H9    1.078977 S    
C25   C26   1.538486 S    
O36   Cr8   2.097850 S    
O38   Cr6   1.981851 S    
C121  H44   1.109322 S    
C7    C35   1.455723 S    
C125  H58   1.106339 S    
C94   C98   1.362523 A    
C81   C82   1.418032 A    
C128  H70   1.105058 S    
C79   C80   1.382218 A    
C90   C106  1.410507 A    
C28   C32   1.518125 S    
C104  C108  1.402733 A    
C58   H10   1.082107 S    
O1    C9    1.286083 A    
C47   C63   1.489219 S    
N25   H57   1.029091 S    
O7    C3    1.292290 A    
C45   C61   1.488737 S    
C114  N18   1.476549 S    
C123  H51   1.109515 S    
C109  N13   1.456059 S    
C63   C67   1.510966 S    
C81   H21   1.080674 S    
O23   Cr11  1.976479 S    
C75   C84   1.399149 A    
C76   C83   1.410751 A    
N1    O54   1.296810 A    
O16   C8    1.293055 A    
C30   C37   1.528851 S    
N27   C127  1.426537 S    
C7    O19   1.281629 A    
C110  N14   1.468470 S    
Cr4   O52   2.023274 S    
C95   C99   1.349490 A    
O2    Cr2   2.091894 S    
C41   C45   1.400158 A    
Cr6   O50   2.028439 S    
C25   C29   1.529529 S    
C100  C116  1.489541 S    
C15   C90   1.404614 S    
C4    C41   1.454502 S    
C37   H1    1.108472 S    
N8    O68   1.300314 A    
N9    O70   1.301449 A    
O4    C12   1.284992 A    
N13   C121  1.449498 S    
C89   C93   1.399858 A    
O7    Cr3   1.980223 S    
N7    O66   1.299815 A    
C124  H54   1.109883 S    
C111  C115  1.554169 S    
C91   C107  1.396645 A    
C92   C96   1.369241 A    
C14   C91   1.448028 S    
C54   C58   1.369912 A    
N12   O76   1.299360 A    
C103  C119  1.398567 A    
C101  C117  1.397110 A    
N6    O64   1.299619 A    
N15   H49   1.028083 S    
C128  H71   1.109908 S    
Cr2   O50   2.023274 S    
C12   C72   1.438743 S    
C46   C50   1.385404 A    
C41   C57   1.393577 A    
O14   Cr6   1.978113 S    
N31   O98   1.298686 A    
N5    O62   1.302253 A    
C43   C59   1.394552 A    
C128  H72   1.109762 S    
C75   C79   1.407383 A    
C21   C117  1.446109 S    
C54   H6    1.075859 S    
N11   O73   1.300694 A    
C31   C40   1.536363 S    
O38   C18   1.319732 A    
O25   Cr1   2.100948 S    
C49   C69   1.416636 A    
C115  N19   1.468571 S    
C73   C82   1.404351 A    
C14   O34   1.266174 A    
C127  H68   1.108881 S    
N18   O79   1.298238 A    
N20   O84   1.297462 A    
C24   C120  1.423784 S    
C101  C105  1.401367 A    
C113  H37   1.109964 S    
C38   H2    1.106902 S    
O10   Cr6   2.105125 S    
C126  H62   1.105765 S    
O4    Cr4   2.091894 S    
C74   C78   1.389984 A    
Cr5   O49   2.043267 S    
C27   C31   1.530276 S    
C110  C114  1.554453 S    
C125  H60   1.108345 S    
C55   H7    1.078082 S    
N3    O57   1.293832 A    
C56   H8    1.075323 S    
C43   C47   1.399925 A    
C32   C39   1.528157 S    
C33   C37   1.535230 S    
C59   H11   1.079048 S    
