data_mof_unit_51159.cif
_audit_creation_date              2012-12-10T20:30:11-0500
_audit_creation_method            fapswitch 2.2
_symmetry_space_group_name_H-M    P1
_symmetry_Int_Tables_number       1
_space_group_crystal_system       triclinic
_cell_length_a                    9.92825
_cell_length_b                    10.707801
_cell_length_c                    12.997446
_cell_angle_alpha                 90.88678
_cell_angle_beta                  68.227373
_cell_angle_gamma                 88.959127
_cell_volume                      1282.6058752

loop_
_atom_site_label
_atom_site_type_symbol
_atom_type_description
_atom_site_fract_x
_atom_site_fract_y
_atom_site_fract_z
_atom_type_partial_charge
C1    C     C_R   0.500532 0.739717 0.497052 0.980862
C2    C     C_R   0.430563 0.464056 0.987834 -0.178392
C3    C     C_R   0.454020 0.428220 0.877951 -0.237948
C4    C     C_R   0.546617 0.452635 0.025263 -0.057051
C5    C     C_R   0.667898 0.374152 0.965878 -0.060436
C6    C     C_R   0.678240 0.316596 0.865055 0.469454
C7    C     C_R   0.568970 0.340711 0.822170 0.382544
C8    C     C_R   0.547267 0.519512 0.119484 0.432360
C9    C     C_R   0.756164 0.397419 0.117218 0.372658
C10   C     C_R   0.363416 0.483935 0.827644 -0.220721
C11   C     C_R   0.382609 0.938552 0.489261 -0.220781
C12   C     C_R   0.418136 0.496368 0.705921 0.999564
C13   C     C_R   0.507032 0.870693 0.480696 -0.135250
C14   C     C_R   0.639943 0.930835 0.452411 -0.210642
C15   C     C_R   0.641955 0.060000 0.452565 0.672596
C16   C     C_R   0.510264 0.128026 0.480809 -0.204624
C17   C     C_R   0.384057 0.066355 0.489853 -0.099426
C18   C     C_3   0.233482 0.079673 0.575551 0.844835
C19   C     C_3   0.232289 0.937579 0.576163 0.933179
C20   C     C_R   0.897323 0.588077 0.559845 -0.032381
C21   C     C_R   0.964810 0.420366 0.432018 0.399588
C22   C     C_R   0.107220 0.420567 0.432993 0.792815
C23   C     C_R   0.502869 0.260127 0.496153 0.935035
C24   C     C_R   0.039251 0.587718 0.560671 0.010286
C25   C     C_3   0.978124 0.605452 0.683995 0.857018
C26   C     C_3   0.826916 0.609800 0.681141 0.341956
C27   C     C_R   0.582387 0.497962 0.294172 0.934847
C28   C     C_R   0.774971 0.351463 0.010652 -0.183008
C29   C     C_R   0.636510 0.477444 0.173570 -0.134663
C30   C     C_R   0.232026 0.544400 0.895217 0.298129
C31   C     C_R   0.190733 0.544369 0.010966 0.453913
C32   C     C_R   0.289715 0.505690 0.057038 0.596863
H1    H     H_    0.757953 0.532842 0.725862 0.088903
H2    H     H_    0.868419 0.291606 0.966407 0.217578
H3    H     H_    0.740563 0.878995 0.436982 0.219167
N1    N     N_R   0.856940 0.500860 0.500710 -0.224776
N2    N     N_R   0.142580 0.500820 0.500710 -0.207116
O1    O     O_R   0.385310 0.683210 0.499990 -0.571995
O2    O     O_R   0.614650 0.683240 0.500000 -0.604090
O3    O     O_R   0.328390 0.499940 0.653610 -0.515901
O4    O     O_R   0.557730 0.499980 0.653620 -0.607360
O5    O     O_R   0.385350 0.316760 0.500000 -0.554580
O6    O     O_R   0.614690 0.316790 0.500010 -0.579556
O7    O     O_R   0.442270 0.500020 0.346380 -0.539129
O8    O     O_R   0.671610 0.500060 0.346390 -0.607921
Zn1   Zn    Zn3+2 0.346870 0.499980 0.499990 1.152672
Zn2   Zn    Zn3+2 0.653130 0.500020 0.500010 1.053565
O9    O     O_3   0.850510 0.362967 0.167939 -0.685055
H4    H     H_    0.928232 0.307180 0.116893 0.364300
F1    F     F_    0.770012 0.116573 0.432828 -0.585789
O10   O     O_3   0.230192 0.134711 0.675106 -0.754545
H5    H     H_    0.127208 0.134794 0.726377 0.384674
F2    F     F_    0.136636 0.135655 0.535112 -0.609955
F3    F     F_    0.229174 0.887806 0.674763 -0.588132
O11   O     O_3   0.128813 0.885016 0.539170 -0.667489
H6    H     H_    0.149023 0.911544 0.462077 0.345488
O12   O     O_3   0.939280 0.335892 0.361347 -0.590646
H7    H     H_    0.840638 0.351941 0.363905 0.415942
F4    F     F_    0.209139 0.338315 0.366757 -0.547100
F5    F     F_    0.003140 0.502786 0.738608 -0.655882
O13   O     O_3   0.018500 0.718541 0.718033 -0.581746
H8    H     H_    0.949158 0.735774 0.794803 0.361529
O14   O     O_3   0.795298 0.236578 0.811016 -0.721407
H9    H     H_    0.795693 0.211648 0.737256 0.410047
F6    F     F_    0.759404 0.726794 0.705701 -0.599378
O15   O     O_3   0.466098 0.628262 0.159417 -0.694066
H10   H     H_    0.452927 0.670517 0.096345 0.347858
O16   O     O_3   0.149518 0.606720 0.846736 -0.629140
H11   H     H_    0.064319 0.647300 0.905156 0.386552
F7    F     F_    0.245449 0.504733 0.169206 -0.565415
F8    F     F_    0.058445 0.589758 0.078983 -0.607328
O17   O     O_3   0.570923 0.270080 0.731789 -0.732902
H12   H     H_    0.469920 0.262943 0.735326 0.346947

loop_
_geom_bond_atom_site_label_1
_geom_bond_atom_site_label_2
_ccdc_geom_bond_type
C6    O14   S    
C12   O3    A    
C2    C4    A    
O11   H6    S    
C8    O15   S    
C12   O4    A    
C25   F5    S    
C26   F6    S    
C27   C29   S    
C5    C28   A    
C10   C30   A    
C26   H1    S    
C31   C32   A    
N2    Zn1   S    
C9    C29   A    
C30   C31   A    
C4    C8    A    
C27   O8    A    
C31   F8    S    
C2    C3    A    
O4    Zn2   S    
C28   H2    S    
C22   F4    S    
C3    C10   A    
C25   O13   S    
C13   C14   A    
C21   O12   S    
C11   C13   A    
C11   C19   S    
O12   H7    S    
C5    C6    A    
C23   O5    A    
C10   C12   S    
C1    O1    A    
N1    Zn2   S    
C8    C29   A    
C19   F3    S    
C2    C32   A    
O9    H4    S    
O7    Zn1   S    
C18   O10   S    
C17   C18   S    
C16   C23   S    
C3    C7    A    
O8    Zn2   S    
O13   H8    S    
O1    Zn1   S    
C1    C13   S    
O3    Zn1   S    
O14   H9    S    
C15   C16   A    
C20   N1    A    
C16   C17   A    
C20   C24   A    
C14   H3    S    
C23   O6    A    
C24   C25   S    
C9    O9    S    
O2    Zn2   S    
C18   C19   S    
O5    Zn1   S    
C15   F1    S    
C19   O11   S    
C7    O17   S    
C21   N1    A    
C24   N2    A    
C1    O2    A    
C14   C15   A    
C4    C5    A    
C32   F7    S    
O15   H10   S    
C18   F2    S    
C25   C26   S    
C21   C22   A    
C22   N2    A    
O6    Zn2   S    
C27   O7    A    
O16   H11   S    
C30   O16   S    
C6    C7    A    
O10   H5    S    
C9    C28   A    
O17   H12   S    
C20   C26   S    
C11   C17   A    
