data_mof_unit_12050.cif
_audit_creation_date              2012-12-10T16:39:40-0500
_audit_creation_method            fapswitch 2.2
_symmetry_space_group_name_H-M    P1
_symmetry_Int_Tables_number       1
_space_group_crystal_system       triclinic
_cell_length_a                    16.788584
_cell_length_b                    16.827776
_cell_length_c                    16.800294
_cell_angle_alpha                 66.710659
_cell_angle_beta                  66.951783
_cell_angle_gamma                 67.178838
_cell_volume                      3856.06144361

loop_
_atom_site_label
_atom_site_type_symbol
_atom_type_description
_atom_site_fract_x
_atom_site_fract_y
_atom_site_fract_z
_atom_type_partial_charge
Br1   Br    Br    0.278969 0.991449 0.851173 -0.325349
Br2   Br    Br    0.259020 0.800716 0.111186 -0.378007
Br3   Br    Br    0.915935 0.768292 0.189757 -0.365277
Br4   Br    Br    0.084065 0.231708 0.810243 -0.365277
Br5   Br    Br    0.721031 0.008551 0.148826 -0.325349
Br6   Br    Br    0.996963 0.849869 0.276016 -0.315514
Br7   Br    Br    0.003038 0.150131 0.723984 -0.315514
Br8   Br    Br    0.853390 0.295358 0.924157 -0.345980
Br9   Br    Br    0.146610 0.704642 0.075842 -0.345979
Br10  Br    Br    0.176912 0.939090 0.757861 -0.333897
Br11  Br    Br    0.823089 0.060909 0.242139 -0.333898
Br12  Br    Br    0.740980 0.199284 0.888813 -0.378007
C1    C     C_R   0.329441 0.941696 0.459694 -0.008582
C2    C     C_R   0.302738 0.429887 0.027413 0.014932
C3    C     C_R   0.543383 0.425008 0.965180 -0.034323
C4    C     C_R   0.022098 0.450962 0.583218 -0.039590
C5    C     C_R   0.977902 0.549038 0.416782 -0.039589
C6    C     C_3   0.255155 0.057924 0.253643 -0.795588
C7    C     C_3   0.744845 0.942076 0.746357 -0.795587
C8    C     C_3   0.068499 0.260863 0.258210 -0.829722
C9    C     C_3   0.931501 0.739137 0.741790 -0.829721
C10   C     C_3   0.236642 0.232303 0.042087 -0.738909
C11   C     C_3   0.763358 0.767697 0.957913 -0.738910
C12   C     C_3   0.386846 0.142023 0.744471 -0.784801
C13   C     C_R   0.054248 0.672482 0.540432 -0.012733
C14   C     C_3   0.613154 0.857977 0.255529 -0.784800
C15   C     C_3   0.142935 0.744634 0.385913 -0.766039
C16   C     C_3   0.857066 0.255366 0.614087 -0.766039
C17   C     C_3   0.825562 0.505051 0.852889 -0.811674
C18   C     C_3   0.174438 0.494949 0.147111 -0.811675
C19   C     C_3   0.258764 0.843624 0.607589 -0.790620
C20   C     C_3   0.741235 0.156376 0.392410 -0.790620
C21   C     C_3   0.565284 0.287031 0.825753 -0.856143
C22   C     C_3   0.434715 0.712969 0.174247 -0.856143
C23   C     C_3   0.842131 0.605406 0.258420 -0.776849
C24   C     C_R   0.945752 0.327518 0.459568 -0.012733
C25   C     C_3   0.157869 0.394594 0.741580 -0.776848
C26   C     C_R   0.460600 0.971072 0.460355 0.036638
C27   C     C_R   0.539400 0.028927 0.539645 0.036638
C28   C     C_R   0.970799 0.460332 0.460896 0.037788
C29   C     C_R   0.029201 0.539668 0.539104 0.037788
C30   C     C_R   0.448542 0.452924 0.996076 0.033261
C31   C     C_R   0.551458 0.547076 0.003924 0.033261
C32   C     C_R   0.967116 0.178910 0.436250 0.897462
C33   C     C_R   0.670559 0.058303 0.540306 -0.008582
C34   C     C_R   0.032884 0.821090 0.563750 0.897462
C35   C     C_R   0.165315 0.425751 0.002341 0.906224
C36   C     C_R   0.834685 0.574249 0.997659 0.906225
C37   C     C_R   0.436512 0.966636 0.178938 0.900686
C38   C     C_R   0.563488 0.033364 0.821061 0.900685
C39   C     C_R   0.566876 0.821442 0.028741 0.896015
C40   C     C_R   0.433124 0.178558 0.971258 0.896016
C41   C     C_R   0.035402 0.562692 0.820752 0.901678
C42   C     C_R   0.964598 0.437308 0.179248 0.901678
C43   C     C_R   0.820974 0.034783 0.562723 0.889639
C44   C     C_R   0.940358 0.459980 0.330224 -0.008999
C45   C     C_R   0.179026 0.965217 0.437277 0.889639
C46   C     C_R   0.416562 0.952750 0.416238 -0.006444
C47   C     C_R   0.583438 0.047250 0.583762 -0.006444
C48   C     C_R   0.952273 0.416264 0.417083 -0.005295
C49   C     C_R   0.047727 0.583736 0.582917 -0.005294
C50   C     C_R   0.397303 0.404347 0.994255 -0.013362
C51   C     C_R   0.602697 0.595653 0.005744 -0.013362
C52   C     C_R   0.275752 0.955170 0.404317 -0.136096
C53   C     C_R   0.724248 0.044830 0.595683 -0.136096
C54   C     C_R   0.953867 0.404742 0.276471 -0.134089
C55   C     C_R   0.059642 0.540020 0.669776 -0.009000
C56   C     C_R   0.046133 0.595257 0.723529 -0.134089
C57   C     C_R   0.389539 0.270896 0.975683 -0.122652
C58   C     C_R   0.610461 0.729104 0.024317 -0.122652
C59   C     C_R   0.596173 0.043687 0.724479 -0.140868
C60   C     C_R   0.403827 0.956313 0.275521 -0.140869
C61   C     C_R   0.745975 0.617470 0.981819 -0.143688
C62   C     C_R   0.254025 0.382530 0.018181 -0.143688
C63   C     C_R   0.043927 0.724244 0.595895 -0.145389
C64   C     C_R   0.956073 0.275756 0.404105 -0.145389
C65   C     C_R   0.447073 0.063420 0.706346 0.217952
C66   C     C_R   0.440413 0.329876 0.958948 -0.013861
C67   C     C_R   0.552927 0.936580 0.293653 0.217952
C68   C     C_R   0.063306 0.706982 0.446465 0.209563
C69   C     C_R   0.936694 0.293018 0.553535 0.209563
C70   C     C_R   0.739633 0.500495 0.929554 0.196190
C71   C     C_R   0.260366 0.499505 0.070445 0.196190
C72   C     C_R   0.299204 0.922428 0.555119 0.210236
C73   C     C_R   0.700796 0.077572 0.444881 0.210236
C74   C     C_R   0.533086 0.315007 0.911317 0.228159
C75   C     C_R   0.466914 0.684993 0.088683 0.228159
C76   C     C_R   0.919232 0.555375 0.300951 0.199348
C77   C     C_R   0.559587 0.670124 0.041051 -0.013861
C78   C     C_R   0.080768 0.444625 0.699049 0.199348
C79   C     C_R   0.311256 0.980323 0.311410 0.097031
C80   C     C_R   0.688744 0.019677 0.688590 0.097032
C81   C     C_R   0.981769 0.312383 0.311442 0.115620
C82   C     C_R   0.018231 0.687617 0.688558 0.115620
C83   C     C_R   0.295284 0.295713 0.011605 0.064120
C84   C     C_R   0.704716 0.704287 0.988394 0.064120
C85   C     C_R   0.665284 0.045665 0.402105 -0.059808
C86   C     C_R   0.334716 0.954334 0.597895 -0.059808
C87   C     C_R   0.049915 0.400741 0.663299 -0.065021
C88   C     C_R   0.540940 0.054270 0.672174 -0.014256
C89   C     C_R   0.950085 0.599259 0.336701 -0.065021
C90   C     C_R   0.413502 0.647474 0.073507 -0.043538
C91   C     C_R   0.586498 0.352526 0.926493 -0.043538
C92   C     C_R   0.590449 0.975748 0.326492 -0.065967
C93   C     C_R   0.409551 0.024251 0.673508 -0.065967
C94   C     C_R   0.310172 0.555741 0.061410 -0.045629
C95   C     C_R   0.689828 0.444259 0.938589 -0.045628
C96   C     C_R   0.976353 0.326024 0.590596 -0.073214
C97   C     C_R   0.023647 0.673976 0.409404 -0.073214
C98   C     C_R   0.707889 0.037027 0.312916 0.234883
C99   C     C_R   0.459060 0.945729 0.327826 -0.014256
C100  C     C_R   0.292111 0.962973 0.687084 0.234884
C101  C     C_R   0.044341 0.310051 0.704034 0.241185
C102  C     C_R   0.955659 0.689949 0.295966 0.241184
C103  C     C_R   0.318856 0.683083 0.091315 0.225938
C104  C     C_R   0.681144 0.316917 0.908684 0.225937
C105  C     C_R   0.670313 0.002822 0.275546 0.238889
C106  C     C_R   0.329687 0.997178 0.724454 0.238889
C107  C     C_R   0.268113 0.638989 0.082179 0.218850
C108  C     C_R   0.731887 0.361011 0.917821 0.218850
C109  C     C_R   0.005020 0.274580 0.669448 0.253795
C110  C     C_R   0.697262 0.570113 0.972586 0.014933
C111  C     C_R   0.994980 0.725420 0.330552 0.253795
C112  C     C_R   0.544891 0.989768 0.412499 -0.034355
C113  C     C_R   0.455109 0.010231 0.587501 -0.034355
C114  C     C_R   0.990603 0.412086 0.544735 -0.036413
C115  C     C_R   0.009398 0.587914 0.455265 -0.036413
C116  C     C_R   0.405064 0.528290 0.030118 -0.029082
C117  C     C_R   0.594936 0.471710 0.969882 -0.029083
C118  C     C_R   0.583778 0.020630 0.451482 -0.035438
C119  C     C_R   0.416222 0.979370 0.548518 -0.035438
C120  C     C_R   0.456617 0.574992 0.034820 -0.034323
H1    H     H_    0.293949 0.107869 0.210898 0.210705
H2    H     H_    0.886017 0.776691 0.698109 0.215575
H3    H     H_    0.894016 0.693487 0.798681 0.200754
H4    H     H_    0.943907 0.784144 0.766624 0.274110
H5    H     H_    0.168024 0.255349 0.084189 0.221610
H6    H     H_    0.231318 0.223260 0.982470 0.273030
H7    H     H_    0.262628 0.166759 0.086516 0.237076
H8    H     H_    0.737372 0.833241 0.913484 0.237076
H9    H     H_    0.768682 0.776740 0.017530 0.273029
H10   H     H_    0.831976 0.744651 0.915811 0.221610
H11   H     H_    0.356406 0.120545 0.818274 0.287724
H12   H     H_    0.234009 0.034429 0.213891 0.277538
H13   H     H_    0.425305 0.189199 0.730630 0.198677
H14   H     H_    0.331626 0.180775 0.711708 0.237433
H15   H     H_    0.574695 0.810800 0.269370 0.198677
H16   H     H_    0.643594 0.879454 0.181725 0.287724
H17   H     H_    0.668374 0.819225 0.288291 0.237433
H18   H     H_    0.122720 0.818588 0.357280 0.291061
H19   H     H_    0.191386 0.728166 0.423821 0.194581
H20   H     H_    0.179949 0.713973 0.329269 0.247673
H21   H     H_    0.808614 0.271834 0.576179 0.194582
H22   H     H_    0.877280 0.181412 0.642720 0.291061
H23   H     H_    0.194750 0.095212 0.294450 0.228390
H24   H     H_    0.820051 0.286027 0.670731 0.247673
H25   H     H_    0.835240 0.573393 0.825812 0.200660
H26   H     H_    0.884468 0.456436 0.875481 0.299481
H27   H     H_    0.823016 0.489934 0.795389 0.233283
H28   H     H_    0.115532 0.543564 0.124519 0.299481
H29   H     H_    0.164760 0.426607 0.174187 0.200660
H30   H     H_    0.176984 0.510066 0.204610 0.233283
H31   H     H_    0.185004 0.865541 0.636640 0.289130
H32   H     H_    0.271968 0.802452 0.563513 0.195458
H33   H     H_    0.290374 0.798295 0.662729 0.245221
H34   H     H_    0.805250 0.904788 0.705550 0.228390
H35   H     H_    0.728031 0.197548 0.436487 0.195459
H36   H     H_    0.814996 0.134459 0.363360 0.289130
H37   H     H_    0.709626 0.201704 0.337271 0.245222
H38   H     H_    0.596858 0.213754 0.837369 0.283679
H39   H     H_    0.508242 0.305561 0.797999 0.206071
H40   H     H_    0.614716 0.322940 0.772486 0.240325
H41   H     H_    0.491758 0.694439 0.202001 0.206071
H42   H     H_    0.403142 0.786246 0.162630 0.283679
H43   H     H_    0.385284 0.677060 0.227514 0.240325
H44   H     H_    0.865853 0.636808 0.184964 0.293216
H45   H     H_    0.765991 0.965571 0.786109 0.277538
H46   H     H_    0.804269 0.559394 0.267811 0.205146
H47   H     H_    0.793026 0.657541 0.291971 0.232518
H48   H     H_    0.195730 0.440606 0.732189 0.205146
H49   H     H_    0.134147 0.363192 0.815036 0.293216
H50   H     H_    0.206974 0.342459 0.708029 0.232518
H51   H     H_    0.706051 0.892131 0.789102 0.210705
H52   H     H_    0.105984 0.306513 0.201319 0.200754
H53   H     H_    0.113983 0.223309 0.301891 0.215576
H54   H     H_    0.056093 0.215856 0.233376 0.274110
O1    O     O_R   0.982940 0.138950 0.510160 -0.614853
O2    O     O_R   0.982940 0.510160 0.138950 -0.651755
O3    O     O_R   0.861050 0.017060 0.489840 -0.612509
O4    O     O_R   0.138950 0.982940 0.510160 -0.612509
O5    O     O_R   0.867700 0.025880 0.612340 -0.616973
O6    O     O_R   0.132300 0.974120 0.387660 -0.616973
O7    O     O_R   0.025880 0.612340 0.867700 -0.606915
O8    O     O_R   0.974120 0.387660 0.132300 -0.606916
O9    O     O_R   0.612340 0.867700 0.025880 -0.639652
O10   O     O_R   0.387660 0.132300 0.974120 -0.639652
O11   O     O_R   0.387660 0.974120 0.132300 -0.617507
O12   O     O_R   0.017060 0.861050 0.489840 -0.614852
O13   O     O_R   0.612340 0.025880 0.867700 -0.617507
O14   O     O_R   0.132300 0.387660 0.974120 -0.626961
O15   O     O_R   0.867700 0.612340 0.025880 -0.626961
O16   O     O_R   0.974120 0.132300 0.387660 -0.619602
O17   O     O_R   0.025880 0.867700 0.612340 -0.619603
O18   O     O_R   0.138950 0.510160 0.982940 -0.605434
O19   O     O_R   0.861050 0.489840 0.017060 -0.605434
O20   O     O_R   0.510160 0.982940 0.138950 -0.613202
O21   O     O_R   0.489840 0.017060 0.861050 -0.613202
O22   O     O_R   0.489840 0.861050 0.017060 -0.595112
O23   O     O_R   0.510160 0.138950 0.982940 -0.595112
O24   O     O_R   0.017060 0.489840 0.861050 -0.651755
Zn1   Zn    Zn3+2 0.004880 0.004880 0.583590 1.044748
Zn2   Zn    Zn3+2 0.995120 0.995120 0.416410 1.044748
Zn3   Zn    Zn3+2 0.004880 0.583590 0.004880 1.020630
Zn4   Zn    Zn3+2 0.995120 0.416410 0.995120 1.020630
Zn5   Zn    Zn3+2 0.583590 0.004880 0.004880 1.051943
Zn6   Zn    Zn3+2 0.416410 0.995120 0.995120 1.051943

loop_
_geom_bond_atom_site_label_1
_geom_bond_atom_site_label_2
_ccdc_geom_bond_type
O20   Zn5   S    
C53   C80   A    
C16   H22   S    
C8    C81   S    
C15   H20   S    
C28   C48   A    
C94   C107  A    
C13   C68   A    
C41   O7    A    
C10   C83   S    
C29   C115  A    
C58   C84   A    
C40   O10   A    
C29   C49   A    
C96   C109  A    
C95   C117  A    
C76   C89   A    
C31   C51   A    
C17   H27   S    
C37   O11   A    
C18   H28   S    
C10   H5    S    
O23   Zn5   S    
C25   C78   S    
C65   C88   A    
C27   C113  A    
C6    C79   S    
C2    C62   A    
C31   C120  A    
C90   C120  A    
C85   C118  A    
C12   H13   S    
Br1   C106  S    
O10   Zn6   S    
C104  C108  A    
C44   C76   A    
C9    C82   S    
C90   C103  A    
C12   H11   S    
C89   C102  A    
C2    C50   A    
C94   C116  A    
C11   C84   S    
C6    H1    S    
C23   C76   S    
O4    Zn1   S    
C18   C71   S    
C32   C64   S    
C41   C56   S    
C5    C89   A    
O6    Zn2   S    
C68   C97   A    
C7    C80   S    
C24   C64   A    
C8    H53   S    
C26   C46   A    
C97   C115  A    
C59   C80   A    
C19   H33   S    
C41   O24   A    
C37   C60   S    
C3    C117  A    
C36   O19   A    
O14   Zn4   S    
C11   H10   S    
Br10  C100  S    
C22   H43   S    
C7    H34   S    
O12   Zn2   S    
C7    H45   S    
C9    H4    S    
O9    Zn5   S    
C73   C85   A    
C30   C116  A    
C8    H52   S    
C38   O21   A    
C66   C74   A    
C23   H46   S    
C60   C99   A    
C25   H49   S    
O22   Zn6   S    
C42   O2    A    
Br11  C98   S    
C32   O16   A    
C47   C88   A    
O17   Zn1   S    
C57   C66   A    
C2    C71   A    
Br7   C109  S    
C74   C91   A    
C116  C120  A    
C98   C105  A    
C34   C63   S    
C43   C53   S    
C20   C73   S    
C23   H47   S    
C19   H31   S    
C86   C100  A    
C55   C56   A    
Br4   C101  S    
C31   C117  A    
C21   H38   S    
C49   C55   A    
C35   C62   S    
C45   O6    A    
C18   H29   S    
C15   C68   S    
C7    H51   S    
C60   C79   A    
C39   O22   A    
C97   C111  A    
C17   H25   S    
C1    C46   A    
C57   C83   A    
C78   C87   A    
O24   Zn4   S    
O18   Zn3   S    
Br3   C102  S    
C55   C78   A    
C56   C82   A    
C19   C72   S    
C46   C99   A    
Br5   C105  S    
C13   C63   A    
C5    C28   A    
C43   O5    A    
C36   C61   S    
C86   C119  A    
C33   C73   A    
C38   C59   S    
O8    Zn4   S    
C22   H42   S    
C64   C81   A    
C75   C90   A    
Br2   C103  S    
C113  C119  A    
C1    C72   A    
C24   C69   A    
O2    Zn3   S    
C27   C47   A    
C51   C77   A    
C112  C118  A    
C13   C49   A    
C70   C95   A    
C14   H16   S    
C11   H8    S    
O15   Zn3   S    
O11   Zn6   S    
C54   C81   A    
C92   C112  A    
C102  C111  A    
C34   O17   A    
C39   C58   S    
O1    Zn1   S    
O19   Zn4   S    
C15   H18   S    
C103  C107  A    
C20   H36   S    
C33   C53   A    
C16   H21   S    
Br9   C107  S    
O13   Zn5   S    
C35   O14   A    
C58   C77   A    
C23   H44   S    
C21   H39   S    
C43   O3    A    
C9    H2    S    
C51   C110  A    
C93   C106  A    
Br8   C108  S    
C45   C52   S    
C92   C105  A    
C40   C57   S    
C25   H48   S    
C30   C50   A    
C19   H32   S    
C33   C47   A    
C15   H19   S    
C16   C69   S    
C62   C83   A    
C50   C66   A    
C14   H17   S    
C5    C115  A    
C45   O4    A    
C3    C30   A    
O16   Zn2   S    
C24   C48   A    
O3    Zn2   S    
C87   C101  A    
C38   O13   A    
C4    C87   A    
O7    Zn3   S    
C17   H26   S    
C42   C54   S    
C27   C118  A    
C93   C113  A    
C59   C88   A    
C10   H6    S    
C14   C67   S    
C61   C84   A    
C71   C94   A    
C67   C99   A    
C72   C86   A    
C26   C119  A    
C6    H12   S    
C91   C104  A    
C42   O8    A    
C22   H41   S    
C12   H14   S    
C100  C106  A    
C85   C98   A    
C95   C108  A    
C40   O23   A    
C1    C52   A    
C4    C114  A    
C44   C54   A    
C25   H50   S    
C10   H7    S    
C65   C93   A    
O21   Zn6   S    
C70   C110  A    
C35   O18   A    
C22   C75   S    
C14   H15   S    
C67   C92   A    
C69   C96   A    
C3    C91   A    
C34   O12   A    
C32   O1    A    
C8    H54   S    
C36   O15   A    
C44   C48   A    
C12   C65   S    
C17   C70   S    
C101  C109  A    
C37   O20   A    
C20   H37   S    
C61   C110  A    
C20   H35   S    
C16   H24   S    
C75   C77   A    
C18   H30   S    
C28   C114  A    
C11   H9    S    
C39   O9    A    
C52   C79   A    
C96   C114  A    
C21   H40   S    
Br6   C111  S    
C4    C29   A    
C9    H3    S    
C21   C74   S    
C26   C112  A    
C6    H23   S    
C63   C82   A    
O5    Zn1   S    
Br12  C104  S    
