data_mof_unit_5628.cif
_audit_creation_date              2012-12-11T14:44:29-0500
_audit_creation_method            fapswitch 2.2
_symmetry_space_group_name_H-M    P1
_symmetry_Int_Tables_number       1
_space_group_crystal_system       triclinic
_cell_length_a                    25.189043
_cell_length_b                    16.80742
_cell_length_c                    15.600749
_cell_angle_alpha                 90.000143
_cell_angle_beta                  49.44671
_cell_angle_gamma                 90.000222
_cell_volume                      5018.32022381

loop_
_atom_site_label
_atom_site_type_symbol
_atom_type_description
_atom_site_fract_x
_atom_site_fract_y
_atom_site_fract_z
_atom_type_partial_charge
Br1   Br    Br    0.776762 0.077923 0.259812 -0.555470
Br2   Br    Br    0.776010 0.793457 0.625944 -0.567199
Br3   Br    Br    0.828684 0.125525 0.619991 -0.463281
Br4   Br    Br    0.223997 0.793453 0.374047 -0.567200
Br5   Br    Br    0.671303 0.625522 0.380034 -0.463282
Br6   Br    Br    0.276030 0.293457 0.625918 -0.567210
Br7   Br    Br    0.328693 0.625522 0.619975 -0.463275
Br8   Br    Br    0.724006 0.293451 0.374031 -0.567190
Br9   Br    Br    0.239243 0.849345 0.738310 -0.590426
Br10  Br    Br    0.223239 0.077922 0.740189 -0.555488
Br11  Br    Br    0.760757 0.849344 0.261690 -0.590427
Br12  Br    Br    0.276762 0.577923 0.259811 -0.555473
Br13  Br    Br    0.739240 0.349351 0.738307 -0.590418
Br14  Br    Br    0.723238 0.577925 0.740189 -0.555470
Br15  Br    Br    0.260759 0.349347 0.261689 -0.590430
Br16  Br    Br    0.171289 0.125525 0.380059 -0.463287
C1    C     C_R   0.352602 0.146954 0.757436 -0.118785
C2    C     C_3   0.745954 0.738120 0.554463 0.344689
C3    C     C_3   0.391124 0.731087 0.263628 -0.855106
C4    C     C_3   0.840784 0.675522 0.269976 -0.837248
C5    C     C_3   0.108891 0.231110 0.736373 -0.855133
C6    C     C_3   0.159214 0.675523 0.730025 -0.837249
C7    C     C_3   0.891130 0.231078 0.263628 -0.855101
C8    C     C_3   0.334089 0.788178 0.025654 -0.852704
C9    C     C_3   0.633466 0.278983 0.058341 -0.843917
C10   C     C_3   0.665913 0.788186 0.974337 -0.852798
C11   C     C_3   0.366514 0.278956 0.941701 -0.843942
C12   C     C_3   0.834095 0.288166 0.025644 -0.852671
C13   C     C_3   0.795785 0.171814 0.548175 0.367213
C14   C     C_3   0.133476 0.778971 0.058320 -0.843931
C15   C     C_3   0.165921 0.288142 0.974361 -0.852733
C16   C     C_3   0.866520 0.778960 0.941690 -0.843956
C17   C     C_3   0.254049 0.738117 0.445535 0.344693
C18   C     C_3   0.704210 0.671814 0.451836 0.367212
C19   C     C_3   0.245963 0.238121 0.554453 0.344676
C20   C     C_3   0.295788 0.671813 0.548168 0.367215
C21   C     C_3   0.754053 0.238116 0.445529 0.344696
C22   C     C_2   0.643504 0.262720 0.142413 0.197214
C23   C     C_2   0.306259 0.843650 0.986560 0.206627
C24   C     C_2   0.356488 0.262706 0.857614 0.197208
C25   C     C_R   0.665752 0.890647 0.193979 -0.067391
C26   C     C_2   0.693743 0.843653 0.013437 0.206650
C27   C     C_2   0.143509 0.762714 0.142399 0.197209
C28   C     C_2   0.806262 0.343638 0.986552 0.206617
C29   C     C_2   0.856492 0.762711 0.857605 0.197218
C30   C     C_2   0.193743 0.343645 0.013442 0.206649
C31   C     C_2   0.685123 0.309196 0.147640 -0.106578
C32   C     C_2   0.237480 0.861069 0.053025 -0.114513
C33   C     C_2   0.314880 0.309189 0.852373 -0.106538
C34   C     C_2   0.762523 0.861067 0.946978 -0.114519
C35   C     C_2   0.185121 0.809194 0.147634 -0.106572
C36   C     C_R   0.647393 0.146960 0.242578 -0.118781
C37   C     C_2   0.737484 0.361065 0.053024 -0.114498
C38   C     C_2   0.814881 0.809193 0.852367 -0.106557
C39   C     C_2   0.262522 0.361064 0.946980 -0.114570
C40   C     C_R   0.613987 0.102894 0.594349 -0.177946
C41   C     C_R   0.409685 0.855905 0.404213 -0.167594
C42   C     C_R   0.386012 0.102892 0.405651 -0.177935
C43   C     C_R   0.590315 0.855905 0.595787 -0.167595
C44   C     C_R   0.113987 0.602893 0.594349 -0.177944
C45   C     C_R   0.909686 0.355904 0.404214 -0.167592
C46   C     C_R   0.886013 0.602894 0.405651 -0.177942
C47   C     C_R   0.334248 0.890646 0.806020 -0.067382
C48   C     C_R   0.090318 0.355908 0.595788 -0.167593
C49   C     C_R   0.690460 0.098810 0.407980 0.363783
C50   C     C_R   0.329940 0.858378 0.592438 0.361078
C51   C     C_R   0.309540 0.098808 0.592020 0.363785
C52   C     C_R   0.670060 0.858379 0.407563 0.361079
C53   C     C_R   0.190460 0.598809 0.407980 0.363785
C54   C     C_R   0.829940 0.358379 0.592438 0.361073
C55   C     C_R   0.809540 0.598810 0.592020 0.363785
C56   C     C_R   0.170062 0.358381 0.407563 0.361081
C57   C     C_R   0.559357 0.143066 0.240523 -0.096875
C58   C     C_R   0.852605 0.646957 0.757429 -0.118774
C59   C     C_R   0.423213 0.890760 0.802808 -0.118673
C60   C     C_R   0.440639 0.143061 0.759489 -0.096893
C61   C     C_R   0.576788 0.890762 0.197190 -0.118657
C62   C     C_R   0.059359 0.643063 0.240517 -0.096886
C63   C     C_R   0.923214 0.390755 0.802805 -0.118683
C64   C     C_R   0.940641 0.643063 0.759483 -0.096889
C65   C     C_R   0.076787 0.390762 0.197190 -0.118653
C66   C     C_R   0.383732 0.188257 0.791658 0.084348
C67   C     C_R   0.646321 0.870626 0.131943 0.068858
C68   C     C_R   0.616262 0.188267 0.208362 0.084351
C69   C     C_R   0.165751 0.390648 0.193979 -0.067391
C70   C     C_R   0.353680 0.870623 0.868054 0.068846
C71   C     C_R   0.883736 0.688261 0.791648 0.084351
C72   C     C_R   0.146321 0.370626 0.131943 0.068853
C73   C     C_R   0.116265 0.688262 0.208352 0.084351
C74   C     C_R   0.853682 0.370614 0.868049 0.068839
C75   C     C_R   0.682402 0.114404 0.502063 0.058789
C76   C     C_R   0.354650 0.815453 0.496763 0.060784
C77   C     C_R   0.317598 0.114400 0.497937 0.058789
C78   C     C_R   0.645351 0.815454 0.503238 0.060784
C79   C     C_R   0.182402 0.614403 0.502062 0.058790
C80   C     C_R   0.147396 0.646957 0.242571 -0.118778
C81   C     C_R   0.854650 0.315452 0.496764 0.060782
C82   C     C_R   0.817598 0.614405 0.497937 0.058790
C83   C     C_R   0.145355 0.315458 0.503239 0.060786
C84   C     C_3   0.280494 0.190816 0.394955 0.206414
C85   C     C_3   0.670162 0.718834 0.611205 0.209155
C86   C     C_3   0.719501 0.190824 0.605047 0.206419
C87   C     C_3   0.329840 0.718830 0.388796 0.209154
C88   C     C_3   0.780496 0.690821 0.394954 0.206418
C89   C     C_3   0.170169 0.218842 0.611205 0.209160
C90   C     C_3   0.219504 0.690820 0.605046 0.206415
C91   C     C_R   0.834249 0.390641 0.806017 -0.067377
C92   C     C_3   0.829842 0.218826 0.388797 0.209156
C93   C     C_3   0.759315 0.773099 0.451378 -0.256042
C94   C     C_3   0.191781 0.135565 0.555371 -0.255043
C95   C     C_3   0.240686 0.773098 0.548619 -0.256044
C96   C     C_3   0.808215 0.135554 0.444649 -0.255052
C97   C     C_3   0.259322 0.273097 0.451369 -0.256029
C98   C     C_3   0.691784 0.635559 0.555361 -0.255050
C99   C     C_3   0.740688 0.273100 0.548614 -0.256048
C100  C     C_3   0.308216 0.635557 0.444643 -0.255050
C101  C     C_3   0.683068 0.753751 0.508183 -0.050309
C102  C     C_3   0.204206 0.171816 0.451846 0.367205
C103  C     C_3   0.268035 0.156053 0.497522 -0.054083
C104  C     C_3   0.316933 0.753749 0.491818 -0.050308
C105  C     C_3   0.731966 0.156054 0.502479 -0.054087
C106  C     C_3   0.183072 0.253756 0.508184 -0.050309
C107  C     C_3   0.768034 0.656055 0.497522 -0.054086
C108  C     C_3   0.816933 0.253748 0.491819 -0.050309
C109  C     C_3   0.231967 0.656053 0.502478 -0.054085
C110  C     C_3   0.340778 0.175510 0.269977 -0.837255
C111  C     C_3   0.608879 0.731093 0.736374 -0.855105
C112  C     C_3   0.659209 0.175532 0.730026 -0.837245
H1    H     H_    0.306604 0.163539 0.770131 0.159779
H2    H     H_    0.439373 0.842658 0.316397 0.133699
H3    H     H_    0.409625 0.100573 0.318329 0.127639
H4    H     H_    0.560628 0.842659 0.683603 0.133698
H5    H     H_    0.090375 0.600572 0.681670 0.127641
H6    H     H_    0.939374 0.342657 0.316398 0.133699
H7    H     H_    0.909626 0.600575 0.318329 0.127641
H8    H     H_    0.060631 0.342663 0.683604 0.133696
H9    H     H_    0.523339 0.157735 0.227445 0.108881
H10   H     H_    0.451859 0.894804 0.832311 0.103256
H11   H     H_    0.476656 0.157727 0.772570 0.108882
H12   H     H_    0.718645 0.899602 0.158424 0.159696
H13   H     H_    0.548141 0.894808 0.167688 0.103248
H14   H     H_    0.023341 0.657731 0.227438 0.108882
H15   H     H_    0.951860 0.394796 0.832309 0.103269
H16   H     H_    0.976659 0.657730 0.772562 0.108886
H17   H     H_    0.048140 0.394805 0.167690 0.103235
H18   H     H_    0.787553 0.830066 0.411880 0.217293
H19   H     H_    0.165398 0.078168 0.596908 0.207882
H20   H     H_    0.212449 0.830065 0.588116 0.217294
H21   H     H_    0.834592 0.078152 0.403127 0.207876
H22   H     H_    0.287563 0.330061 0.411863 0.217297
H23   H     H_    0.693387 0.163546 0.229893 0.159749
H24   H     H_    0.665404 0.578159 0.596890 0.207879
H25   H     H_    0.712453 0.330069 0.588106 0.217294
H26   H     H_    0.334595 0.578156 0.403116 0.207879
H27   H     H_    0.218653 0.902760 0.025046 0.135995
H28   H     H_    0.691105 0.297083 0.209277 0.172323
H29   H     H_    0.781350 0.902756 0.974958 0.136003
H30   H     H_    0.308904 0.297081 0.790727 0.172292
H31   H     H_    0.718657 0.402759 0.025047 0.135996
H32   H     H_    0.191099 0.797085 0.209278 0.172313
H33   H     H_    0.281349 0.402763 0.974951 0.136014
H34   H     H_    0.281355 0.899600 0.841576 0.159693
H35   H     H_    0.808905 0.797086 0.790722 0.172308
H36   H     H_    0.389208 0.203760 0.243667 0.236316
H37   H     H_    0.348470 0.110502 0.253899 0.235938
H38   H     H_    0.328786 0.200866 0.218747 0.294141
H39   H     H_    0.559258 0.715839 0.755541 0.238538
H40   H     H_    0.614864 0.691914 0.786767 0.293323
H41   H     H_    0.607564 0.793704 0.760205 0.242330
H42   H     H_    0.610783 0.203783 0.756318 0.236318
H43   H     H_    0.651511 0.110526 0.746119 0.235931
H44   H     H_    0.671194 0.200895 0.781261 0.294144
H45   H     H_    0.806609 0.663544 0.770119 0.159767
H46   H     H_    0.440744 0.715834 0.244463 0.238542
H47   H     H_    0.385139 0.691907 0.213235 0.293324
H48   H     H_    0.392440 0.793698 0.239793 0.242328
H49   H     H_    0.889212 0.703774 0.243675 0.236317
H50   H     H_    0.848480 0.610515 0.253891 0.235933
H51   H     H_    0.828796 0.700880 0.218743 0.294144
H52   H     H_    0.059268 0.215854 0.755553 0.238538
H53   H     H_    0.114881 0.191937 0.786766 0.293323
H54   H     H_    0.107580 0.293723 0.760193 0.242336
H55   H     H_    0.110787 0.703774 0.756323 0.236318
H56   H     H_    0.218645 0.399601 0.158423 0.159697
H57   H     H_    0.151517 0.610517 0.746112 0.235933
H58   H     H_    0.171202 0.700882 0.781258 0.294145
H59   H     H_    0.940747 0.215825 0.244469 0.238542
H60   H     H_    0.885146 0.191896 0.213235 0.293323
H61   H     H_    0.892448 0.293688 0.239788 0.242325
H62   H     H_    0.391244 0.778877 0.959053 0.234209
H63   H     H_    0.323837 0.813673 0.100844 0.272070
H64   H     H_    0.308523 0.729058 0.047415 0.257408
H65   H     H_    0.599632 0.233841 0.062876 0.232771
H66   H     H_    0.608922 0.338262 0.075194 0.260188
H67   H     H_    0.193391 0.663544 0.229881 0.159760
H68   H     H_    0.684687 0.277724 0.971197 0.269231
H69   H     H_    0.608753 0.778916 0.040908 0.234209
H70   H     H_    0.676193 0.813668 0.899124 0.272091
H71   H     H_    0.691452 0.729057 0.952623 0.257432
H72   H     H_    0.400340 0.233807 0.937173 0.232775
H73   H     H_    0.391061 0.338231 0.924858 0.260197
H74   H     H_    0.315288 0.277699 0.028839 0.269242
H75   H     H_    0.891240 0.278813 0.959008 0.234218
H76   H     H_    0.823896 0.313696 0.100773 0.272046
H77   H     H_    0.808490 0.229064 0.047498 0.257405
H78   H     H_    0.781355 0.399592 0.841574 0.159692
H79   H     H_    0.099646 0.733824 0.062851 0.232775
H80   H     H_    0.108930 0.838247 0.075170 0.260189
H81   H     H_    0.184699 0.777715 0.971180 0.269240
H82   H     H_    0.108747 0.278932 0.040902 0.234206
H83   H     H_    0.176269 0.313553 0.899051 0.272100
H84   H     H_    0.191424 0.228994 0.952782 0.257404
H85   H     H_    0.900346 0.733810 0.937166 0.232773
H86   H     H_    0.891067 0.838233 0.924850 0.260202
H87   H     H_    0.815295 0.777699 0.028827 0.269241
H88   H     H_    0.590375 0.100572 0.681670 0.127642
N1    N     N_R   0.389620 0.081040 0.705440 -0.041130
N2    N     N_R   0.417680 0.920160 0.443370 -0.069875
N3    N     N_R   0.417680 0.079840 0.443370 -0.064066
N4    N     N_R   0.582320 0.920160 0.556630 -0.069874
N5    N     N_R   0.082320 0.579840 0.556630 -0.064067
N6    N     N_R   0.917680 0.420160 0.443370 -0.069874
N7    N     N_R   0.917680 0.579840 0.443370 -0.064067
N8    N     N_R   0.082320 0.420160 0.556630 -0.069874
N9    N     N_R   0.627920 0.078930 0.443400 -0.075637
N10   N     N_R   0.372080 0.921070 0.556600 -0.075427
N11   N     N_R   0.372080 0.078930 0.556600 -0.075632
N12   N     N_R   0.610380 0.918960 0.294560 -0.043040
N13   N     N_R   0.627920 0.921070 0.443400 -0.075426
N14   N     N_R   0.127920 0.578930 0.443400 -0.075636
N15   N     N_R   0.872080 0.421070 0.556600 -0.075426
N16   N     N_R   0.872080 0.578930 0.556600 -0.075636
N17   N     N_R   0.127920 0.421070 0.443400 -0.075427
N18   N     N_R   0.555090 0.077730 0.294590 -0.051748
N19   N     N_R   0.444910 0.922270 0.705410 -0.047436
N20   N     N_R   0.444910 0.077730 0.705410 -0.051744
N21   N     N_R   0.555090 0.922270 0.294590 -0.047439
N22   N     N_R   0.055090 0.577730 0.294590 -0.051746
N23   N     N_R   0.610380 0.081040 0.294560 -0.041129
N24   N     N_R   0.944910 0.422270 0.705410 -0.047435
N25   N     N_R   0.944910 0.577730 0.705410 -0.051746
N26   N     N_R   0.055090 0.422270 0.294590 -0.047438
N27   N     N_R   0.389620 0.918960 0.705440 -0.043041
N28   N     N_R   0.889620 0.581040 0.705440 -0.041131
N29   N     N_R   0.110380 0.418960 0.294560 -0.043039
N30   N     N_R   0.110380 0.581040 0.294560 -0.041130
N31   N     N_R   0.889620 0.418960 0.705440 -0.043042
N32   N     N_R   0.582320 0.079840 0.556630 -0.064067
Ni1   Ni    Ni4+2 0.382970 1.000000 0.629840 0.285339
Ni2   Ni    Ni4+2 0.617030 1.000000 0.370160 0.285341
Ni3   Ni    Ni4+2 0.882970 0.500000 0.629840 0.285342
Ni4   Ni    Ni4+2 0.117030 0.500000 0.370160 0.285340
Ni5   Ni    Ni4+2 0.514540 1.000000 0.629840 0.210378
Ni6   Ni    Ni4+2 0.485460 1.000000 0.370160 0.210379
Ni7   Ni    Ni4+2 0.014540 0.500000 0.629840 0.210378
Ni8   Ni    Ni4+2 0.985460 0.500000 0.370160 0.210379

loop_
_geom_bond_atom_site_label_1
_geom_bond_atom_site_label_2
_ccdc_geom_bond_type
C46   H7    S    
C47   H34   S    
C69   N29   A    
C89   C94   S    
C48   H8    S    
C112  H42   S    
N9    Ni2   S    
N27   Ni1   S    
N28   Ni3   S    
Br2   C2    S    
C11   H74   S    
N26   Ni8   S    
Br7   C20   S    
C11   H72   S    
C13   C96   S    
C19   C103  S    
C87   C104  S    
C2    C93   S    
C98   H24   S    
Br12  C53   S    
C110  H37   S    
N15   Ni3   S    
C44   N5    A    
C94   C102  S    
C14   H81   S    
N5    Ni7   S    
C93   C101  S    
C88   C107  S    
N30   Ni4   S    
Br10  C51   S    
Br6   C19   S    
C28   C74   S    
C5    H53   S    
Br15  C56   S    
C40   N32   A    
C90   C109  S    
C34   C38   S    
N4    N13   A    
C84   C110  S    
C65   C72   A    
C91   N31   A    
C29   C71   S    
C42   C77   A    
C74   C91   A    
C81   C108  S    
C86   C112  S    
C43   N4    A    
C62   H14   S    
C102  C106  S    
C88   C93   S    
C78   C101  S    
C110  H36   S    
C69   C72   A    
C31   H28   S    
C61   C67   A    
C24   C33   D    
C25   C67   A    
C13   C108  S    
C35   H32   S    
C8    C23   S    
C64   N25   A    
C48   N8    A    
C36   C68   A    
C1    C66   A    
C16   C29   S    
Br3   C13   S    
C10   H69   S    
C54   N15   A    
C91   H78   S    
C86   C99   S    
C5    C89   S    
C36   N23   A    
C27   C35   D    
C46   C82   A    
C16   H87   S    
C3    C87   S    
N7    Ni8   S    
C32   C35   S    
C63   H15   S    
C15   H84   S    
C93   H18   S    
C111  H40   S    
C63   C74   A    
C15   C30   S    
C58   C71   A    
C30   C39   D    
C89   C106  S    
N24   N31   A    
Br1   C49   S    
C55   N16   A    
C59   N19   A    
C17   C95   S    
C43   C78   A    
N20   Ni5   S    
C8    H63   S    
C86   C105  S    
N18   Ni6   S    
C57   C68   A    
C30   C72   S    
N13   Ni2   S    
C54   C81   A    
C2    C107  S    
C31   C37   S    
C58   N28   A    
C18   C101  S    
C25   N12   A    
C14   H80   S    
C62   N22   A    
C11   H73   S    
C99   H25   S    
N23   Ni2   S    
C61   N21   A    
C85   C98   S    
C50   N10   A    
C56   N17   A    
C5    H54   S    
N1    Ni1   S    
C63   N24   A    
C92   C108  S    
N14   Ni4   S    
C28   C37   D    
N1    N20   A    
C80   N30   A    
Br14  C55   S    
N19   N27   A    
C45   H6    S    
C4    H51   S    
N12   Ni2   S    
C90   C95   S    
C5    H52   S    
C62   C73   A    
C82   C107  S    
C55   C82   A    
C43   H4    S    
C37   H31   S    
N26   N29   A    
C97   C106  S    
C1    H1    S    
C12   H76   S    
C24   C66   S    
N21   Ni6   S    
N19   Ni5   S    
C58   H45   S    
C8    H64   S    
C60   C66   A    
N16   Ni3   S    
N32   Ni5   S    
C50   C76   A    
C41   H2    S    
C80   H67   S    
C64   H16   S    
C33   C39   S    
N3    Ni6   S    
C20   C90   S    
C12   C28   S    
C18   C88   S    
C3    H48   S    
N22   Ni8   S    
C95   C104  S    
C53   N14   A    
C2    C85   S    
C65   N26   A    
N5    N14   A    
C20   C104  S    
N8    N17   A    
C25   H12   S    
Br5   C18   S    
C6    H55   S    
C45   N6    A    
Br16  C102  S    
C9    C22   S    
C42   N3    A    
C79   C109  S    
C59   C70   A    
C51   N11   A    
C42   H3    S    
C18   C98   S    
C47   N27   A    
N4    Ni5   S    
N22   N30   A    
C17   C109  S    
N2    Ni6   S    
C49   N9    A    
C48   C83   A    
C60   N20   A    
C84   C103  S    
C27   C73   S    
C46   N7    A    
C10   H71   S    
C39   H33   S    
C57   N18   A    
C9    H68   S    
C21   C92   S    
C83   C106  S    
N25   Ni7   S    
C16   H85   S    
N10   Ni1   S    
C32   H27   S    
C26   C34   D    
C29   C38   D    
C112  H44   S    
C69   H56   S    
N6    Ni8   S    
C100  C109  S    
C47   C70   A    
C75   C105  S    
N11   Ni1   S    
C38   H35   S    
C21   C105  S    
C33   H30   S    
C84   C102  S    
Br8   C21   S    
C98   C107  S    
C12   H77   S    
C94   H19   S    
C20   C100  S    
C7    H61   S    
C9    H65   S    
C1    N1    A    
C52   N13   A    
C10   C26   S    
C60   H11   S    
C92   C96   S    
C49   C75   A    
Br4   C17   S    
N24   Ni7   S    
C99   C108  S    
C11   C24   S    
C22   C68   S    
C17   C87   S    
C12   H75   S    
C100  H26   S    
C97   H22   S    
N29   Ni4   S    
C45   C81   A    
C26   C67   S    
C53   C79   A    
C59   H10   S    
C94   C103  S    
N6    N15   A    
C110  H38   S    
C4    H50   S    
C4    H49   S    
C21   C99   S    
N31   Ni3   S    
C64   C71   A    
C7    C92   S    
C65   H17   S    
C22   C31   D    
N25   N28   A    
C85   C101  S    
C6    H57   S    
C3    H47   S    
C87   C100  S    
C76   C104  S    
C3    H46   S    
C16   H86   S    
N12   N21   A    
C6    C90   S    
C95   H20   S    
Br9   C50   S    
C7    H59   S    
Br13  C54   S    
C7    H60   S    
C15   H82   S    
C57   H9    S    
N9    N32   A    
C36   H23   S    
C111  H41   S    
C14   H79   S    
C6    H58   S    
C85   C111  S    
C13   C86   S    
C19   C97   S    
C41   C76   A    
N18   N23   A    
C112  H43   S    
C10   H70   S    
C52   C78   A    
C40   H88   S    
Br11  C52   S    
C4    C88   S    
N3    N11   A    
C44   C79   A    
C14   C27   S    
N7    N16   A    
C96   C105  S    
C15   H83   S    
N8    Ni7   S    
C61   H13   S    
C111  H39   S    
C41   N2    A    
C51   C77   A    
C96   H21   S    
C8    H62   S    
C19   C89   S    
C77   C103  S    
C23   C70   S    
C73   C80   A    
C34   H29   S    
C84   C97   S    
C44   H5    S    
N2    N10   A    
C40   C75   A    
C9    H66   S    
N17   Ni4   S    
C23   C32   D    
C56   C83   A    
