data_mof_unit_40253.cif
_audit_creation_date              2013-03-05T15:41:34-0500
_audit_creation_method            fapswitch 2.2
_symmetry_space_group_name_H-M    P1
_symmetry_Int_Tables_number       1
_space_group_crystal_system       triclinic
_cell_length_a                    24.657436
_cell_length_b                    17.594705
_cell_length_c                    15.652347
_cell_angle_alpha                 90.298787
_cell_angle_beta                  129.985039
_cell_angle_gamma                 89.222733
_cell_volume                      5202.5225078

loop_
_atom_site_label
_atom_site_type_symbol
_atom_site_description
_atom_site_fract_x
_atom_site_fract_y
_atom_site_fract_z
_atom_type_partial_charge
C1    C     C_R   0.332428 0.399699 0.192705 0.020201
C2    C     C_R   0.354710 0.645321 0.252055 -0.093559
C3    C     C_R   0.832427 0.899701 0.192704 0.020168
C4    C     C_R   0.854691 0.145305 0.252010 -0.093643
H1    H     H_    0.279045 0.410506 0.160067 0.187531
H2    H     H_    0.310228 0.663142 0.245753 0.155803
H3    H     H_    0.779043 0.910504 0.160069 0.187420
H4    H     H_    0.810202 0.163121 0.245692 0.155853
N1    N     N_R   0.389430 0.421450 0.294590 -0.081716
N2    N     N_R   0.389430 0.578550 0.294590 -0.066588
N3    N     N_R   0.889430 0.921450 0.294590 -0.081704
N4    N     N_R   0.889430 0.078550 0.294590 -0.066613
C5    C     C_R   0.669368 0.404453 0.809615 -0.000868
C6    C     C_R   0.645966 0.642316 0.747290 -0.064716
C7    C     C_R   0.169369 0.904446 0.809614 -0.000857
C8    C     C_R   0.145979 0.142306 0.747317 -0.064984
H5    H     H_    0.722544 0.417382 0.844512 0.194466
H6    H     H_    0.689989 0.659573 0.753075 0.156213
H7    H     H_    0.222548 0.917349 0.844506 0.194470
H8    H     H_    0.190015 0.159552 0.753129 0.155878
N5    N     N_R   0.612200 0.424040 0.705410 -0.091355
N6    N     N_R   0.612200 0.575960 0.705410 -0.069140
N7    N     N_R   0.112200 0.924040 0.705410 -0.091317
N8    N     N_R   0.112200 0.075960 0.705410 -0.069116
C9    C     C_R   0.589949 0.356353 0.409581 -0.040735
C10   C     C_R   0.619873 0.593519 0.412719 -0.057476
C11   C     C_R   0.089951 0.856354 0.409589 -0.040293
C12   C     C_R   0.119874 0.093562 0.412733 -0.056966
N9    N     N_R   0.581780 0.422390 0.443390 -0.067794
N10   N     N_R   0.581780 0.577610 0.443390 -0.080461
N11   N     N_R   0.081780 0.922390 0.443390 -0.067839
N12   N     N_R   0.081780 0.077610 0.443390 -0.080408
C13   C     C_R   0.400047 0.373795 0.594569 -0.072054
C14   C     C_R   0.381984 0.590255 0.588460 -0.106450
C15   C     C_R   0.900142 0.873665 0.594572 -0.071546
C16   C     C_R   0.881983 0.090238 0.588464 -0.106367
N13   N     N_R   0.419850 0.423100 0.556610 -0.079984
N14   N     N_R   0.419850 0.576900 0.556610 -0.082613
N15   N     N_R   0.919850 0.923100 0.556610 -0.079947
N16   N     N_R   0.919850 0.076900 0.556610 -0.082612
C17   C     C_R   0.663509 0.357210 0.593970 0.411946
C18   C     C_R   0.692763 0.590208 0.595650 0.285692
C19   C     C_R   0.163521 0.857222 0.593982 0.411739
C20   C     C_R   0.192756 0.090252 0.595664 0.285184
N17   N     N_R   0.627410 0.423100 0.556610 -0.098616
N18   N     N_R   0.627410 0.576900 0.556610 -0.097017
N19   N     N_R   0.127410 0.923100 0.556610 -0.098604
N20   N     N_R   0.127410 0.076900 0.556610 -0.097011
C21   C     C_R   0.322575 0.374287 0.409024 0.389352
C22   C     C_R   0.308179 0.588447 0.405720 0.232748
C23   C     C_R   0.822621 0.874221 0.409030 0.389330
C24   C     C_R   0.808177 0.088412 0.405729 0.232702
N21   N     N_R   0.374220 0.422390 0.443390 -0.105359
N22   N     N_R   0.374220 0.577610 0.443390 -0.100970
N23   N     N_R   0.874220 0.922390 0.443390 -0.105416
N24   N     N_R   0.874220 0.077610 0.443390 -0.100977
C25   C     C_R   0.578307 0.398816 0.805268 0.280370
C26   C     C_R   0.558331 0.641485 0.753730 0.343850
C27   C     C_R   0.078313 0.898865 0.805293 0.280043
C28   C     C_R   0.058338 0.141478 0.753747 0.343820
N25   N     N_R   0.555000 0.424040 0.705410 -0.107297
N26   N     N_R   0.555000 0.575960 0.705410 -0.104542
N27   N     N_R   0.055000 0.924040 0.705410 -0.107264
N28   N     N_R   0.055000 0.075960 0.705410 -0.104524
C29   C     C_R   0.423070 0.395438 0.194791 0.280743
C30   C     C_R   0.441772 0.642616 0.243387 0.362845
C31   C     C_R   0.923068 0.895435 0.194790 0.280723
C32   C     C_R   0.941741 0.142584 0.243303 0.363101
N29   N     N_R   0.446630 0.421450 0.294590 -0.109115
N30   N     N_R   0.446630 0.578550 0.294590 -0.108122
N31   N     N_R   0.946630 0.921450 0.294590 -0.109053
N32   N     N_R   0.946630 0.078550 0.294590 -0.108172
C33   C     C_R   0.351609 0.379429 0.129707 -0.056074
C34   C     C_R   0.386043 0.686693 0.218576 -0.042492
C35   C     C_R   0.851606 0.879429 0.129706 -0.056076
C36   C     C_R   0.886006 0.186659 0.218485 -0.042410
C37   C     C_R   0.650024 0.384228 0.871889 -0.053590
C38   C     C_R   0.613718 0.684640 0.779177 -0.051802
C39   C     C_R   0.150028 0.884244 0.871901 -0.053670
C40   C     C_R   0.113732 0.184629 0.779206 -0.051747
C41   C     C_R   0.643296 0.314064 0.502848 -0.078924
C42   C     C_R   0.689621 0.605890 0.506383 0.028798
C43   C     C_R   0.143307 0.814081 0.502861 -0.078145
C44   C     C_R   0.189606 0.105995 0.506419 0.028133
C45   C     C_R   0.338002 0.341930 0.503673 -0.087434
C46   C     C_R   0.311202 0.598175 0.496100 0.028940
C47   C     C_R   0.838106 0.841773 0.503682 -0.087511
C48   C     C_R   0.811198 0.098125 0.496111 0.029099
Ni1   Ni    Ni4+2 0.382890 0.500000 0.370170 0.303285
Ni2   Ni    Ni4+2 0.882890 0.000000 0.370170 0.303271
Ni3   Ni    Ni4+2 0.618740 0.500000 0.629830 0.318411
Ni4   Ni    Ni4+2 0.118740 0.000000 0.629830 0.318422
Ni5   Ni    Ni4+2 0.514090 0.500000 0.370170 0.328974
Ni6   Ni    Ni4+2 0.014090 0.000000 0.370170 0.329045
Ni7   Ni    Ni4+2 0.487550 0.500000 0.629830 0.301948
Ni8   Ni    Ni4+2 0.987550 0.000000 0.629830 0.302068
C49   C     C_3   0.338384 0.253094 0.631459 0.173031
C50   C     C_3   0.282040 0.650198 0.612224 0.167056
C51   C     C_3   0.838701 0.752583 0.631387 0.172325
C52   C     C_3   0.782007 0.150130 0.612218 0.167315
C53   C     C_3   0.796683 0.689441 0.630875 -0.402412
C54   C     C_3   0.737551 0.210673 0.614001 -0.378233
C55   C     C_3   0.296379 0.189937 0.630964 -0.403268
C56   C     C_3   0.237581 0.710726 0.614014 -0.378406
H9    H     H_    0.279268 0.206804 0.678834 0.221945
H10   H     H_    0.207630 0.685482 0.637203 0.268796
H11   H     H_    0.779852 0.706189 0.679174 0.222262
H12   H     H_    0.707605 0.185461 0.637209 0.268938
C57   C     C_3   0.223288 0.307193 0.452816 -0.354298
C58   C     C_3   0.182448 0.634872 0.402935 -0.331288
C59   C     C_3   0.723533 0.807202 0.453460 -0.354372
C60   C     C_3   0.682441 0.134825 0.402927 -0.331013
C61   C     C_3   0.294029 0.212739 0.439288 -0.546345
C62   C     C_3   0.277405 0.730669 0.473921 -0.604756
C63   C     C_3   0.793674 0.712761 0.438626 -0.545812
C64   C     C_3   0.777405 0.230611 0.473940 -0.604888
C65   C     C_3   0.299504 0.280855 0.508556 0.041169
C66   C     C_3   0.262984 0.650447 0.495909 0.049252
C67   C     C_3   0.799600 0.780687 0.508551 0.041037
C68   C     C_3   0.762974 0.150391 0.495916 0.049012
H13   H     H_    0.344781 0.202370 0.456381 0.243280
H14   H     H_    0.335091 0.741721 0.533541 0.240725
H15   H     H_    0.844223 0.702380 0.455091 0.243699
H16   H     H_    0.835095 0.241645 0.533522 0.240713
C69   C     C_3   0.732369 0.666458 0.508715 -0.166867
C70   C     C_3   0.686578 0.254028 0.500546 -0.147308
C71   C     C_3   0.232328 0.166614 0.508802 -0.166547
C72   C     C_3   0.186585 0.754061 0.500547 -0.147316
C73   C     C_3   0.682787 0.740024 0.449589 0.163654
C74   C     C_3   0.637260 0.192797 0.409624 0.152637
C75   C     C_3   0.182606 0.240027 0.449126 0.163695
C76   C     C_3   0.137271 0.692787 0.409726 0.152750
C77   C     C_3   0.764160 0.640413 0.451094 0.475763
C78   C     C_3   0.733332 0.293327 0.476130 0.498362
C79   C     C_3   0.264477 0.140441 0.451779 0.476205
C80   C     C_3   0.233291 0.793367 0.476045 0.498262
H17   H     H_    0.195434 0.326558 0.366106 0.211652
H18   H     H_    0.167789 0.642108 0.319860 0.209817
H19   H     H_    0.695542 0.826904 0.366841 0.211670
H20   H     H_    0.667794 0.141993 0.319854 0.209761
H21   H     H_    0.640386 0.727281 0.360206 0.178499
H22   H     H_    0.600132 0.220704 0.326961 0.148641
H23   H     H_    0.140316 0.227070 0.359788 0.178400
H24   H     H_    0.100025 0.720618 0.327020 0.148452
C81   C     C_2   0.697787 0.359143 0.989175 -0.053793
C82   C     C_2   0.639405 0.755977 0.842369 -0.043818
C83   C     C_2   0.197792 0.859109 0.989166 -0.053552
C84   C     C_2   0.139423 0.255962 0.842406 -0.043785
C85   C     C_2   0.767611 0.353032 0.047873 -0.072431
C86   C     C_2   0.693307 0.793419 0.862193 -0.074371
C87   C     C_2   0.267622 0.853037 0.047897 -0.072413
C88   C     C_2   0.193313 0.293415 0.862204 -0.074412
H25   H     H_    0.376136 0.772823 0.107765 0.198023
H26   H     H_    0.326318 0.326763 0.979555 0.198025
H27   H     H_    0.876039 0.272751 0.107582 0.198045
H28   H     H_    0.826315 0.826740 0.979566 0.198066
C89   C     C_2   0.359195 0.757943 0.154604 -0.030580
C90   C     C_2   0.303568 0.352141 0.013669 -0.046137
C91   C     C_2   0.859139 0.257894 0.154484 -0.030501
C92   C     C_2   0.803565 0.852131 0.013673 -0.046137
C93   C     C_2   0.308223 0.799172 0.140868 -0.107392
C94   C     C_2   0.233947 0.345658 0.956613 -0.082037
C95   C     C_2   0.808207 0.299156 0.140825 -0.107410
C96   C     C_2   0.733943 0.845657 0.956609 -0.082098
H29   H     H_    0.674923 0.333780 0.022477 0.197661
H30   H     H_    0.619531 0.772941 0.884757 0.197198
H31   H     H_    0.174927 0.833673 0.022424 0.197569
H32   H     H_    0.119558 0.272919 0.884810 0.197173
H33   H     H_    0.390177 0.228256 0.662938 0.137609
H34   H     H_    0.338172 0.667755 0.676133 0.139692
H35   H     H_    0.890362 0.727653 0.662374 0.137424
H36   H     H_    0.838140 0.167674 0.676149 0.139643
H37   H     H_    0.834360 0.641903 0.678270 0.235133
H38   H     H_    0.776756 0.249463 0.681563 0.238529
H39   H     H_    0.334133 0.142533 0.678827 0.235140
H40   H     H_    0.276784 0.749524 0.681561 0.238632
H41   H     H_    0.222117 0.357582 0.494173 0.268660
H42   H     H_    0.169386 0.575701 0.406864 0.263713
H43   H     H_    0.722655 0.857424 0.495368 0.268819
H44   H     H_    0.669369 0.075677 0.406948 0.263611
N33   N     N_R   0.646930 0.762248 0.493566 0.253326
O1    O     O_R   0.578252 0.760148 0.428745 -0.352996
O2    O     O_R   0.681607 0.790438 0.592921 -0.348620
N34   N     N_R   0.592793 0.155251 0.428637 0.260653
O3    O     O_R   0.526774 0.176020 0.370103 -0.344077
O4    O     O_R   0.616245 0.097599 0.496366 -0.299876
N35   N     N_R   0.146550 0.262386 0.492734 0.253343
O5    O     O_R   0.077879 0.259985 0.427794 -0.353311
O6    O     O_R   0.181006 0.291035 0.591779 -0.347704
N36   N     N_R   0.092961 0.655225 0.429049 0.260682
O7    O     O_R   0.027226 0.676701 0.371864 -0.344591
O8    O     O_R   0.116311 0.597190 0.496116 -0.299416
H45   H     H_    0.755538 0.728833 0.350222 0.262524
H46   H     H_    0.765367 0.230846 0.392172 0.208538
H47   H     H_    0.256125 0.228560 0.350771 0.262503
H48   H     H_    0.265387 0.730903 0.392167 0.208476
N37   N     N_R   0.822317 0.583917 0.522250 0.256184
O9    O     O_R   0.807690 0.514951 0.529159 -0.216331
O10   O     O_R   0.888622 0.600573 0.577909 -0.358468
N38   N     N_R   0.781392 0.348894 0.565487 0.261464
O11   O     O_R   0.755654 0.412398 0.569132 -0.289239
O12   O     O_R   0.847421 0.332695 0.649040 -0.290320
N39   N     N_R   0.322692 0.084088 0.523439 0.256306
O13   O     O_R   0.308102 0.014953 0.529759 -0.215592
O14   O     O_R   0.389036 0.101053 0.580167 -0.359002
N40   N     N_R   0.281303 0.849004 0.565314 0.261478
O15   O     O_R   0.255511 0.912512 0.568837 -0.289575
O16   O     O_R   0.347335 0.832862 0.648917 -0.290146
N41   N     N_R   0.710330 0.607022 0.338682 0.229632
O17   O     O_R   0.655882 0.646929 0.257993 -0.350786
O18   O     O_R   0.724011 0.543713 0.312039 -0.226751
N42   N     N_R   0.688635 0.333097 0.366236 0.224611
O19   O     O_R   0.651879 0.295115 0.273302 -0.386477
O20   O     O_R   0.690844 0.406499 0.359732 -0.240149
N43   N     N_R   0.210901 0.106837 0.339428 0.229864
O21   O     O_R   0.156394 0.146553 0.258502 -0.351140
O22   O     O_R   0.224978 0.043696 0.313049 -0.226951
N44   N     N_R   0.188555 0.833063 0.366095 0.224582
O23   O     O_R   0.151732 0.795011 0.273222 -0.386534
O24   O     O_R   0.190840 0.906443 0.359470 -0.240095
H49   H     H_    0.288917 0.784709 0.184444 0.152400
H50   H     H_    0.209212 0.368096 0.989062 0.165692
H51   H     H_    0.788932 0.284720 0.184456 0.152428
H52   H     H_    0.709205 0.868104 0.989050 0.165711
H53   H     H_    0.792394 0.375335 0.016034 0.164442
H54   H     H_    0.714599 0.776895 0.821884 0.168247
H55   H     H_    0.292416 0.875387 0.016100 0.164451
H56   H     H_    0.214594 0.276900 0.821875 0.167852
H57   H     H_    0.562476 0.340686 0.324369 0.176384
H58   H     H_    0.599657 0.591468 0.328221 0.225887
H59   H     H_    0.062472 0.840670 0.324383 0.176324
H60   H     H_    0.099668 0.091573 0.328232 0.225669
H61   H     H_    0.429753 0.361201 0.680883 0.187254
H62   H     H_    0.402348 0.581939 0.672649 0.210902
H63   H     H_    0.929930 0.861006 0.680879 0.187205
H64   H     H_    0.902354 0.081934 0.672658 0.210975
N45   N     N_R   0.720709 0.341188 0.708810 0.195993
O25   O     O_R   0.717323 0.283839 0.757434 -0.425770
O26   O     O_R   0.777887 0.381453 0.764164 -0.279503
N46   N     N_R   0.753580 0.557157 0.699505 0.234257
O27   O     O_R   0.805705 0.528130 0.708296 -0.251651
O28   O     O_R   0.751073 0.541832 0.777972 -0.409625
N47   N     N_R   0.220748 0.841234 0.708819 0.195981
O29   O     O_R   0.217410 0.783885 0.757496 -0.425739
O30   O     O_R   0.277911 0.881520 0.764108 -0.279387
N48   N     N_R   0.253588 0.057194 0.699489 0.234309
O31   O     O_R   0.305735 0.028264 0.708258 -0.251335
O32   O     O_R   0.251092 0.041788 0.777947 -0.409498
N49   N     N_R   0.271539 0.348925 0.296572 0.201099
O33   O     O_R   0.207947 0.377935 0.231204 -0.308351
O34   O     O_R   0.287505 0.293167 0.260889 -0.417588
N50   N     N_R   0.248563 0.554813 0.303125 0.233556
O35   O     O_R   0.248095 0.547057 0.220084 -0.399640
O36   O     O_R   0.202975 0.516497 0.300933 -0.355073
N51   N     N_R   0.771567 0.848915 0.296557 0.201133
O37   O     O_R   0.707889 0.877710 0.231397 -0.308241
O38   O     O_R   0.787500 0.793140 0.260849 -0.417685
N52   N     N_R   0.748574 0.054749 0.303151 0.233519
O39   O     O_R   0.748099 0.047005 0.220102 -0.399738
O40   O     O_R   0.703004 0.016410 0.300981 -0.354982
N53   N     N_R   0.542440 0.415112 0.847858 0.243105
O41   O     O_R   0.555043 0.374873 0.928488 -0.284580
O42   O     O_R   0.495668 0.469810 0.804576 -0.342787
N54   N     N_R   0.515951 0.660663 0.783461 0.214297
O43   O     O_R   0.521417 0.619944 0.857768 -0.276601
O44   O     O_R   0.485398 0.727248 0.757061 -0.355742
N55   N     N_R   0.042460 0.915267 0.847890 0.243342
O45   O     O_R   0.055336 0.875383 0.928992 -0.283922
O46   O     O_R   0.995514 0.969800 0.804279 -0.343047
N56   N     N_R   0.015970 0.160642 0.783506 0.214302
O47   O     O_R   0.021430 0.119894 0.857784 -0.276640
O48   O     O_R   0.985433 0.227233 0.757156 -0.355650
N57   N     N_R   0.459279 0.408584 0.152239 0.245958
O49   O     O_R   0.512219 0.454956 0.203388 -0.319147
O50   O     O_R   0.442513 0.371693 0.066168 -0.287452
N58   N     N_R   0.477301 0.654843 0.200028 0.221829
O51   O     O_R   0.497391 0.722658 0.199475 -0.338958
O52   O     O_R   0.476859 0.601938 0.141384 -0.274145
N59   N     N_R   0.959285 0.908558 0.152244 0.245977
O53   O     O_R   0.012270 0.954870 0.203443 -0.319102
O54   O     O_R   0.942477 0.871704 0.066119 -0.287447
N60   N     N_R   0.977198 0.154735 0.199804 0.221865
O55   O     O_R   0.997157 0.222548 0.198926 -0.338792
O56   O     O_R   0.976813 0.101720 0.141344 -0.274344
N61   N     N_R   0.353996 0.312116 0.711512 0.245846
O57   O     O_R   0.412667 0.306758 0.814137 -0.280382
O58   O     O_R   0.306476 0.361360 0.688507 -0.263219
N62   N     N_R   0.275726 0.575609 0.647294 0.279286
O59   O     O_R   0.258856 0.514846 0.587497 -0.323599
O60   O     O_R   0.295119 0.568385 0.746275 -0.257202
N63   N     N_R   0.854663 0.811363 0.711947 0.245814
O61   O     O_R   0.913505 0.805754 0.814373 -0.280962
O62   O     O_R   0.807302 0.860579 0.689637 -0.263559
N64   N     N_R   0.775672 0.075540 0.647264 0.279276
O63   O     O_R   0.758915 0.014752 0.587556 -0.324267
O64   O     O_R   0.794987 0.068335 0.746196 -0.257314

loop_
_geom_bond_atom_site_label_1
_geom_bond_atom_site_label_2
_geom_bond_distance
_ccdc_geom_bond_type
C35   C92   1.474399 S    
C26   N26   1.349662 A    
C87   H55   1.084295 S    
N39   O13   1.295270 A    
N51   O38   1.302213 A    
C36   C91   1.466623 S    
C53   H11   1.108234 S    
N36   O7    1.301357 A    
C86   H54   1.085287 S    
C76   N36   1.472513 S    
C41   C70   1.508140 S    
C52   H36   1.113886 S    
C19   C43   1.394332 A    
N19   Ni4   1.865668 S    
C6    H6    1.077519 S    
C30   N58   1.430075 S    
N63   O61   1.301325 A    
C18   C42   1.377954 A    
C43   C72   1.507968 S    
C4    H4    1.078443 S    
C23   N51   1.428670 S    
C58   C66   1.559779 S    
N45   O25   1.302422 A    
C56   H10   1.108824 S    
C75   H23   1.106285 S    
C56   H40   1.102328 S    
N31   Ni6   1.895477 S    
C81   H29   1.084262 S    
N33   O1    1.300644 A    
C10   H58   1.073200 S    
C7    H7    1.075013 S    
N39   O14   1.302800 A    
C25   N53   1.434417 S    
N49   O33   1.299210 A    
C22   N22   1.339590 A    
C62   H48   1.112659 S    
C1    H1    1.076929 S    
C92   C96   1.338465 D    
N4    Ni2   1.898388 S    
C8    H8    1.077522 S    
N63   O62   1.298916 A    
C71   C79   1.591292 S    
H26   C90   1.083898 S    
N23   Ni2   1.887578 S    
C3    H3    1.076956 S    
N43   O22   1.301581 A    
C14   C46   1.381404 A    
N64   O63   1.301306 A    
C77   N37   1.484978 S    
N3    N31   1.410405 A    
C12   C44   1.386017 A    
C70   C74   1.568502 S    
N47   O29   1.302424 A    
C30   C34   1.388841 A    
N45   O26   1.300425 A    
C72   C76   1.568360 S    
N56   O48   1.300690 A    
C77   N41   1.487205 S    
N34   O3    1.301323 A    
N13   Ni7   1.875405 S    
C59   C67   1.543055 S    
C18   N18   1.329736 A    
N37   O10   1.302931 A    
C13   C45   1.377195 A    
C11   N11   1.339675 A    
C20   C44   1.377700 A    
N57   O50   1.299856 A    
C82   C86   1.337297 D    
C64   C78   1.553959 S    
C53   H37   1.101220 S    
C59   C73   1.537331 S    
C79   N43   1.487275 S    
C94   H50   1.084109 S    
N2    Ni1   1.898388 S    
N34   O4    1.301778 A    
N54   O43   1.299533 A    
N16   N24   1.357919 A    
C93   H49   1.085811 S    
N14   Ni7   1.851196 S    
C57   C75   1.537237 S    
N17   Ni3   1.865668 S    
C53   C69   1.564231 S    
N6    Ni3   1.853254 S    
C58   C76   1.552681 S    
C85   C95   1.460937 S    
C10   C42   1.385977 A    
C48   C68   1.491745 S    
C88   C94   1.463041 S    
C3    C35   1.383560 A    
N12   Ni6   1.884424 S    
C12   H60   1.073271 S    
N5    N25   1.410405 A    
C2    C34   1.393177 A    
C20   N48   1.443126 S    
C60   H44   1.107595 S    
N64   O64   1.301294 A    
C64   H46   1.112630 S    
C44   C71   1.492723 S    
N7    N27   1.410405 A    
C82   H30   1.086855 S    
C24   N52   1.438653 S    
C76   H24   1.107041 S    
C8    N8    1.342727 A    
C49   C65   1.576479 S    
C88   H56   1.085295 S    
N26   Ni7   1.861983 S    
C59   H43   1.106003 S    
N46   O28   1.298633 A    
N12   N20   1.357919 A    
C2    H2    1.078426 S    
C26   C38   1.387890 A    
C15   C47   1.377269 A    
N16   Ni8   1.851196 S    
C51   N63   1.474497 S    
N8    Ni4   1.853254 S    
C55   H39   1.101204 S    
N9    Ni5   1.860116 S    
C50   N62   1.473342 S    
C50   C66   1.560771 S    
C32   N60   1.430130 S    
N33   O2    1.300046 A    
C9    N9    1.339726 A    
N8    N28   1.410405 A    
N48   O32   1.298631 A    
C95   H51   1.085814 S    
N49   O34   1.302214 A    
C63   H15   1.111214 S    
C29   N57   1.437244 S    
N13   N21   1.358030 A    
C80   N40   1.484395 S    
C25   C37   1.378758 A    
C12   N12   1.333846 A    
N30   Ni5   1.871414 S    
C1    N1    1.338930 A    
C55   C71   1.564358 S    
N28   Ni8   1.861983 S    
N22   Ni1   1.874690 S    
C52   N64   1.473396 S    
C29   C33   1.387612 A    
C27   C39   1.378830 A    
C62   C80   1.553947 S    
C60   C68   1.559738 S    
C18   N46   1.443180 S    
N40   O15   1.296624 A    
N38   O11   1.296563 A    
N15   N23   1.358030 A    
C17   N45   1.426896 S    
N18   Ni3   1.878498 S    
C63   C77   1.548638 S    
C23   N23   1.330935 A    
C19   N47   1.426879 S    
H27   C91   1.085823 S    
C33   C90   1.474396 S    
C16   C48   1.381388 A    
C64   C68   1.553426 S    
N9    N17   1.358030 A    
C8    C40   1.387811 A    
C62   H14   1.109764 S    
C57   C65   1.543081 S    
C22   C46   1.377813 A    
C15   N15   1.316699 A    
N43   O21   1.301903 A    
C42   C69   1.492857 S    
C47   C67   1.477829 S    
N61   O57   1.301302 A    
C13   H61   1.066670 S    
C21   C45   1.393667 A    
C6    C38   1.387801 A    
N6    N26   1.410405 A    
C96   H52   1.084110 S    
N50   O36   1.300000 A    
N44   O24   1.300667 A    
N41   O17   1.301949 A    
N14   N22   1.357919 A    
C16   N16   1.329132 A    
C32   N32   1.345244 A    
C17   C41   1.394404 A    
N59   O53   1.299849 A    
C52   C54   1.531166 S    
N57   O49   1.299854 A    
N60   O55   1.300292 A    
C5    N5    1.343125 A    
C55   H9    1.108182 S    
C49   C55   1.525935 S    
C32   C36   1.388912 A    
N58   O51   1.300297 A    
C59   H19   1.109269 S    
C54   H12   1.108704 S    
C28   N56   1.426951 S    
C62   C66   1.553437 S    
C83   H31   1.084250 S    
N60   O56   1.299089 A    
C14   H62   1.076882 S    
C61   C65   1.559746 S    
N2    N30   1.410405 A    
C58   H18   1.110903 S    
N38   O12   1.302756 A    
C51   C53   1.525822 S    
C78   N42   1.489400 S    
N42   O20   1.300627 A    
C10   N10   1.333820 A    
C63   C67   1.559862 S    
C46   C66   1.491736 S    
C5    C37   1.382017 A    
N21   Ni1   1.887578 S    
C84   H32   1.086855 S    
C91   C95   1.334822 D    
C45   C65   1.477640 S    
C31   C35   1.387626 A    
N11   N19   1.358030 A    
C38   C82   1.469144 S    
C31   N59   1.437267 S    
N51   O37   1.299223 A    
C2    N2    1.343395 A    
C89   C93   1.334814 D    
N52   O40   1.300015 A    
C22   N50   1.438660 S    
C24   N24   1.339611 A    
N53   O42   1.299152 A    
N5    Ni3   1.865270 S    
C15   H63   1.066564 S    
C69   C77   1.591377 S    
N7    Ni4   1.865270 S    
C73   N33   1.475943 S    
N48   O31   1.298992 A    
C28   C40   1.387907 A    
C80   N44   1.489383 S    
N36   O8    1.301776 A    
C64   H16   1.109753 S    
C34   C89   1.466666 S    
C26   N54   1.426951 S    
C14   N14   1.329108 A    
C74   H22   1.106983 S    
C27   N27   1.347664 A    
N10   Ni5   1.884424 S    
N10   N18   1.357919 A    
C52   C68   1.560819 S    
C63   H45   1.097061 S    
C84   C88   1.337302 D    
N58   O52   1.299107 A    
C54   C70   1.560399 S    
C9    C41   1.389937 A    
C49   N61   1.474474 S    
C79   N39   1.485085 S    
N55   O45   1.299994 A    
N25   Ni7   1.838301 S    
C25   N25   1.347639 A    
C54   H38   1.102348 S    
H28   C92   1.083895 S    
C7    C39   1.382038 A    
N1    Ni1   1.886183 S    
C16   H64   1.076857 S    
N11   Ni6   1.860116 S    
C86   C96   1.463048 S    
C23   C47   1.393753 A    
N29   Ni5   1.895477 S    
C5    H5    1.075017 S    
C28   N28   1.349645 A    
C57   H17   1.109204 S    
C1    C33   1.383565 A    
N62   O59   1.301273 A    
C6    N6    1.342743 A    
C71   C75   1.594325 S    
C11   C43   1.389875 A    
N52   O39   1.298888 A    
C49   H33   1.114947 S    
N32   Ni6   1.871414 S    
N35   O5    1.300633 A    
N61   O58   1.298764 A    
C17   N17   1.337318 A    
C78   N38   1.484409 S    
C61   H47   1.096987 S    
N1    N29   1.410405 A    
N3    Ni2   1.886183 S    
C87   C93   1.460973 S    
N44   O23   1.302266 A    
C30   N30   1.345240 A    
C37   C81   1.472316 S    
C19   N19   1.337237 A    
C61   H13   1.111258 S    
C29   N29   1.349283 A    
C85   H53   1.084287 S    
N27   Ni8   1.838301 S    
C7    N7    1.343146 A    
N46   O27   1.298964 A    
N41   O18   1.301629 A    
C9    H57   1.074178 S    
C60   H20   1.110879 S    
N24   Ni2   1.874690 S    
C39   C83   1.472341 S    
C31   N31   1.349303 A    
C56   C72   1.560373 S    
N59   O54   1.299857 A    
H25   C89   1.085840 S    
N37   O9    1.295220 A    
N4    N32   1.410405 A    
C24   C48   1.377858 A    
C13   N13   1.316716 A    
N15   Ni8   1.875405 S    
C4    C36   1.393174 A    
C21   N21   1.330950 A    
C3    N3    1.338938 A    
N20   Ni4   1.878498 S    
C90   C94   1.338464 D    
C51   C67   1.576511 S    
C11   H59   1.074157 S    
C50   H34   1.113891 S    
C69   C73   1.594354 S    
C40   C84   1.469128 S    
C73   H21   1.106318 S    
N42   O19   1.302285 A    
C70   C78   1.594918 S    
N54   O44   1.300693 A    
C72   C80   1.594901 S    
C61   C79   1.548606 S    
C83   C87   1.335287 D    
N53   O41   1.299971 A    
C57   H41   1.106006 S    
C58   H42   1.107525 S    
N56   O47   1.299535 A    
C74   N34   1.472489 S    
N47   O30   1.300422 A    
C21   N49   1.428713 S    
C60   C74   1.552615 S    
C4    N4    1.343359 A    
N40   O16   1.302749 A    
N55   O46   1.299139 A    
N35   O6    1.300012 A    
C50   C56   1.531088 S    
C27   N55   1.434544 S    
C81   C85   1.335272 D    
C20   N20   1.329663 A    
C51   H35   1.115038 S    
N62   O60   1.301301 A    
N50   O35   1.298889 A    
C75   N35   1.476032 S    
