data_mof_unit_9399.cif
_audit_creation_date              2012-12-10T17:30:27-0500
_audit_creation_method            fapswitch 2.2
_symmetry_space_group_name_H-M    P1
_symmetry_Int_Tables_number       1
_space_group_crystal_system       triclinic
_cell_length_a                    11.966506
_cell_length_b                    12.892661
_cell_length_c                    15.018775
_cell_angle_alpha                 90.161055
_cell_angle_beta                  86.289899
_cell_angle_gamma                 93.187856
_cell_volume                      2308.66332677

loop_
_atom_site_label
_atom_site_type_symbol
_atom_type_description
_atom_site_fract_x
_atom_site_fract_y
_atom_site_fract_z
_atom_type_partial_charge
C1    C     C_R   0.521923 0.700502 0.499197 0.888841
C2    C     C_R   0.359875 0.137514 0.521118 -0.205401
C3    C     C_R   0.439082 0.867717 0.514915 -0.280249
C4    C     C_R   0.560924 0.132278 0.485145 -0.280251
C5    C     C_R   0.447115 0.974312 0.510277 0.187299
C6    C     C_R   0.552892 0.025683 0.489790 0.187370
C7    C     C_R   0.956037 0.408964 0.411756 -0.344010
C8    C     C_R   0.043966 0.591166 0.588143 -0.348974
C9    C     C_R   0.839384 0.416938 0.420691 0.015068
C10   C     C_R   0.160617 0.583149 0.579242 0.014644
C11   C     C_R   0.857365 0.538207 0.538705 -0.056712
C12   C     C_R   0.478077 0.299497 0.500813 0.889475
C13   C     C_R   0.142629 0.461766 0.461323 -0.056988
C14   C     C_R   0.975090 0.532816 0.532202 0.101609
C15   C     C_R   0.024906 0.467215 0.467784 0.096747
C16   C     C_R   0.500345 0.500819 0.673428 0.895377
C17   C     C_R   0.499778 0.499977 0.326556 0.894571
C18   C     C_R   0.400804 0.516619 0.190123 -0.245701
C19   C     C_R   0.600698 0.492401 0.809889 -0.240687
C20   C     C_R   0.500097 0.501827 0.230668 -0.075544
C21   C     C_R   0.500805 0.503707 0.769263 -0.076916
C22   C     C_R   0.600566 0.490134 0.179937 -0.267438
C23   C     C_R   0.701983 0.483468 0.941892 -0.268869
C24   C     C_R   0.400972 0.518505 0.819871 -0.275516
C25   C     C_R   0.603914 0.494281 0.087285 0.082318
C26   C     C_R   0.398711 0.520077 0.912634 0.091609
C27   C     C_R   0.501934 0.507126 0.046303 0.021518
C28   C     C_R   0.500613 0.507434 0.953659 0.028070
C29   C     C_R   0.400830 0.518932 0.098156 0.104867
C30   C     C_R   0.601375 0.494337 0.901824 0.092956
C31   C     C_R   0.705523 0.484829 0.034496 0.165867
C32   C     C_R   0.297910 0.533748 0.965354 0.099544
C33   C     C_3   0.819108 0.477514 0.073339 -0.426313
C34   C     C_R   0.300688 0.532758 0.058009 -0.261875
C35   C     C_3   0.863365 0.581404 0.111998 -0.342704
C36   C     C_3   0.880377 0.667239 0.041643 -0.830676
C37   C     C_3   0.186791 0.550030 0.925659 -0.430380
C38   C     C_3   0.132801 0.447159 0.892995 -0.330365
C39   C     C_3   0.037884 0.466182 0.832994 -0.909962
C40   C     C_R   0.465117 0.188207 0.501710 -0.053861
C41   C     C_R   0.534885 0.811789 0.498328 -0.053087
C42   C     C_R   0.649118 0.969823 0.474630 -0.222933
C43   C     C_R   0.350888 0.030173 0.525433 -0.223179
C44   C     C_R   0.640128 0.862482 0.478926 -0.205378
H1    H     H_    0.323207 0.526061 0.230075 0.158306
H2    H     H_    0.357649 0.828555 0.530835 0.159078
H3    H     H_    0.285348 0.180597 0.534000 0.163394
H4    H     H_    0.714653 0.819399 0.466032 0.162594
H5    H     H_    0.730555 0.008947 0.459092 0.138205
H6    H     H_    0.269452 0.991049 0.540971 0.138373
H7    H     H_    0.182486 0.411516 0.412448 0.123461
H8    H     H_    0.817506 0.588417 0.587615 0.124813
H9    H     H_    0.213682 0.627793 0.622656 0.125919
H10   H     H_    0.786300 0.372275 0.377307 0.125357
H11   H     H_    0.935762 0.642401 0.984397 0.247545
H12   H     H_    0.678104 0.481703 0.770031 0.160415
H13   H     H_    0.798593 0.687300 0.017321 0.268438
H14   H     H_    0.919995 0.737890 0.071495 0.236784
H15   H     H_    0.805639 0.607681 0.167254 0.223835
H16   H     H_    0.945324 0.569466 0.140186 0.202916
H17   H     H_    0.814280 0.416096 0.125324 0.157336
H18   H     H_    0.882554 0.452152 0.021584 0.199991
H19   H     H_    0.975332 0.515007 0.867732 0.254385
H20   H     H_    0.071830 0.506006 0.770758 0.268592
H21   H     H_    0.995596 0.390876 0.815069 0.253981
H22   H     H_    0.195557 0.401125 0.855003 0.229916
H23   H     H_    0.991929 0.357936 0.361507 0.141324
H24   H     H_    0.098938 0.400175 0.951632 0.216528
H25   H     H_    0.127305 0.583666 0.976321 0.196785
H26   H     H_    0.198860 0.608578 0.871249 0.197679
H27   H     H_    0.008075 0.642188 0.638400 0.144297
H28   H     H_    0.675539 0.477016 0.213616 0.162715
H29   H     H_    0.325328 0.528051 0.785968 0.175808
H30   H     H_    0.778440 0.474901 0.900454 0.146745
H31   H     H_    0.224035 0.542059 0.099233 0.140676
H32   H     H_    0.642358 0.171438 0.469226 0.159150
N1    N     N_R   0.207800 0.519350 0.516680 -0.098620
N2    N     N_R   0.792200 0.480650 0.483320 -0.100638
O1    O     O_R   0.421700 0.658830 0.504450 -0.627655
O2    O     O_R   0.578300 0.341170 0.495550 -0.627093
O3    O     O_R   0.609310 0.646410 0.493750 -0.627704
O4    O     O_R   0.390690 0.353590 0.506250 -0.626628
O5    O     O_R   0.406180 0.506230 0.637500 -0.632292
O6    O     O_R   0.593820 0.493770 0.362500 -0.634528
O7    O     O_R   0.593800 0.493820 0.626800 -0.627630
O8    O     O_R   0.406200 0.506180 0.373200 -0.628078
Zn1   Zn    Zn3+2 0.374730 0.508290 0.507150 0.941729
Zn2   Zn    Zn3+2 0.625270 0.491710 0.492850 0.940019

loop_
_geom_bond_atom_site_label_1
_geom_bond_atom_site_label_2
_ccdc_geom_bond_type
C19   H12   S    
C25   C31   A    
O5    Zn1   S    
C26   C32   A    
C16   C21   S    
C37   H25   S    
C27   C29   A    
C35   C36   S    
O1    Zn1   S    
C39   H20   S    
C19   C21   A    
C24   C26   A    
C36   H14   S    
C5    C6    A    
C11   C14   A    
C24   H29   S    
C1    O3    A    
O4    Zn1   S    
C17   C20   S    
C35   H15   S    
C10   H9    S    
C11   H8    S    
C13   H7    S    
C4    C40   A    
C33   H18   S    
C22   C25   A    
C31   C33   S    
C34   H31   S    
C7    C15   A    
C5    C43   A    
C37   H26   S    
C39   H21   S    
C42   C44   A    
C22   H28   S    
C10   N1    A    
C13   N1    A    
C17   O8    A    
C23   C30   A    
C38   H22   S    
C4    C6    A    
C36   H13   S    
O8    Zn1   S    
C29   C34   A    
C16   O5    A    
C35   H16   S    
C23   C31   A    
C12   C40   S    
C37   C38   S    
C11   N2    A    
C2    C43   A    
C12   O4    A    
C18   C29   A    
C32   C37   S    
C1    C41   S    
C38   H24   S    
C13   C15   A    
C16   O7    A    
C1    O1    A    
C41   C44   A    
C23   H30   S    
C18   H1    S    
O7    Zn2   S    
N2    Zn2   S    
C7    C9    A    
C3    C41   A    
C8    H27   S    
C8    C14   A    
O6    Zn2   S    
C20   C22   A    
C3    C5    A    
C43   H6    S    
C2    H3    S    
C25   C27   A    
C39   H19   S    
C3    H2    S    
C26   C28   A    
C17   O6    A    
C28   C30   A    
O2    Zn2   S    
C36   H11   S    
C38   C39   S    
C33   H17   S    
C12   O2    A    
C33   C35   S    
C18   C20   A    
C9    N2    A    
C4    H32   S    
O3    Zn2   S    
C42   H5    S    
C7    H23   S    
C2    C40   A    
N1    Zn1   S    
C8    C10   A    
C6    C42   A    
C21   C24   A    
C27   C28   A    
C14   C15   A    
C9    H10   S    
C19   C30   A    
C44   H4    S    
C32   C34   A    
