data_mof_unit_50520.cif
_audit_creation_date              2012-12-10T18:14:25-0500
_audit_creation_method            fapswitch 2.2
_symmetry_space_group_name_H-M    P1
_symmetry_Int_Tables_number       1
_space_group_crystal_system       triclinic
_cell_length_a                    12.62776
_cell_length_b                    13.186633
_cell_length_c                    18.871234
_cell_angle_alpha                 90.843189
_cell_angle_beta                  102.768932
_cell_angle_gamma                 81.835471
_cell_volume                      3033.16484547

loop_
_atom_site_label
_atom_site_type_symbol
_atom_type_description
_atom_site_fract_x
_atom_site_fract_y
_atom_site_fract_z
_atom_type_partial_charge
C1    C     C_R   0.438508 0.691081 0.492968 0.869981
C2    C     C_R   0.493093 0.529069 0.709082 -0.181584
C3    C     C_R   0.466574 0.600790 0.067352 0.288866
C4    C     C_R   0.469812 0.608077 0.924951 0.321579
C5    C     C_R   0.380046 0.583991 0.171533 -0.152310
C6    C     C_R   0.388123 0.554167 0.243090 -0.225501
C7    C     C_R   0.490419 0.514794 0.286998 -0.160223
C8    C     C_R   0.584880 0.502259 0.257189 0.451861
C9    C     C_R   0.576572 0.537431 0.186855 -0.134957
C10   C     C_R   0.474560 0.577567 0.143693 -0.005275
C11   C     C_R   0.708635 0.058939 0.594738 -0.114459
C12   C     C_R   0.499666 0.504140 0.634540 0.916097
C13   C     C_R   0.600428 0.198860 0.518833 -0.220760
C14   C     C_R   0.312320 0.829401 0.421772 -0.231031
C15   C     C_R   0.303816 0.922885 0.387087 -0.237586
C16   C     C_R   0.383287 0.988004 0.410191 0.456049
C17   C     C_R   0.462118 0.965954 0.477491 0.055633
C18   C     C_R   0.467648 0.871243 0.513115 -0.018434
C19   C     C_R   0.539122 0.031611 0.509291 0.018596
C20   C     C_R   0.626918 0.997069 0.568935 0.006297
C21   C     C_R   0.628156 0.904782 0.604811 0.440185
C22   C     C_R   0.544972 0.845698 0.578874 -0.283504
C23   C     C_R   0.561860 0.308629 0.508534 0.885122
C24   C     C_R   0.525041 0.134207 0.488398 -0.195799
C25   C     C_R   0.698629 0.158391 0.567928 0.406959
C26   C     C_R   0.399812 0.800043 0.480455 -0.076644
C27   C     C_R   0.099350 0.327442 0.416719 -0.213340
C28   C     C_R   0.798596 0.629006 0.585765 0.048543
C29   C     C_R   0.904772 0.650821 0.609318 -0.252305
C30   C     C_R   0.988003 0.597835 0.580090 -0.090954
C31   C     C_R   0.964490 0.524822 0.525165 0.024546
C32   C     C_R   0.856614 0.500512 0.507217 0.188040
C33   C     C_R   0.044040 0.471911 0.489924 -0.136286
C34   C     C_R   0.498560 0.500389 0.364929 0.841237
C35   C     C_R   0.018899 0.384750 0.447309 0.060601
C36   C     C_R   0.913336 0.357412 0.434275 0.442073
C37   C     C_R   0.832532 0.418616 0.461638 -0.301564
C38   C     C_R   0.146209 0.504331 0.491960 0.527457
C39   C     C_R   0.201906 0.357832 0.426885 -0.100925
C40   C     C_R   0.391925 0.570682 0.723488 -0.171965
C41   C     C_R   0.384565 0.606212 0.792114 0.397736
C42   C     C_R   0.479701 0.593830 0.849262 -0.102155
C43   C     C_R   0.582512 0.553249 0.834629 0.459058
C44   C     C_R   0.588215 0.522669 0.763973 -0.311580
H1    H     H_    0.779385 0.031487 0.637323 0.218216
H2    H     H_    0.542826 0.777302 0.609351 0.141319
H3    H     H_    0.265614 0.312699 0.405263 0.171278
H4    H     H_    0.083779 0.259484 0.385444 0.213072
H5    H     H_    0.733566 0.668149 0.609013 0.136336
H6    H     H_    0.070155 0.611654 0.604327 0.218705
H7    H     H_    0.314662 0.564661 0.264639 0.176780
H8    H     H_    0.649369 0.527686 0.164539 0.180854
N1    N     N_R   0.553134 0.637511 0.975808 -0.079696
N2    N     N_R   0.551813 0.633443 0.045871 -0.155602
N3    N     N_R   0.381247 0.575156 0.016475 -0.154819
N4    N     N_R   0.383137 0.578296 0.946486 -0.146019
N5    N     N_R   0.222200 0.444680 0.463280 -0.134887
N6    N     N_R   0.776960 0.554780 0.536340 -0.116736
O1    O     O_R   0.366740 0.627160 0.482470 -0.610616
O2    O     O_R   0.544830 0.662520 0.505920 -0.611007
O3    O     O_R   0.410920 0.482320 0.590130 -0.583104
O4    O     O_R   0.589010 0.517690 0.613590 -0.617355
O5    O     O_R   0.455170 0.337480 0.494080 -0.614864
O6    O     O_R   0.633260 0.372840 0.517530 -0.632648
O7    O     O_R   0.410990 0.482310 0.386410 -0.612935
O8    O     O_R   0.589080 0.517680 0.409870 -0.598772
Zn1   Zn    Zn3+2 0.381090 0.476390 0.484340 0.968825
Zn2   Zn    Zn3+2 0.618910 0.523610 0.515660 0.958451
H9    H     H_    0.318445 0.580206 0.680349 0.205293
O9    O     O_3   0.708217 0.876066 0.666747 -0.778966
H10   H     H_    0.694342 0.811478 0.686960 0.330293
H11   H     H_    0.448677 0.168551 0.454512 0.227661
H12   H     H_    0.258348 0.775427 0.397211 0.167331
O10   O     O_3   0.390851 0.065815 0.364060 -0.801585
H13   H     H_    0.330502 0.069054 0.320070 0.337146
H14   H     H_    0.241283 0.939885 0.337695 0.151747
O11   O     O_3   0.889878 0.272634 0.392862 -0.753119
H15   H     H_    0.813341 0.261768 0.391477 0.329250
O12   O     O_3   0.283347 0.652992 0.800725 -0.739707
H16   H     H_    0.294300 0.700353 0.842071 0.342864
O13   O     O_3   0.166807 0.599403 0.516265 -0.784953
H17   H     H_    0.175798 0.636601 0.473276 0.343752
H18   H     H_    0.922918 0.706851 0.651135 0.189524
H19   H     H_    0.751481 0.399722 0.447641 0.194599
O14   O     O_3   0.675344 0.540431 0.890310 -0.733286
H20   H     H_    0.739479 0.510710 0.870741 0.341972
H21   H     H_    0.666594 0.492047 0.752103 0.175233
H22   H     H_    0.300414 0.613538 0.138286 0.165795
O15   O     O_3   0.685296 0.453594 0.293943 -0.739112
H23   H     H_    0.671486 0.400332 0.325825 0.317453
O16   O     O_3   0.780772 0.215512 0.596215 -0.740433
H24   H     H_    0.792537 0.256094 0.555679 0.349098

loop_
_geom_bond_atom_site_label_1
_geom_bond_atom_site_label_2
_ccdc_geom_bond_type
C27   H4    S    
O8    Zn2   S    
N3    N4    A    
C4    N1    A    
C41   C42   A    
C19   C20   A    
C18   C26   A    
C32   N6    A    
C2    C12   S    
C34   O8    A    
O13   H17   S    
C7    C8    A    
N1    N2    A    
C28   C29   A    
C16   O10   S    
O6    Zn2   S    
C36   C37   A    
C29   H18   S    
C36   O11   S    
C1    O1    A    
C30   C31   A    
C33   C35   A    
C3    N2    A    
C11   C25   A    
C15   C16   A    
C39   N5    A    
C13   C23   S    
O1    Zn1   S    
C5    H22   S    
C3    N3    A    
C35   C36   A    
C2    C44   A    
C16   C17   A    
O7    Zn1   S    
C31   C33   A    
C37   H19   S    
O9    H10   S    
C6    H7    S    
C44   H21   S    
C9    C10   A    
O11   H15   S    
C23   O5    A    
C15   H14   S    
C30   H6    S    
C21   C22   A    
C4    N4    A    
C13   C25   A    
C9    H8    S    
N5    Zn1   S    
C34   O7    A    
O5    Zn1   S    
C11   C20   A    
C25   O16   S    
C40   H9    S    
C43   O14   S    
C14   H12   S    
O10   H13   S    
C1    O2    A    
C27   C39   A    
O16   H24   S    
C8    C9    A    
C27   C35   A    
O14   H20   S    
C13   C24   A    
C43   C44   A    
C29   C30   A    
C38   N5    A    
C12   O4    A    
C28   H5    S    
O3    Zn1   S    
C31   C32   A    
C17   C18   A    
C32   C37   A    
C14   C26   A    
N6    Zn2   S    
C40   C41   A    
C22   H2    S    
C38   O13   S    
C1    C26   S    
C7    C34   S    
C11   H1    S    
C42   C43   A    
C24   H11   S    
C39   H3    S    
C23   O6    A    
C18   C22   A    
C41   O12   S    
C6    C7    A    
C28   N6    A    
C33   C38   A    
O4    Zn2   S    
C21   O9    S    
C19   C24   A    
C5    C10   A    
C3    C10   S    
C12   O3    A    
C5    C6    A    
C4    C42   S    
C17   C19   A    
O12   H16   S    
C2    C40   A    
C20   C21   A    
O2    Zn2   S    
C14   C15   A    
C8    O15   S    
O15   H23   S    
