data_mof_unit_7400.cif
_audit_creation_date              2012-12-10T17:02:30-0500
_audit_creation_method            fapswitch 2.2
_symmetry_space_group_name_H-M    P1
_symmetry_Int_Tables_number       1
_space_group_crystal_system       triclinic
_cell_length_a                    10.843558
_cell_length_b                    11.042174
_cell_length_c                    9.84526
_cell_angle_alpha                 111.135051
_cell_angle_beta                  100.369952
_cell_angle_gamma                 90.477684
_cell_volume                      1078.1284589

loop_
_atom_site_label
_atom_site_type_symbol
_atom_type_description
_atom_site_fract_x
_atom_site_fract_y
_atom_site_fract_z
_atom_type_partial_charge
C1    C     C_R   0.490837 0.253943 0.440495 0.856008
C2    C     C_R   0.509163 0.746057 0.559505 0.856008
C3    C     C_2   0.485894 0.114643 0.406782 -0.328930
C4    C     C_2   0.514105 0.885357 0.593218 -0.328930
C5    C     C_2   0.502362 0.069560 0.516708 -0.145711
C6    C     C_2   0.497638 0.930439 0.483292 -0.145710
C7    C     C_2   0.509884 0.509890 0.081926 0.059593
C8    C     C_2   0.490117 0.490109 0.918074 0.059593
C9    C     C_R   0.262450 0.513311 0.500974 0.795714
C10   C     C_R   0.737550 0.486689 0.499026 0.795713
C11   C     C_R   0.162060 0.652193 0.768958 -0.117934
C12   C     C_R   0.837940 0.347807 0.231042 -0.117935
C13   C     C_R   0.127795 0.674979 0.905117 -0.130794
C14   C     C_R   0.872205 0.325022 0.094883 -0.130796
C15   C     C_R   0.016654 0.614961 0.909874 -0.121095
C16   C     C_R   0.983346 0.385039 0.090126 -0.121094
C17   C     C_R   0.935201 0.540700 0.778146 -0.089365
C18   C     C_R   0.064799 0.459300 0.221853 -0.089364
C19   C     C_R   0.962417 0.527332 0.637836 0.070140
C20   C     C_R   0.037583 0.472669 0.362164 0.070140
C21   C     C_R   0.084552 0.569066 0.634617 0.072693
C22   C     C_R   0.915448 0.430934 0.365383 0.072693
C23   C     C_R   0.873531 0.472533 0.501664 -0.220452
C24   C     C_R   0.126469 0.527467 0.498336 -0.220452
Cu1   Cu    Cu3+1 0.521920 0.521810 0.644910 1.018085
Cu2   Cu    Cu3+1 0.478080 0.478190 0.355090 1.018085
H1    H     H_    0.007146 0.373244 0.984149 0.162421
H2    H     H_    0.992854 0.626756 0.015851 0.162419
H3    H     H_    0.248870 0.701652 0.769685 0.154596
H4    H     H_    0.751130 0.298347 0.230315 0.154596
H5    H     H_    0.189230 0.736319 0.007108 0.144199
H6    H     H_    0.810770 0.263681 0.992892 0.144199
H7    H     H_    0.854725 0.489586 0.789254 0.180609
H8    H     H_    0.145275 0.510414 0.210746 0.180610
H9    H     H_    0.480522 0.864512 0.367670 0.187830
H10   H     H_    0.519478 0.135488 0.632330 0.187829
H11   H     H_    0.531248 0.951524 0.708657 0.168436
H12   H     H_    0.468752 0.048476 0.291343 0.168436
H13   H     H_    0.417503 0.417747 0.840804 0.168172
H14   H     H_    0.582499 0.582252 0.159195 0.168173
N1    N     N_2   0.445130 0.445420 0.137360 -0.026045
N2    N     N_2   0.554870 0.554580 0.862640 -0.026045
O1    O     O_R   0.511700 0.332340 0.577400 -0.603142
O2    O     O_R   0.488300 0.667660 0.422600 -0.603141
O3    O     O_R   0.474680 0.295500 0.332650 -0.535219
O4    O     O_R   0.525320 0.704500 0.667350 -0.535219
O5    O     O_R   0.338170 0.518410 0.622370 -0.594978
O6    O     O_R   0.661830 0.481590 0.377630 -0.594979
O7    O     O_R   0.301150 0.481570 0.377630 -0.555969
O8    O     O_R   0.698850 0.518430 0.622370 -0.555970
Cl1   Cl    Cl    0.672916 0.672462 0.977766 -0.568860
Cl2   Cl    Cl    0.327080 0.327541 0.022234 -0.568861

loop_
_geom_bond_atom_site_label_1
_geom_bond_atom_site_label_2
_ccdc_geom_bond_type
Cu1   N2    S    
C19   C23   A    
C7    H14   S    
C3    H12   S    
C9    C24   S    
C8    H13   S    
C10   C23   S    
C11   C13   A    
Cu1   O5    S    
N1    Cl2   S    
C2    C4    S    
Cu2   O6    S    
N2    Cl1   S    
C3    C5    D    
Cu1   O1    S    
C16   H1    S    
C7    N1    D    
Cu2   O2    S    
C7    C8    S    
C2    O4    A    
C18   H8    S    
C1    O3    A    
C15   H2    S    
C17   H7    S    
C16   C18   A    
C19   C21   A    
C8    N2    D    
C9    O5    A    
C18   C20   A    
C13   C15   A    
C10   O6    A    
C5    C6    S    
C14   C16   A    
Cu2   O7    S    
C20   C22   A    
C11   C21   A    
C10   O8    A    
C5    H10   S    
C12   C22   A    
C9    O7    A    
C6    H9    S    
C11   H3    S    
C4    C6    D    
C21   C24   A    
C14   H6    S    
C15   C17   A    
C13   H5    S    
Cu1   O8    S    
C17   C19   A    
Cu2   O3    S    
C12   H4    S    
Cu1   Cu2   S    
C22   C23   A    
Cu1   O4    S    
C1    O1    A    
C2    O2    A    
C20   C24   A    
Cu2   N1    S    
C12   C14   A    
C4    H11   S    
C1    C3    S    
