data_mof_unit_40516.cif
_audit_creation_date              2012-12-10T19:43:01-0500
_audit_creation_method            fapswitch 2.2
_symmetry_space_group_name_H-M    P1
_symmetry_Int_Tables_number       1
_space_group_crystal_system       triclinic
_cell_length_a                    18.413005
_cell_length_b                    18.318344
_cell_length_c                    18.284848
_cell_angle_alpha                 119.879092
_cell_angle_beta                  90.701986
_cell_angle_gamma                 59.739199
_cell_volume                      4377.8750873

loop_
_atom_site_label
_atom_site_type_symbol
_atom_type_description
_atom_site_fract_x
_atom_site_fract_y
_atom_site_fract_z
_atom_type_partial_charge
C1    C     C_R   0.860245 0.779737 0.636062 0.936061
C2    C     C_R   0.079541 0.649620 0.976720 0.072805
C3    C     C_R   0.031497 0.627189 0.920243 0.442369
C4    C     C_R   0.141733 0.219817 0.360191 0.894181
C5    C     C_R   0.064781 0.584812 0.829371 -0.088663
C6    C     C_R   0.229532 0.049685 0.339239 0.014598
C7    C     C_R   0.202108 0.107883 0.303609 -0.150761
C8    C     C_R   0.231695 0.055578 0.210191 0.013817
C9    C     C_R   0.265701 0.950400 0.154730 0.271844
C10   C     C_R   0.296626 0.891885 0.192108 -0.242333
C11   C     C_R   0.279698 0.943450 0.283995 0.040006
C12   C     C_R   0.415523 0.450583 0.687331 -0.210835
C13   C     C_3   0.235711 0.935972 0.345970 -0.199424
C14   C     C_3   0.180210 0.054223 0.408440 0.442832
C15   C     C_R   0.222650 0.563613 0.337705 0.004465
C16   C     C_R   0.860617 0.499282 0.639783 0.814156
C17   C     C_R   0.197998 0.495457 0.301890 -0.105100
C18   C     C_R   0.231358 0.422555 0.207958 0.014138
C19   C     C_R   0.269886 0.435564 0.153571 0.353093
C20   C     C_R   0.299182 0.501468 0.192397 -0.229409
C21   C     C_R   0.278043 0.560748 0.284934 0.024345
C22   C     C_3   0.238312 0.673285 0.350085 -0.169570
C23   C     C_R   0.332725 0.472334 0.719773 0.037739
C24   C     C_3   0.173636 0.677083 0.407025 0.284120
C25   C     C_R   0.839910 0.947993 0.715514 -0.006568
C26   C     C_R   0.804337 0.890966 0.680370 -0.215234
C27   C     C_R   0.712181 0.944886 0.692843 0.262926
C28   C     C_R   0.140403 0.499297 0.359708 0.934383
C29   C     C_R   0.656306 0.049581 0.764610 0.230444
C30   C     C_R   0.693814 0.106606 0.803027 -0.212663
C31   C     C_R   0.785915 0.053653 0.774044 -0.062662
C32   C     C_3   0.851045 0.053156 0.825169 0.471312
C33   C     C_3   0.911613 0.935589 0.757865 -0.211824
C34   C     C_R   0.283132 0.457593 0.661685 -0.129882
C35   C     C_R   0.726073 0.520301 0.327161 -0.007146
C36   C     C_R   0.804811 0.508514 0.304355 -0.196664
C37   C     C_R   0.829192 0.503505 0.227925 0.331253
C38   C     C_R   0.782189 0.489415 0.165531 0.311303
C39   C     C_R   0.697823 0.510198 0.194252 -0.181236
C40   C     C_R   0.860252 0.501633 0.360311 0.923285
C41   C     C_R   0.670509 0.530957 0.276870 -0.061032
C42   C     C_3   0.589882 0.622737 0.356796 0.307285
C43   C     C_3   0.650258 0.605465 0.412529 -0.148618
C44   C     C_R   0.720770 0.581948 0.748927 -0.106584
C45   C     C_R   0.298854 0.509286 0.808867 -0.022397
C46   C     C_R   0.806615 0.496473 0.694230 -0.061803
C47   C     C_R   0.837484 0.406889 0.692769 0.039474
C48   C     C_R   0.782011 0.407354 0.745924 0.117249
C49   C     C_R   0.695263 0.496977 0.801327 -0.048568
C50   C     C_R   0.666807 0.581597 0.798487 -0.113071
C51   C     C_3   0.589899 0.690173 0.836000 0.601799
C52   C     C_R   0.138738 0.500516 0.641134 0.943353
C53   C     C_3   0.651694 0.689327 0.775715 0.316913
C54   C     C_R   0.356969 0.502286 0.139180 0.830870
C55   C     C_R   0.639537 0.499963 0.859678 0.879659
C56   C     C_R   0.208137 0.554241 0.847731 0.019995
C57   C     C_R   0.355559 0.779851 0.138875 0.861265
C58   C     C_R   0.639576 0.219441 0.861826 0.893351
C59   C     C_R   0.640295 0.503913 0.139421 0.921452
C60   C     C_R   0.359756 0.500936 0.860262 0.747051
C61   C     C_R   0.325183 0.404103 0.568374 0.206755
C62   C     C_R   0.398574 0.402003 0.542660 0.424215
C63   C     C_R   0.443981 0.423647 0.602428 -0.207583
C64   C     C_R   0.154927 0.545456 0.791090 -0.002284
C65   C     C_R   0.193467 0.498700 0.698567 -0.067568
C66   C     C_R   0.166382 0.614969 0.942271 0.027772
H1    H     H_    0.197064 0.903971 0.316201 0.158039
H2    H     H_    0.354251 0.901588 0.999686 0.392253
H3    H     H_    0.339828 0.903392 0.398912 0.308313
H4    H     H_    0.263871 0.888883 0.429921 0.244358
H5    H     H_    0.052784 0.178623 0.447768 0.188287
H6    H     H_    0.077765 0.070221 0.354398 0.150234
H7    H     H_    0.189592 0.102374 0.628079 0.406297
H8    H     H_    0.162602 0.357297 0.169837 0.279226
H9    H     H_    0.254998 0.294544 0.195061 0.228494
H10   H     H_    0.199162 0.528880 0.062984 0.315576
H11   H     H_    0.159605 0.715128 0.276275 0.254482
H12   H     H_    0.286198 0.686097 0.382295 0.170664
H13   H     H_    0.163122 0.810417 0.362212 0.241057
H14   H     H_    0.325852 0.238036 0.553206 0.376780
H15   H     H_    0.979443 0.743346 0.327497 0.404755
H16   H     H_    0.758272 0.846309 0.500575 0.361393
H17   H     H_    0.578987 0.110242 0.939354 0.379579
H18   H     H_    0.897740 0.095379 0.760587 0.170135
H19   H     H_    0.944825 0.084549 0.837831 0.242550
H20   H     H_    0.931269 0.977574 0.940373 0.359073
H21   H     H_    0.033456 0.817387 0.662652 0.249579
H22   H     H_    0.981032 0.917354 0.654140 0.247058
H23   H     H_    0.184150 0.694156 0.472085 0.094141
H24   H     H_    0.960571 0.604125 0.317242 0.382348
H25   H     H_    0.853830 0.319176 0.923447 0.379445
H26   H     H_    0.608863 0.821769 0.377281 0.416318
H27   H     H_    0.484850 0.433930 0.390746 0.385244
H28   H     H_    0.684141 0.542627 0.483608 0.205554
H29   H     H_    0.574843 0.626687 0.511012 0.232564
H30   H     H_    0.971654 0.323868 0.657337 0.276186
H31   H     H_    0.929533 0.292857 0.570720 0.192516
H32   H     H_    0.871122 0.294445 0.759433 0.227732
H33   H     H_    0.829171 0.256467 0.675631 0.207015
H34   H     H_    0.922590 0.890781 0.786267 0.185228
H35   H     H_    0.386493 0.801559 0.780351 0.406577
H36   H     H_    0.481147 0.813338 0.071812 0.363760
H37   H     H_    0.658821 0.702049 0.669563 0.265056
H38   H     H_    0.634624 0.619746 0.651839 0.183233
H39   H     H_    0.717089 0.833220 0.950520 0.419339
H40   H     H_    0.254773 0.598255 0.012795 0.193583
H41   H     H_    0.226333 0.689472 0.991187 0.247266
H42   H     H_    0.034764 0.782012 0.097323 0.217097
H43   H     H_    0.073412 0.677833 0.099988 0.212278
H44   H     H_    0.992414 0.533342 0.766323 0.264005
H45   H     H_    0.537366 0.610862 0.363224 0.108782
H46   H     H_    0.946562 0.660675 0.811006 0.235293
H47   H     H_    0.180538 0.113834 0.136651 0.273906
H48   H     H_    0.288287 0.072384 0.129972 0.227512
H49   H     H_    0.655841 0.670174 0.457564 0.262917
H50   H     H_    0.503391 0.416868 0.582431 0.222983
H51   H     H_    0.457066 0.460156 0.728189 0.188403
H52   H     H_    0.862949 0.680700 0.079695 0.424788
N1    N     N_3   0.299061 0.878451 0.377270 -0.338478
N2    N     N_3   0.622247 0.690836 0.700824 -0.357585
N3    N     N_3   0.204644 0.654831 0.006811 -0.486615
N4    N     N_3   0.036654 0.715472 0.071346 -0.338368
N5    N     N_3   0.005382 0.586783 0.777797 -0.445354
N6    N     N_3   0.225608 0.110070 0.172141 -0.375830
N7    N     N_3   0.085775 0.099882 0.417372 -0.441661
N8    N     N_3   0.227917 0.334428 0.165526 -0.344890
N9    N     N_3   0.200323 0.732099 0.311095 -0.413594
N10   N     N_3   0.885023 0.109794 0.823623 -0.380001
N11   N     N_3   0.994096 0.897684 0.699890 -0.434057
N12   N     N_3   0.633033 0.565457 0.456942 -0.436687
N13   N     N_3   0.923069 0.312913 0.635806 -0.423468
N14   N     N_3   0.813365 0.315319 0.741380 -0.424320
O1    O     O_3   0.000000 0.500000 0.500000 -0.526269
O2    O     O_R   0.676550 0.268320 0.884150 -0.620873
O3    O     O_R   0.555150 0.560600 0.176460 -0.621185
O4    O     O_R   0.944950 0.731580 0.615800 -0.650218
O5    O     O_R   0.384220 0.439220 0.884170 -0.586970
O6    O     O_R   0.676580 0.439170 0.055020 -0.556759
O7    O     O_R   0.384230 0.560650 0.884170 -0.623992
O8    O     O_R   0.384260 0.731500 0.055040 -0.551737
O9    O     O_R   0.555100 0.268330 0.884160 -0.570989
O10   O     O_R   0.384250 0.560620 0.176470 -0.632513
O11   O     O_R   0.676570 0.439190 0.884150 -0.621223
O12   O     O_R   0.944910 0.439280 0.615800 -0.667442
O13   O     O_R   0.115780 0.268410 0.444920 -0.589480
O14   O     O_R   0.823470 0.560720 0.615800 -0.643623
O15   O     O_R   0.115800 0.439290 0.323490 -0.662024
O16   O     O_R   0.823460 0.560740 0.444930 -0.634951
O17   O     O_R   0.115830 0.560690 0.615790 -0.648983
O18   O     O_R   0.944900 0.439310 0.323490 -0.615326
O19   O     O_R   0.115810 0.439260 0.615790 -0.548267
O20   O     O_2   0.858836 0.776701 0.004155 -0.269129
O21   O     O_2   0.896240 0.602504 0.902215 -0.251645
O22   O     O_3   0.925355 0.651535 0.052768 -0.455348
O23   O     O_R   0.115820 0.560710 0.444920 -0.590535
O24   O     O_2   0.263256 0.803859 0.000014 -0.241925
O25   O     O_2   0.145799 0.983356 0.070782 -0.260118
O26   O     O_3   0.298524 0.917158 0.985265 -0.452394
O27   O     O_2   0.291339 0.080764 0.502026 -0.240203
O28   O     O_2   0.135405 0.225669 0.568424 -0.250706
O29   O     O_3   0.177658 0.069876 0.571667 -0.551720
O30   O     O_2   0.352282 0.279991 0.980477 -0.114637
O31   O     O_2   0.193241 0.363897 0.034389 -0.203243
O32   O     O_3   0.244160 0.459290 0.009847 -0.504460
O33   O     O_2   0.239408 0.359177 0.449854 -0.306621
O34   O     O_R   0.823500 0.731590 0.615800 -0.542679
O35   O     O_2   0.393863 0.221863 0.409184 -0.200721
O36   O     O_3   0.278481 0.265237 0.528845 -0.467787
O37   O     O_2   0.004218 0.752381 0.479818 -0.310522
O38   O     O_2   0.025427 0.858884 0.452678 -0.307454
O39   O     O_3   0.043424 0.696645 0.316776 -0.588506
O40   O     O_2   0.645901 0.831031 0.631982 -0.200171
O41   O     O_2   0.586905 0.969693 0.610687 -0.213762
O42   O     O_3   0.745022 0.804900 0.509934 -0.498467
O43   O     O_2   0.479726 0.168051 0.799757 -0.165808
O44   O     O_2   0.537901 0.012011 0.794476 -0.148769
O45   O     O_R   0.115770 0.268420 0.323490 -0.625498
O46   O     O_3   0.532029 0.161692 0.930858 -0.474534
O47   O     O_2   0.749580 0.206488 0.997517 -0.230516
O48   O     O_2   0.766098 0.044069 0.937638 -0.312131
O49   O     O_3   0.899787 0.053014 0.973182 -0.473004
O50   O     O_2   0.994077 0.445049 0.166908 -0.249091
O51   O     O_2   0.870871 0.603240 0.186233 -0.197686
O52   O     O_3   0.903426 0.612227 0.326641 -0.548875
O53   O     O_2   0.763152 0.520888 0.035406 -0.273906
O54   O     O_2   0.915581 0.430188 0.036417 -0.158007
O55   O     O_3   0.845935 0.329960 0.982307 -0.492531
O56   O     O_3   0.500040 0.499910 0.999960 -0.558045
O57   O     O_2   0.505535 0.751031 0.304005 -0.280289
O58   O     O_2   0.485397 0.829533 0.463233 -0.241504
O59   O     O_3   0.636269 0.750427 0.359206 -0.504345
O60   O     O_2   0.512792 0.264609 0.376973 -0.212245
O61   O     O_2   0.361733 0.395255 0.396972 -0.273576
O62   O     O_3   0.467427 0.450796 0.450988 -0.556817
O63   O     O_2   0.524425 0.604116 0.710777 -0.360250
O64   O     O_2   0.435574 0.704788 0.865178 -0.169732
O65   O     O_3   0.435695 0.803267 0.801646 -0.472828
O66   O     O_2   0.645358 0.735110 0.982378 -0.223811
O67   O     O_R   0.384230 0.439200 0.055040 -0.562274
O68   O     O_2   0.518867 0.881087 0.987897 -0.237493
O69   O     O_3   0.493876 0.765023 0.007509 -0.536597
O70   O     O_2   0.749184 0.756775 0.761049 -0.297980
O71   O     O_2   0.604019 0.885492 0.873954 -0.188528
O72   O     O_3   0.733797 0.763488 0.903620 -0.437416
O73   O     O_R   0.555130 0.560630 0.884160 -0.575410
O74   O     O_R   0.384270 0.731490 0.176470 -0.602549
S1    S     S_3+6 0.924505 0.665282 0.968320 0.090787
S2    S     S_3+6 0.901810 0.540156 0.224011 0.125006
S3    S     S_3+6 0.828167 0.445077 0.053989 0.122562
S4    S     S_3+6 0.550457 0.742646 0.371206 0.049291
S5    S     S_3+6 0.435058 0.375117 0.437675 0.080675
S6    S     S_3+6 0.494500 0.697755 0.802473 0.069553
S7    S     S_3+6 0.563106 0.770932 0.955832 0.095748
S8    S     S_3+6 0.684481 0.776923 0.829267 0.111169
S9    S     S_3+6 0.243260 0.909496 0.050667 0.077610
S10   S     S_3+6 0.197688 0.110540 0.514864 0.069892
S11   S     S_3+6 0.265297 0.381337 0.042148 0.142497
S12   S     S_3+6 0.309306 0.311279 0.485395 0.079652
S13   S     S_3+6 0.057837 0.750209 0.416619 -0.016894
S14   S     S_3+6 0.668901 0.888234 0.611592 0.122322
S15   S     S_3+6 0.548388 0.097137 0.820660 0.182710
S16   S     S_3+6 0.812689 0.091473 0.936371 0.067016
Zn1   Zn    Zn3+2 0.043370 0.413240 0.543370 1.086266
Zn2   Zn    Zn3+2 0.869870 0.586760 0.543380 1.062300
Zn3   Zn    Zn3+2 0.043360 0.413260 0.369880 1.062722
Zn4   Zn    Zn3+2 0.043390 0.586740 0.543370 1.073867
Zn5   Zn    Zn3+2 0.456670 0.586670 0.956580 1.086698
Zn6   Zn    Zn3+2 0.456680 0.586650 0.130080 1.034320
Zn7   Zn    Zn3+2 0.630180 0.413150 0.956570 1.071748
Zn8   Zn    Zn3+2 0.456650 0.413170 0.956580 1.097308

loop_
_geom_bond_atom_site_label_1
_geom_bond_atom_site_label_2
_ccdc_geom_bond_type
O32   S11   S    
C25   C31   A    
O23   Zn4   S    
H18   N10   S    
C53   S8    S    
C23   C45   A    
C27   C29   A    
C41   C42   S    
O71   S8    D    
H27   O62   S    
C4    O45   A    
O56   Zn5   S    
C24   H23   S    
O15   Zn3   S    
C53   N2    S    
C7    C8    A    
C39   C41   A    
C9    S9    S    
C29   S15   S    
C12   C23   A    
C26   C27   A    
C37   C38   A    
C14   N7    S    
H33   N14   S    
O40   S14   D    
C16   O14   A    
C36   C37   A    
C16   O12   A    
H36   O69   S    
O1    Zn3   S    
O17   Zn4   S    
O57   S4    D    
C30   C31   A    
H35   O65   S    
H43   N4    S    
O61   S5    D    
O16   Zn2   S    
C44   C50   A    
O28   S10   D    
O72   S8    S    
O1    Zn2   S    
O70   S8    D    
O7    Zn5   S    
C18   C19   A    
O2    Zn7   S    
O41   S14   D    
O12   Zn1   S    
H7    O29   S    
O20   S1    D    
C43   H49   S    
O62   S5    S    
O21   S1    D    
C44   C53   S    
O55   S3    S    
C45   C56   A    
C52   O17   A    
C28   O15   A    
C5    N5    S    
H20   O49   S    
C62   S5    S    
C56   C64   A    
O46   S15   S    
O48   S16   D    
C19   S11   S    
C1    O4    A    
C35   C43   S    
C9    C10   A    
O35   S12   D    
O50   S2    D    
O22   S1    S    
H11   N9    S    
H26   O59   S    
C60   O5    A    
H48   N6    S    
C51   S7    S    
O30   S11   D    
C27   S14   S    
O18   Zn3   S    
C21   C22   S    
O51   S2    D    
C61   C62   A    
H22   N11   S    
C4    C7    S    
O56   Zn8   S    
C51   S6    S    
C34   C65   A    
C13   N1    S    
C44   C46   A    
C50   C51   S    
C48   N14   S    
C2    N4    S    
C38   C39   A    
C55   O73   A    
O25   S9    D    
C55   O11   A    
O44   S15   D    
C40   O16   A    
O47   S16   D    
C14   S10   S    
C47   C48   A    
H16   O42   S    
C36   C40   S    
C10   C57   S    
O1    Zn4   S    
H31   N13   S    
H46   N5    S    
C20   C54   S    
C45   C60   S    
O3    Zn6   S    
C16   C46   S    
C6    C11   A    
C12   C63   A    
C8    C9    A    
H39   O72   S    
O59   S4    S    
C59   O6    A    
O56   Zn6   S    
C25   C26   A    
C49   C55   S    
O45   Zn3   S    
C57   O74   A    
H3    N1    S    
C34   C61   A    
C58   O2    A    
C54   O67   A    
C5    C64   A    
C47   N13   S    
C51   C53   S    
C35   C36   A    
C42   H45   S    
O60   S5    D    
C62   C63   A    
H29   N12   S    
H44   N5    S    
C6    C14   S    
O14   Zn2   S    
C31   C32   S    
O6    Zn7   S    
H4    N1    S    
C23   C34   A    
C39   C59   S    
O24   S9    D    
C17   C18   A    
O43   S15   D    
C66   N3    S    
C40   O18   A    
H28   N12   S    
C61   S12   S    
C22   H12   S    
O33   S12   D    
H30   N13   S    
C63   H50   S    
O31   S11   D    
C48   C49   A    
O37   S13   D    
O29   S10   S    
H24   O52   S    
H52   O22   S    
O74   Zn6   S    
C1    C26   S    
C37   S2    S    
O53   S3    D    
H10   O32   S    
O42   S14   S    
C42   C43   S    
H41   N3    S    
O34   Zn2   S    
O56   Zn7   S    
C3    C5    A    
O38   S13   D    
C13   H1    S    
C33   N11   S    
C15   C17   A    
O4    Zn4   S    
C46   C47   A    
C15   C24   S    
O8    Zn5   S    
O27   S10   D    
O9    Zn8   S    
H17   O46   S    
C54   O10   A    
O49   S16   S    
C17   C28   S    
O67   Zn8   S    
C43   N12   S    
C8    N6    S    
O11   Zn7   S    
H42   N4    S    
O5    Zn8   S    
C2    C66   A    
C42   S4    S    
C19   C20   A    
C32   S16   S    
O10   Zn6   S    
C6    C7    A    
O13   Zn1   S    
O69   S7    S    
O52   S2    S    
H6    N7    S    
O1    Zn1   S    
C33   H34   S    
C3    S1    S    
C64   C65   A    
H21   N11   S    
H9    N8    S    
C2    C3    A    
O26   S9    S    
H13   N9    S    
O63   S6    D    
C28   O23   A    
C18   N8    S    
C11   C13   S    
C58   O9    A    
C32   N10   S    
C22   N9    S    
H8    N8    S    
H47   N6    S    
C1    O34   A    
C52   O19   A    
C56   C66   A    
C4    O13   A    
C30   C58   S    
H40   N3    S    
C59   O3    A    
H2    O26   S    
H37   N2    S    
O19   Zn1   S    
O73   Zn5   S    
C22   C24   S    
H15   O39   S    
C38   S3    S    
O58   S4    D    
C32   C33   S    
C35   C41   A    
C10   C11   A    
C60   O7    A    
C29   C30   A    
C12   H51   S    
O64   S6    D    
C24   S13   S    
C15   C21   A    
C20   C21   A    
C57   O8    A    
C49   C50   A    
O54   S3    D    
H32   N14   S    
O65   S6    S    
H5    N7    S    
H19   N10   S    
O36   S12   S    
C13   C14   S    
O66   S7    D    
H25   O55   S    
H14   O36   S    
O39   S13   S    
C52   C65   S    
C25   C33   S    
H38   N2    S    
O68   S7    D    
