data_mof_unit_40236.cif
_audit_creation_date              2012-12-11T15:08:54-0500
_audit_creation_method            fapswitch 2.2
_symmetry_space_group_name_H-M    P1
_symmetry_Int_Tables_number       1
_space_group_crystal_system       triclinic
_cell_length_a                    19.625699
_cell_length_b                    11.465991
_cell_length_c                    18.713377
_cell_angle_alpha                 89.829223
_cell_angle_beta                  89.635925
_cell_angle_gamma                 89.977734
_cell_volume                      4210.93144059

loop_
_atom_site_label
_atom_site_type_symbol
_atom_type_description
_atom_site_fract_x
_atom_site_fract_y
_atom_site_fract_z
_atom_type_partial_charge
C1    C     C_R   0.277684 0.029101 0.859232 0.534694
C2    C     C_3   0.693825 0.517861 0.963180 -0.197965
C3    C     C_R   0.226741 0.544678 0.353418 0.540981
C4    C     C_R   0.469242 0.822612 0.645961 0.550708
C5    C     C_R   0.530753 0.822475 0.353994 0.551855
C6    C     C_R   0.969242 0.322612 0.645961 0.550708
C7    C     C_R   0.030753 0.322474 0.353994 0.551855
C8    C     C_R   0.261269 0.642211 0.643328 0.539124
C9    C     C_R   0.738789 0.641893 0.356610 0.542427
C10   C     C_R   0.761269 0.142211 0.643328 0.539124
C11   C     C_R   0.238789 0.141893 0.356610 0.542427
C12   C     C_3   0.482207 0.905919 0.034948 -0.163584
C13   C     C_3   0.800642 0.002854 0.034091 -0.204870
C14   C     C_3   0.523176 0.902420 0.963954 -0.148990
C15   C     C_3   0.982207 0.405919 0.034948 -0.163584
C16   C     C_3   0.023176 0.402420 0.963954 -0.148990
C17   C     C_3   0.433645 0.811388 0.006355 -0.178323
C18   C     C_3   0.568216 0.803134 0.994540 -0.160264
C19   C     C_3   0.933645 0.311388 0.006355 -0.178323
C20   C     C_3   0.068216 0.303134 0.994540 -0.160263
C21   C     C_3   0.474189 0.811087 0.935165 0.025141
C22   C     C_3   0.527329 0.810210 0.065316 0.021472
C23   C     C_3   0.974189 0.311087 0.935165 0.025141
C24   C     C_3   0.193825 0.017861 0.963180 -0.197965
C25   C     C_3   0.027329 0.310210 0.065316 0.021472
C26   C     C_1   0.144999 0.741530 0.423342 0.183996
C27   C     C_1   0.855273 0.741623 0.575811 0.182599
C28   C     C_1   0.644999 0.241530 0.423342 0.183996
C29   C     C_1   0.355274 0.241623 0.575811 0.182599
C30   C     C_3   0.504959 0.523875 0.913471 -0.005591
C31   C     C_3   0.542263 0.407746 0.919969 -0.419439
C32   C     C_3   0.487859 0.528385 0.091882 -0.006285
C33   C     C_3   0.449261 0.413072 0.087025 -0.426446
C34   C     C_3   0.004959 0.023875 0.913471 -0.005591
C35   C     C_3   0.308146 0.515264 0.951863 0.166520
C36   C     C_3   0.042264 0.907746 0.919969 -0.419439
C37   C     C_3   0.987859 0.028385 0.091882 -0.006285
C38   C     C_3   0.949261 0.913072 0.087025 -0.426446
C39   C     C_3   0.354145 0.389942 0.861751 -0.027512
C40   C     C_3   0.318219 0.353369 0.793300 -0.308827
C41   C     C_3   0.638145 0.396995 0.130871 -0.034695
C42   C     C_3   0.672316 0.353460 0.198998 -0.310293
C43   C     C_3   0.854145 0.889942 0.861751 -0.027513
C44   C     C_3   0.818220 0.853368 0.793300 -0.308827
C45   C     C_3   0.138145 0.896995 0.130871 -0.034697
C46   C     C_3   0.687694 0.528356 0.045405 0.164479
C47   C     C_3   0.172316 0.853460 0.198998 -0.310293
C48   C     C_1   0.665208 0.942668 0.890004 0.214487
C49   C     C_1   0.328128 0.935858 0.115937 0.211705
C50   C     C_1   0.165208 0.442668 0.890004 0.214487
C51   C     C_1   0.828128 0.435858 0.115937 0.211705
C52   C     C_3   0.808146 0.015264 0.951863 0.166520
C53   C     C_3   0.187694 0.028356 0.045405 0.164479
C54   C     C_3   0.172568 0.510408 0.019590 -0.227521
C55   C     C_3   0.820103 0.492433 0.982857 -0.244444
C56   C     C_3   0.672568 0.010408 0.019590 -0.227521
C57   C     C_R   0.722861 0.031471 0.141163 0.536276
C58   C     C_3   0.320103 0.992433 0.982857 -0.244444
C59   C     C_3   0.237729 0.685097 0.048725 -0.254503
C60   C     C_3   0.771346 0.682317 0.950231 -0.242989
C61   C     C_3   0.737730 0.185097 0.048725 -0.254503
C62   C     C_3   0.271346 0.182317 0.950231 -0.242989
C63   C     C_3   0.234187 0.555984 0.063018 -0.019329
C64   C     C_3   0.765077 0.553693 0.936803 -0.025697
C65   C     C_3   0.734187 0.055984 0.063018 -0.019329
C66   C     C_3   0.265077 0.053693 0.936803 -0.025697
C67   C     C_3   0.249706 0.594496 0.924980 0.083390
C68   C     C_R   0.777684 0.529101 0.859232 0.534694
C69   C     C_3   0.750398 0.596730 0.074107 0.078078
C70   C     C_3   0.749706 0.094496 0.924980 0.083391
C71   C     C_3   0.250398 0.096730 0.074107 0.078078
C72   C     C_3   0.178958 0.540602 0.938748 -0.092348
C73   C     C_3   0.817501 0.529075 0.062776 -0.084014
C74   C     C_3   0.678958 0.040603 0.938748 -0.092348
C75   C     C_3   0.317501 0.029075 0.062776 -0.084014
C76   C     C_3   0.253567 0.705567 0.969684 -0.275715
C77   C     C_3   0.760618 0.707412 0.029131 -0.272358
C78   C     C_3   0.753567 0.205567 0.969684 -0.275716
C79   C     C_R   0.222861 0.531471 0.141163 0.536276
C80   C     C_3   0.260618 0.207412 0.029131 -0.272358
C81   C     C_3   0.504345 0.699729 0.460359 -0.224416
C82   C     C_3   0.495705 0.699826 0.539938 -0.223658
C83   C     C_3   0.004345 0.199729 0.460359 -0.224416
C84   C     C_3   0.995705 0.199826 0.539938 -0.223658
C85   C     C_R   0.445810 0.815960 0.862095 0.546604
C86   C     C_R   0.555339 0.815878 0.138132 0.544454
C87   C     C_R   0.945810 0.315960 0.862095 0.546604
C88   C     C_R   0.055339 0.315878 0.138132 0.544454
C89   C     C_3   0.563296 0.899882 0.471877 -0.222852
C90   C     C_3   0.518022 0.711456 0.965323 0.289734
C91   C     C_3   0.436714 0.899992 0.527705 -0.223598
C92   C     C_3   0.063296 0.399882 0.471877 -0.222852
C93   C     C_3   0.936714 0.399992 0.527705 -0.223598
C94   C     C_3   0.440602 0.882491 0.445697 -0.267358
C95   C     C_3   0.559393 0.882629 0.553965 -0.267748
C96   C     C_3   0.940602 0.382491 0.445697 -0.267358
C97   C     C_3   0.059393 0.382629 0.553965 -0.267748
C98   C     C_3   0.509789 0.826156 0.430516 0.059445
C99   C     C_3   0.490226 0.826363 0.569374 0.059485
C100  C     C_3   0.009789 0.326156 0.430516 0.059445
C101  C     C_3   0.479979 0.714672 0.036633 0.289117
C102  C     C_3   0.990226 0.326363 0.569374 0.059485
C103  C     C_3   0.174847 0.640810 0.461815 -0.095953
C104  C     C_3   0.825229 0.640825 0.538043 -0.095727
C105  C     C_3   0.674847 0.140810 0.461815 -0.095953
C106  C     C_3   0.325229 0.140825 0.538043 -0.095727
C107  C     C_3   0.185723 0.668747 0.539142 -0.220297
C108  C     C_3   0.814397 0.668371 0.460606 -0.220005
C109  C     C_3   0.685723 0.168747 0.539142 -0.220297
C110  C     C_3   0.314397 0.168371 0.460606 -0.220005
C111  C     C_3   0.252366 0.462746 0.472197 -0.237407
C112  C     C_3   0.018022 0.211456 0.965323 0.289734
C113  C     C_3   0.747645 0.462978 0.528516 -0.237370
C114  C     C_3   0.752367 0.962746 0.472197 -0.237407
C115  C     C_3   0.247645 0.962978 0.528516 -0.237371
C116  C     C_3   0.300314 0.656939 0.441142 -0.267956
C117  C     C_3   0.699754 0.657454 0.558553 -0.268828
C118  C     C_3   0.800314 0.156939 0.441142 -0.267955
C119  C     C_3   0.199754 0.157454 0.558553 -0.268828
C120  C     C_3   0.238827 0.577957 0.429030 0.049069
C121  C     C_3   0.761205 0.578359 0.571064 0.049549
C122  C     C_3   0.738827 0.077957 0.429030 0.049069
C123  C     C_3   0.979978 0.214672 0.036633 0.289118
C124  C     C_3   0.261205 0.078359 0.571064 0.049549
C125  C     C_3   0.252105 0.611114 0.566963 0.046587
C126  C     C_3   0.747937 0.610860 0.433047 0.046067
C127  C     C_3   0.752105 0.111114 0.566963 0.046587
C128  C     C_3   0.247937 0.110860 0.433047 0.046067
C129  C     C_3   0.244022 0.481049 0.553543 -0.276755
C130  C     C_3   0.755922 0.480841 0.447095 -0.277388
C131  C     C_3   0.744022 0.981049 0.553543 -0.276755
C132  C     C_3   0.255922 0.980841 0.447095 -0.277388
C133  C     C_R   0.259831 0.634877 0.850749 0.541528
C134  C     C_3   0.300642 0.502854 0.034091 -0.204870
C135  C     C_R   0.739640 0.637347 0.148165 0.542630
C136  C     C_R   0.759831 0.134877 0.850749 0.541528
C137  C     C_R   0.239640 0.137347 0.148165 0.542630
C138  C     C_3   0.315039 0.653891 0.522395 -0.229443
C139  C     C_3   0.684999 0.653933 0.477338 -0.229165
C140  C     C_3   0.815039 0.153891 0.522395 -0.229443
C141  C     C_3   0.184999 0.153932 0.477338 -0.229165
C142  C     C_R   0.273198 0.045030 0.646701 0.538538
C143  C     C_R   0.726741 0.044678 0.353418 0.540981
C144  C     C_R   0.773198 0.545030 0.646701 0.538538
Cr1   Cr    Cr6+3 0.229620 0.836040 0.749110 0.996661
Cr2   Cr    Cr6+3 0.613980 0.676590 0.250790 0.980450
Cr3   Cr    Cr6+3 0.886020 0.176590 0.749210 0.981784
Cr4   Cr    Cr6+3 0.113980 0.176590 0.250790 0.980450
Cr5   Cr    Cr6+3 0.770380 0.836040 0.250890 0.995719
Cr6   Cr    Cr6+3 0.729620 0.336040 0.749110 0.996661
Cr7   Cr    Cr6+3 0.270380 0.336040 0.250890 0.995719
Cr8   Cr    Cr6+3 0.387630 0.990680 0.750730 1.005375
Cr9   Cr    Cr6+3 0.612370 0.990680 0.249270 1.005672
Cr10  Cr    Cr6+3 0.887630 0.490680 0.750730 1.005374
Cr11  Cr    Cr6+3 0.112370 0.490680 0.249270 1.005671
Cr12  Cr    Cr6+3 0.386020 0.676590 0.749210 0.981784
H1    H     H_    0.381551 0.799391 0.023858 0.133596
H2    H     H_    0.734305 0.731336 0.917468 0.195958
H3    H     H_    0.217520 0.932113 0.417332 0.161628
H4    H     H_    0.306514 0.415375 0.052262 0.141221
H5    H     H_    0.678583 0.431916 0.944801 0.143961
H6    H     H_    0.806514 0.915375 0.052262 0.141221
H7    H     H_    0.178583 0.931916 0.944801 0.143961
H8    H     H_    0.341543 0.550629 0.060078 0.177410
H9    H     H_    0.658623 0.578218 0.937327 0.177381
H10   H     H_    0.841543 0.050629 0.060078 0.177410
H11   H     H_    0.158623 0.078218 0.937327 0.177381
H12   H     H_    0.357093 0.560779 0.942944 0.104840
H13   H     H_    0.776422 0.226626 0.082540 0.182750
H14   H     H_    0.640334 0.578771 0.055755 0.105974
H15   H     H_    0.857093 0.060779 0.942944 0.104840
H16   H     H_    0.140334 0.078771 0.055755 0.105974
H17   H     H_    0.669721 0.918916 0.029903 0.104443
H18   H     H_    0.307571 0.902961 0.978896 0.126058
H19   H     H_    0.169721 0.418916 0.029903 0.104443
H20   H     H_    0.807571 0.402961 0.978896 0.126058
H21   H     H_    0.489142 0.528153 0.857118 0.179711
H22   H     H_    0.460535 0.522379 0.949015 0.135805
H23   H     H_    0.564765 0.396394 0.973610 0.150051
H24   H     H_    0.234305 0.231336 0.917468 0.195958
H25   H     H_    0.506125 0.334877 0.911386 0.085405
H26   H     H_    0.582659 0.401863 0.878339 0.164974
H27   H     H_    0.502088 0.533487 0.148741 0.183903
H28   H     H_    0.533673 0.523784 0.057828 0.134405
H29   H     H_    0.429293 0.397567 0.032752 0.140658
H30   H     H_    0.483788 0.339676 0.100227 0.087274
H31   H     H_    0.406771 0.411669 0.126464 0.170148
H32   H     H_    0.989142 0.028153 0.857118 0.179711
H33   H     H_    0.960535 0.022379 0.949015 0.135805
H34   H     H_    0.064765 0.896394 0.973610 0.150051
H35   H     H_    0.305997 0.733797 0.961670 0.079677
H36   H     H_    0.006125 0.834877 0.911386 0.085405
H37   H     H_    0.082660 0.901863 0.878339 0.164974
H38   H     H_    0.002088 0.033487 0.148741 0.183903
H39   H     H_    0.033673 0.023785 0.057828 0.134405
H40   H     H_    0.929293 0.897567 0.032752 0.140658
H41   H     H_    0.983788 0.839676 0.100227 0.087274
H42   H     H_    0.906771 0.911669 0.126464 0.170148
H43   H     H_    0.390543 0.320492 0.876900 0.116719
H44   H     H_    0.386221 0.465599 0.849448 0.131830
H45   H     H_    0.284735 0.277299 0.803103 0.183764
H46   H     H_    0.718245 0.766079 0.038288 0.101580
H47   H     H_    0.286371 0.425413 0.772305 0.172660
H48   H     H_    0.356694 0.329686 0.752142 0.132115
H49   H     H_    0.602092 0.329140 0.112556 0.117831
H50   H     H_    0.607538 0.473493 0.145146 0.135154
H51   H     H_    0.707361 0.280428 0.187371 0.188144
H52   H     H_    0.702340 0.423696 0.224362 0.178177
H53   H     H_    0.632905 0.323256 0.237623 0.127536
H54   H     H_    0.890543 0.820492 0.876901 0.116719
H55   H     H_    0.886222 0.965600 0.849448 0.131829
H56   H     H_    0.784735 0.777299 0.803103 0.183765
H57   H     H_    0.805997 0.233797 0.961670 0.079677
H58   H     H_    0.786372 0.925413 0.772304 0.172659
H59   H     H_    0.856695 0.829683 0.752142 0.132115
H60   H     H_    0.102093 0.829140 0.112556 0.117832
H61   H     H_    0.107538 0.973493 0.145146 0.135155
H62   H     H_    0.207361 0.780428 0.187371 0.188144
H63   H     H_    0.202340 0.923696 0.224362 0.178177
H64   H     H_    0.132905 0.823255 0.237623 0.127536
H65   H     H_    0.218245 0.266079 0.038288 0.101580
H66   H     H_    0.218086 0.770859 0.949792 0.159558
H67   H     H_    0.808686 0.746264 0.047127 0.145739
H68   H     H_    0.718086 0.270859 0.949792 0.159558
H69   H     H_    0.621528 0.779431 0.984167 0.117831
H70   H     H_    0.308686 0.246264 0.047127 0.145739
H71   H     H_    0.623965 0.047639 0.040440 0.122838
H72   H     H_    0.371852 0.008277 0.960377 0.122468
H73   H     H_    0.123965 0.547639 0.040440 0.122838
H74   H     H_    0.871852 0.508277 0.960377 0.122468
H75   H     H_    0.139503 0.607572 0.926685 0.098155
H76   H     H_    0.861744 0.587820 0.071776 0.090250
H77   H     H_    0.639503 0.107572 0.926685 0.098155
H78   H     H_    0.361744 0.087820 0.071776 0.090250
H79   H     H_    0.548770 0.646533 0.446926 0.146816
H80   H     H_    0.881551 0.299391 0.023858 0.133596
H81   H     H_    0.451247 0.646689 0.553515 0.147370
H82   H     H_    0.048770 0.146533 0.446926 0.146816
H83   H     H_    0.951247 0.146689 0.553515 0.147370
H84   H     H_    0.460691 0.653627 0.435473 0.123027
H85   H     H_    0.539344 0.653665 0.565012 0.123162
H86   H     H_    0.960691 0.153627 0.435473 0.123027
H87   H     H_    0.039344 0.153665 0.565012 0.123162
H88   H     H_    0.614567 0.890119 0.450533 0.105313
H89   H     H_    0.385465 0.890118 0.549114 0.105188
H90   H     H_    0.114567 0.390119 0.450533 0.105313
H91   H     H_    0.121528 0.279431 0.984167 0.117831
H92   H     H_    0.885465 0.390118 0.549114 0.105188
H93   H     H_    0.601236 0.826168 0.572988 0.114973
H94   H     H_    0.398764 0.826009 0.426947 0.115546
H95   H     H_    0.101236 0.326168 0.572988 0.114973
H96   H     H_    0.898764 0.326009 0.426947 0.115546
H97   H     H_    0.467595 0.987069 0.063205 0.131004
H98   H     H_    0.538356 0.982428 0.934684 0.132312
H99   H     H_    0.967595 0.487069 0.063205 0.131004
H100  H     H_    0.038356 0.482428 0.934684 0.132312
H101  H     H_    0.435917 0.967742 0.417636 0.116296
H102  H     H_    0.186668 0.719533 0.060576 0.199411
H103  H     H_    0.564040 0.967959 0.581624 0.115660
H104  H     H_    0.935918 0.467742 0.417636 0.116296
H105  H     H_    0.064040 0.467959 0.581624 0.115660
H106  H     H_    0.452151 0.991318 0.537887 0.128379
H107  H     H_    0.547868 0.991193 0.461195 0.128753
H108  H     H_    0.952151 0.491319 0.537887 0.128379
H109  H     H_    0.047868 0.491193 0.461195 0.128753
H110  H     H_    0.135265 0.577434 0.460910 0.115510
H111  H     H_    0.864715 0.577293 0.539443 0.116270
H112  H     H_    0.635265 0.077434 0.460910 0.115510
H113  H     H_    0.824232 0.705947 0.936361 0.190976
H114  H     H_    0.364715 0.077293 0.539443 0.116270
H115  H     H_    0.187964 0.762508 0.546954 0.139423
H116  H     H_    0.812272 0.762175 0.452234 0.140293
H117  H     H_    0.687964 0.262508 0.546954 0.139423
H118  H     H_    0.312272 0.262175 0.452234 0.140293
H119  H     H_    0.140615 0.638381 0.570671 0.121237
H120  H     H_    0.859484 0.637622 0.429277 0.121058
H121  H     H_    0.640615 0.138381 0.570671 0.121237
H122  H     H_    0.359484 0.137622 0.429277 0.121058
H123  H     H_    0.721428 0.890230 0.453725 0.110029
H124  H     H_    0.686668 0.219533 0.060576 0.199411
H125  H     H_    0.278565 0.890450 0.547411 0.110876
H126  H     H_    0.221428 0.390230 0.453725 0.110029
H127  H     H_    0.778565 0.390450 0.547411 0.110876
H128  H     H_    0.693491 0.950456 0.572234 0.107261
H129  H     H_    0.306383 0.949927 0.428493 0.108371
H130  H     H_    0.193491 0.450456 0.572234 0.107261
H131  H     H_    0.806383 0.449927 0.428493 0.108371
H132  H     H_    0.345208 0.625112 0.410419 0.117425
H133  H     H_    0.654868 0.625927 0.589492 0.116813
H134  H     H_    0.845208 0.125112 0.410419 0.117425
H135  H     H_    0.324232 0.205947 0.936361 0.190976
H136  H     H_    0.154867 0.125927 0.589492 0.116813
H137  H     H_    0.288847 0.746767 0.423036 0.121508
H138  H     H_    0.711294 0.747334 0.576108 0.120396
H139  H     H_    0.788847 0.246767 0.423036 0.121508
H140  H     H_    0.211294 0.247334 0.576108 0.120396
H141  H     H_    0.334667 0.735936 0.541515 0.110458
H142  H     H_    0.665265 0.735738 0.457602 0.110771
H143  H     H_    0.834667 0.235936 0.541515 0.110458
H144  H     H_    0.165265 0.235738 0.457602 0.110771
H145  H     H_    0.355550 0.588472 0.530740 0.138282
H146  H     H_    0.276422 0.726626 0.082540 0.182750
H147  H     H_    0.644541 0.588416 0.469403 0.137630
H148  H     H_    0.855550 0.088472 0.530740 0.138282
H149  H     H_    0.144541 0.088416 0.469403 0.137630
H150  H     H_    0.306310 0.439151 0.462012 0.139611
H151  H     H_    0.693693 0.439628 0.538940 0.139424
H152  H     H_    0.806310 0.939151 0.462012 0.139611
H153  H     H_    0.193693 0.939628 0.538940 0.139424
H154  H     H_    0.282272 0.432225 0.583708 0.160883
H155  H     H_    0.717520 0.432113 0.417332 0.161628
H156  H     H_    0.782272 0.932225 0.583708 0.160883
N1    N     N_1   0.118842 0.817115 0.392877 -0.340110
N2    N     N_1   0.881713 0.817375 0.605524 -0.343228
N3    N     N_1   0.618842 0.317115 0.392877 -0.340110
N4    N     N_1   0.381713 0.317375 0.605524 -0.343228
N5    N     N_1   0.653683 0.867751 0.850551 -0.298483
N6    N     N_1   0.338062 0.865544 0.159151 -0.302606
N7    N     N_1   0.153682 0.367751 0.850551 -0.298483
N8    N     N_1   0.838062 0.365544 0.159151 -0.302606
O1    O     O_R   0.214130 0.708570 0.829890 -0.543296
O2    O     O_R   0.542830 0.717300 0.331620 -0.524359
O3    O     O_R   0.957170 0.217300 0.668380 -0.524437
O4    O     O_R   0.042830 0.217300 0.331620 -0.524359
O5    O     O_R   0.320870 0.624890 0.673130 -0.508893
O6    O     O_R   0.679130 0.624890 0.326870 -0.507564
O7    O     O_R   0.820870 0.124890 0.673130 -0.508893
O8    O     O_R   0.179130 0.124890 0.326870 -0.507564
O9    O     O_3   0.334430 0.834430 0.749680 -0.297572
O10   O     O_3   0.665570 0.834430 0.250320 -0.298948
O11   O     O_3   0.834430 0.334430 0.749680 -0.297572
O12   O     O_R   0.785870 0.708570 0.170110 -0.541621
O13   O     O_3   0.165570 0.334430 0.250320 -0.298948
O14   O     O_R   0.236050 0.959150 0.825270 -0.506625
O15   O     O_R   0.763950 0.959150 0.174730 -0.508228
O16   O     O_R   0.736050 0.459150 0.825270 -0.506625
O17   O     O_R   0.263950 0.459150 0.174730 -0.508228
O18   O     O_R   0.332100 0.076650 0.832310 -0.546161
O19   O     O_R   0.667900 0.076650 0.167690 -0.546002
O20   O     O_R   0.832100 0.576650 0.832310 -0.546161
O21   O     O_R   0.167900 0.576650 0.167690 -0.546002
O22   O     O_R   0.446500 0.918620 0.826240 -0.499502
O23   O     O_R   0.714130 0.208570 0.829890 -0.543296
O24   O     O_R   0.553500 0.918620 0.173760 -0.497445
O25   O     O_R   0.946500 0.418620 0.826240 -0.499502
O26   O     O_R   0.053500 0.418620 0.173760 -0.497445
O27   O     O_R   0.457310 0.715830 0.831280 -0.508722
O28   O     O_R   0.542690 0.715830 0.168720 -0.515765
O29   O     O_R   0.957310 0.215830 0.831280 -0.508722
O30   O     O_R   0.042690 0.215830 0.168720 -0.515765
O31   O     O_R   0.321000 0.623520 0.824130 -0.546315
O32   O     O_R   0.679000 0.623520 0.175870 -0.545405
O33   O     O_R   0.821000 0.123520 0.824130 -0.546315
O34   O     O_R   0.285870 0.208570 0.170110 -0.541621
O35   O     O_R   0.179000 0.123520 0.175870 -0.545405
O36   O     O_R   0.213990 0.710040 0.667000 -0.531506
O37   O     O_R   0.786010 0.710040 0.333000 -0.531014
O38   O     O_R   0.713990 0.210040 0.667000 -0.531506
O39   O     O_R   0.286010 0.210040 0.333000 -0.531014
O40   O     O_R   0.235920 0.960520 0.674260 -0.508444
O41   O     O_R   0.764080 0.960520 0.325740 -0.508485
O42   O     O_R   0.735920 0.460520 0.674260 -0.508444
O43   O     O_R   0.264080 0.460520 0.325740 -0.508485
O44   O     O_R   0.331960 0.078120 0.669410 -0.517113
O45   O     O_R   0.446360 0.919990 0.675230 -0.502162
O46   O     O_R   0.668040 0.078120 0.330590 -0.515976
O47   O     O_R   0.831960 0.578120 0.669410 -0.517113
O48   O     O_R   0.168040 0.578120 0.330590 -0.515976
O49   O     O_3   0.548843 0.618128 0.927325 -0.578188
O50   O     O_3   0.445888 0.624663 0.075124 -0.575970
O51   O     O_3   0.048843 0.118128 0.927325 -0.578188
O52   O     O_3   0.945888 0.124663 0.075124 -0.575970
O53   O     O_3   0.305731 0.405498 0.917885 -0.596071
O54   O     O_3   0.687420 0.415391 0.076171 -0.596916
O55   O     O_3   0.805731 0.905499 0.917885 -0.596071
O56   O     O_R   0.553640 0.919990 0.324770 -0.502632
O57   O     O_3   0.187420 0.915391 0.076171 -0.596916
O58   O     O_R   0.946360 0.419990 0.675230 -0.502162
O59   O     O_R   0.053640 0.419990 0.324770 -0.502632
O60   O     O_R   0.457170 0.717300 0.668380 -0.524437

loop_
_geom_bond_atom_site_label_1
_geom_bond_atom_site_label_2
_ccdc_geom_bond_type
C111  H150  S    
C39   H44   S    
C72   H75   S    
Cr1   O1    S    
Cr6   O38   S    
C29   N4    T    
C136  O23   A    
C77   H46   S    
Cr6   O16   S    
C71   C137  S    
C105  H112  S    
C23   C112  S    
Cr4   O35   S    
C44   H58   S    
Cr4   O13   S    
C14   C21   S    
C6    O3    A    
C95   C99   S    
C94   H101  S    
C54   C63   S    
C52   H15   S    
C41   C42   S    
C50   C72   S    
C71   C80   S    
C80   H65   S    
C110  H118  S    
C109  C127  S    
C141  H144  S    
C5    O2    A    
C27   N2    T    
C70   C74   S    
C43   H55   S    
C54   H73   S    
Cr3   O7    S    
C97   H105  S    
C59   H146  S    
Cr3   O33   S    
C69   C135  S    
C53   O57   S    
C31   H25   S    
C70   C136  S    
C58   H18   S    
C118  C140  S    
C87   O29   A    
C35   C134  S    
C21   C90   S    
C45   C47   S    
C116  H137  S    
C48   C74   S    
Cr9   O10   S    
C92   H90   S    
C25   C88   S    
Cr7   O39   S    
C68   O16   A    
C19   C23   S    
C43   C44   S    
C37   C38   S    
C16   C20   S    
C85   O27   A    
C42   H51   S    
C2    H9    S    
C42   H53   S    
C83   C100  S    
C119  C141  S    
C61   H124  S    
C61   H13   S    
C53   C71   S    
C46   O54   S    
Cr9   O24   S    
C125  C138  S    
C56   H17   S    
C59   C63   S    
C81   H84   S    
C60   C64   S    
Cr7   O43   S    
C138  H145  S    
Cr6   O23   S    
Cr7   O13   S    
C91   C94   S    
C13   H10   S    
C42   H52   S    
C6    C102  S    
C127  C131  S    
C5    O56   A    
C137  O35   A    
C46   H14   S    
C81   C98   S    
C106  C124  S    
C6    O58   A    
C103  C107  S    
C108  C126  S    
C39   O53   S    
C78   H68   S    
C134  H4    S    
Cr12  O60   S    
C84   C102  S    
C69   C77   S    
C33   H31   S    
C19   H80   S    
C97   H95   S    
C94   C98   S    
C15   H99   S    
C83   H86   S    
C19   C123  S    
C36   H34   S    
C37   H39   S    
C62   C80   S    
C123  O52   S    
C115  H153  S    
C88   O26   A    
Cr12  O27   S    
Cr1   O36   S    
C35   O53   S    
C12   C22   S    
C27   C104  S    
C67   C72   S    
C118  C122  S    
C28   N3    T    
Cr9   O19   S    
Cr4   O8    S    
C53   H16   S    
Cr10  O47   S    
C132  H129  S    
C144  O47   A    
C14   H98   S    
C38   H42   S    
C59   H102  S    
C33   H30   S    
C89   H107  S    
C60   H113  S    
C17   H1    S    
C139  H147  S    
C140  H148  S    
C86   O28   A    
C55   H74   S    
C122  C143  S    
C94   H94   S    
C121  C144  S    
C92   C97   S    
C115  C132  S    
C126  C139  S    
C132  H3    S    
C113  C130  S    
C62   C66   S    
C24   H11   S    
C107  C125  S    
C139  H142  S    
C9    O37   A    
C39   C40   S    
Cr11  O21   S    
C11   O39   A    
C116  C120  S    
C114  C131  S    
Cr3   O3    S    
C18   H69   S    
C125  C129  S    
C57   O15   A    
C83   C84   S    
Cr3   O29   S    
C35   C67   S    
C35   H12   S    
C30   H22   S    
Cr1   O9    S    
C25   C123  S    
C8    O5    A    
C114  H123  S    
C16   C23   S    
C86   O24   A    
C84   H83   S    
C127  C140  S    
C107  H119  S    
C90   O49   S    
C105  C109  S    
C12   H97   S    
C117  H133  S    
C36   H36   S    
C109  H121  S    
C47   H64   S    
C89   C98   S    
C3    O43   A    
C10   O7    A    
Cr10  O11   S    
C96   C100  S    
C38   H40   S    
C105  C122  S    
C34   C36   S    
C61   C65   S    
C55   H20   S    
C55   C73   S    
C10   O38   A    
C113  C121  S    
C9    O6    A    
C4    C99   S    
C110  C128  S    
C79   O17   A    
C11   O8    A    
Cr10  O20   S    
C91   C99   S    
C1    O18   A    
C59   C76   S    
C135  O12   A    
Cr2   O2    S    
C82   C99   S    
C32   H27   S    
C103  C120  S    
C104  H111  S    
C3    O48   A    
Cr2   O28   S    
C13   H6    S    
C117  C139  S    
C115  H125  S    
C15   C19   S    
C92   C100  S    
C22   C101  S    
C30   C31   S    
C20   C25   S    
C126  C130  S    
C82   H81   S    
Cr7   O34   S    
C75   H78   S    
C41   H50   S    
C39   H43   S    
C20   C112  S    
Cr8   O22   S    
C111  C129  S    
C20   H91   S    
Cr5   O41   S    
C51   N8    T    
C12   C17   S    
C69   C73   S    
C128  C141  S    
C97   C102  S    
C24   C66   S    
C93   H108  S    
C83   H82   S    
C18   C22   S    
C135  O32   A    
C95   H93   S    
C48   N5    T    
C81   H79   S    
Cr12  O31   S    
C78   H57   S    
C47   H62   S    
Cr1   O40   S    
C140  H143  S    
C26   N1    T    
C21   C85   S    
Cr8   O9    S    
C56   C74   S    
C7    C100  S    
C107  H115  S    
C18   C90   S    
C63   C134  S    
C108  H116  S    
C112  C123  S    
C13   C65   S    
C32   O50   S    
C24   C53   S    
C112  O51   S    
C82   H85   S    
C31   H23   S    
C119  H136  S    
C89   C95   S    
Cr8   O44   S    
C26   C103  S    
C13   C52   S    
C28   C105  S    
C96   H104  S    
Cr5   O37   S    
C142  O44   A    
C89   H88   S    
C45   O57   S    
C85   O22   A    
C74   H77   S    
C143  O46   A    
C92   H109  S    
C31   H26   S    
C24   H7    S    
C96   H96   S    
C64   C68   S    
C104  C108  S    
C133  O1    A    
Cr11  O59   S    
Cr1   O14   S    
C115  C124  S    
C56   H71   S    
C7    O4    A    
Cr5   O10   S    
C62   H135  S    
C57   C65   S    
C130  H131  S    
C108  H120  S    
C93   C102  S    
C57   O19   A    
C41   O54   S    
C131  H156  S    
C117  H138  S    
C37   H38   S    
C50   N7    T    
C16   H100  S    
C141  H149  S    
C134  H8    S    
Cr11  O48   S    
C84   H87   S    
C22   C86   S    
C17   C21   S    
C15   C25   S    
Cr9   O56   S    
C8    C125  S    
C40   H45   S    
C118  H134  S    
C33   H29   S    
Cr7   O17   S    
C34   O51   S    
C109  H117  S    
Cr8   O45   S    
C56   C65   S    
C110  H122  S    
C54   H19   S    
C91   H89   S    
C101  O50   S    
C70   C78   S    
C44   H59   S    
C45   H61   S    
C14   C18   S    
C143  O41   A    
Cr3   O11   S    
C81   C82   S    
C63   C79   S    
C119  C124  S    
C2    C46   S    
C95   H103  S    
C129  H130  S    
C67   C133  S    
C60   H2    S    
C87   O25   A    
C62   H24   S    
C15   C16   S    
C79   O21   A    
C45   H60   S    
C103  H110  S    
C43   H54   S    
C17   C101  S    
C36   H37   S    
C46   C69   S    
C117  C121  S    
C49   N6    T    
Cr10  O58   S    
C113  H151  S    
C58   C66   S    
C7    O59   A    
Cr2   O6    S    
Cr2   O32   S    
Cr12  O5    S    
C8    O36   A    
C23   C87   S    
Cr10  O25   S    
Cr5   O12   S    
C124  C142  S    
C128  C132  S    
C2    H5    S    
C131  H128  S    
C2    C64   S    
C58   C75   S    
C116  C138  S    
C130  H155  S    
C60   C77   S    
C52   O55   S    
C40   H48   S    
C118  H139  S    
Cr11  O13   S    
Cr11  O26   S    
Cr8   O18   S    
C104  C121  S    
C76   H66   S    
C47   H63   S    
C43   O55   S    
C111  C120  S    
C44   H56   S    
C30   O49   S    
C77   H67   S    
C4    O45   A    
C90   C101  S    
C93   H92   S    
C40   H47   S    
C144  O42   A    
C61   C78   S    
C55   C64   S    
C49   C75   S    
C1    C66   S    
C38   H41   S    
Cr2   O10   S    
C37   O52   S    
C138  H141  S    
C34   H32   S    
C137  O34   A    
C91   H106  S    
Cr6   O11   S    
C113  H127  S    
Cr12  O9    S    
C68   O20   A    
C133  O31   A    
C12   C14   S    
C106  H114  S    
C93   C96   S    
C29   C106  S    
C10   C127  S    
C58   H72   S    
C4    O60   A    
C106  C110  S    
Cr6   O42   S    
C119  H140  S    
C32   H28   S    
C34   H33   S    
C51   C73   S    
C129  H154  S    
C136  O33   A    
C142  O40   A    
C9    C126  S    
C80   H70   S    
Cr5   O15   S    
C11   C128  S    
C76   H35   S    
C71   C75   S    
C1    O14   A    
Cr9   O46   S    
C111  H126  S    
C30   H21   S    
C116  H132  S    
C114  H152  S    
C41   H49   S    
C32   C33   S    
C88   O30   A    
C52   C70   S    
C3    C120  S    
C114  C122  S    
C54   C72   S    
C5    C98   S    
Cr4   O30   S    
C67   C76   S    
Cr4   O4    S    
C73   H76   S    
