data_mof_unit_31069.cif
_audit_creation_date              2012-12-10T16:53:08-0500
_audit_creation_method            fapswitch 2.2
_symmetry_space_group_name_H-M    P1
_symmetry_Int_Tables_number       1
_space_group_crystal_system       triclinic
_cell_length_a                    10.816027
_cell_length_b                    10.907969
_cell_length_c                    9.749001
_cell_angle_alpha                 89.637452
_cell_angle_beta                  88.99569
_cell_angle_gamma                 91.967453
_cell_volume                      1149.3135118

loop_
_atom_site_label
_atom_site_type_symbol
_atom_type_description
_atom_site_fract_x
_atom_site_fract_y
_atom_site_fract_z
_atom_type_partial_charge
C1    C     C_R   0.500298 0.265341 0.500301 0.834875
C2    C     C_R   0.068489 0.598110 0.591781 -0.010065
C3    C     C_R   0.129362 0.515751 0.503283 -0.056312
C4    C     C_R   0.062597 0.444111 0.410302 -0.199335
C5    C     C_R   0.935450 0.447275 0.407962 -0.197284
C6    C     C_R   0.872040 0.524276 0.496324 -0.072249
C7    C     C_2   0.488000 0.933059 0.386945 -0.161068
C8    C     C_2   0.479115 0.865348 0.501925 -0.330097
C9    C     C_2   0.483953 0.067117 0.388387 -0.158288
C10   C     C_2   0.503319 0.132860 0.502287 -0.311357
C11   C     C_2   0.400362 0.501573 0.924135 -0.038278
C12   C     C_R   0.262821 0.504709 0.501205 0.762037
C13   C     C_2   0.402813 0.477817 0.076675 -0.007429
C14   C     C_R   0.492833 0.733963 0.499924 0.857379
C15   C     C_R   0.737452 0.509622 0.498978 0.848444
C16   C     C_R   0.134825 0.677149 0.681433 -0.220975
C17   C     C_R   0.073941 0.756337 0.770303 0.273810
C18   C     C_R   0.946811 0.767879 0.757638 -0.222876
C19   C     C_R   0.880552 0.700667 0.659694 0.241549
C20   C     C_R   0.938175 0.606315 0.584462 0.063198
Cu1   Cu    Cu3+1 0.500020 0.500020 0.638630 0.978847
Cu2   Cu    Cu3+1 0.499980 0.499980 0.361370 1.048031
H1    H     H_    0.109088 0.381976 0.341798 0.148369
H2    H     H_    0.523987 0.090736 0.599702 0.149955
H3    H     H_    0.312348 0.520138 0.878414 0.137461
H4    H     H_    0.568117 0.447694 0.885476 0.261686
H5    H     H_    0.317536 0.443262 0.125131 0.095560
H6    H     H_    0.234283 0.682275 0.680317 0.172082
H7    H     H_    0.900514 0.838008 0.815373 0.142484
H8    H     H_    0.885863 0.385999 0.339342 0.165595
H9    H     H_    0.499579 0.889684 0.287741 0.199275
H10   H     H_    0.461782 0.905405 0.601464 0.161713
H11   H     H_    0.468312 0.112583 0.291065 0.171055
N1    N     N_2   0.498640 0.498660 0.846910 -0.223596
N2    N     N_2   0.498610 0.498630 0.153040 0.007223
O1    O     O_R   0.500020 0.321960 0.617040 -0.587911
O2    O     O_R   0.499980 0.321920 0.382900 -0.591119
O3    O     O_R   0.319670 0.500020 0.617100 -0.604302
O4    O     O_R   0.319630 0.499980 0.382950 -0.605827
O5    O     O_R   0.500020 0.678080 0.617100 -0.575997
O6    O     O_R   0.499980 0.678040 0.382960 -0.517054
O7    O     O_R   0.680370 0.500020 0.617050 -0.568774
O8    O     O_R   0.680330 0.499980 0.382900 -0.512830
S1    S     S_3+6 0.618458 0.599717 0.092301 0.092779
O9    O     O_2   0.719556 0.527668 0.026816 -0.325173
O10   O     O_2   0.571571 0.691156 0.991124 -0.319364
O11   O     O_3   0.684289 0.682048 0.217827 -0.496554
H12   H     H_    0.754217 0.728682 0.172926 0.344698
N3    N     N_2   0.141154 0.835572 0.860838 -0.435786
H13   H     H_    0.087863 0.895789 0.915262 0.248879
C21   C     C_3   0.234872 0.780600 0.943294 -0.641152
H14   H     H_    0.271615 0.848907 0.017563 0.227222
H15   H     H_    0.313828 0.752594 0.878001 0.247881
H16   H     H_    0.194755 0.700394 0.001557 0.221497
N4    N     N_2   0.766743 0.747707 0.617369 -0.415599
H17   H     H_    0.709347 0.770040 0.698422 0.286877
C22   C     C_3   0.781057 0.846000 0.516339 -0.695620
H18   H     H_    0.743612 0.932106 0.557914 0.220782
H19   H     H_    0.730039 0.820360 0.423057 0.263539
H20   H     H_    0.879423 0.864902 0.485040 0.227489

loop_
_geom_bond_atom_site_label_1
_geom_bond_atom_site_label_2
_ccdc_geom_bond_type
C16   H6    S    
C21   H15   S    
N4    H17   S    
N2    S1    S    
C19   N4    S    
C6    C20   A    
C9    C10   D    
Cu2   O8    S    
Cu1   N1    S    
S1    O11   S    
C1    O2    A    
C21   H16   S    
C12   O4    A    
C2    C3    A    
C15   O8    A    
C7    C8    D    
Cu1   O1    S    
Cu1   Cu2   S    
C18   H7    S    
C9    H11   S    
Cu2   N2    S    
C11   C13   S    
C22   H18   S    
Cu1   O7    S    
Cu1   O5    S    
C14   O6    A    
Cu2   O4    S    
S1    O10   D    
C13   N2    D    
N4    C22   S    
C12   O3    A    
C5    C6    A    
C16   C17   A    
C22   H19   S    
Cu2   O6    S    
C7    H9    S    
C1    C10   S    
C11   H3    S    
C14   O5    A    
C21   H14   S    
C8    H10   S    
O11   H12   S    
Cu1   O3    S    
C2    C16   A    
S1    O9    D    
C15   O7    A    
C17   C18   A    
N3    H13   S    
C5    H8    S    
C17   N3    S    
C7    C9    S    
C4    H1    S    
C18   C19   A    
C22   H20   S    
C8    C14   S    
C3    C12   S    
C10   H2    S    
C6    C15   S    
Cu2   O2    S    
C2    C20   A    
H4    N1    S    
C11   N1    D    
C13   H5    S    
C3    C4    A    
C19   C20   A    
C1    O1    A    
C4    C5    A    
N3    C21   S    
