data_mof_unit_14112.cif
_audit_creation_date              2012-12-10T17:26:24-0500
_audit_creation_method            fapswitch 2.2
_symmetry_space_group_name_H-M    P1
_symmetry_Int_Tables_number       1
_space_group_crystal_system       triclinic
_cell_length_a                    10.157343
_cell_length_b                    10.594598
_cell_length_c                    27.549486
_cell_angle_alpha                 88.676827
_cell_angle_beta                  81.192849
_cell_angle_gamma                 93.886372
_cell_volume                      2921.30438517

loop_
_atom_site_label
_atom_site_type_symbol
_atom_type_description
_atom_site_fract_x
_atom_site_fract_y
_atom_site_fract_z
_atom_type_partial_charge
C1    C     C_R   0.554298 0.734015 0.494046 0.996538
C2    C     C_R   0.629916 0.625862 0.115605 -0.140303
C3    C     C_R   0.501439 0.484304 0.647426 -0.156136
C4    C     C_R   0.506446 0.517023 0.352038 -0.152800
C5    C     C_R   0.641226 0.599674 0.013391 -0.001003
C6    C     C_R   0.545558 0.365835 0.978075 0.002765
C7    C     C_R   0.569335 0.373822 0.027382 0.073670
C8    C     C_R   0.622374 0.591930 0.963376 0.061409
C9    C     C_R   0.601632 0.493891 0.045678 -0.015413
C10   C     C_R   0.581233 0.472407 0.945574 -0.002395
C11   C     C_R   0.710425 0.704577 0.031666 0.331659
C12   C     C_R   0.445596 0.266290 0.500468 0.987265
C13   C     C_R   0.470551 0.261007 0.962148 0.288421
C14   C     C_R   0.692170 0.724319 0.082970 0.423143
C15   C     C_R   0.465005 0.246968 0.911518 0.382204
C16   C     C_R   0.500418 0.498586 0.594233 0.909857
C17   C     C_R   0.500185 0.501997 0.405682 0.939601
C18   C     C_R   0.632320 0.700442 0.930927 0.000943
C19   C     C_R   0.566174 0.265827 0.059302 0.015800
C20   C     C_2   0.580941 0.868545 0.482671 -0.379488
C21   C     C_2   0.418519 0.132938 0.492292 -0.365627
C22   C     C_2   0.490876 0.933239 0.463243 0.341572
C23   C     C_R   0.567885 0.461657 0.895431 -0.130023
C24   C     C_2   0.507573 0.071111 0.462210 0.356978
C25   C     C_2   0.924131 0.498031 0.507491 -0.097199
C26   C     C_2   0.071499 0.479594 0.500835 -0.122635
C27   C     C_R   0.597206 0.554722 0.813104 0.554219
C28   C     C_R   0.544274 0.417863 0.179385 0.557044
C29   C     C_R   0.501511 0.342916 0.827611 0.725877
C30   C     C_R   0.603795 0.639367 0.166930 0.732760
C31   C     C_R   0.602927 0.387376 0.712288 0.530817
C32   C     C_R   0.648337 0.566395 0.273461 0.515819
C33   C     C_R   0.594683 0.406158 0.662617 -0.311845
C34   C     C_R   0.597747 0.507185 0.096704 -0.139700
C35   C     C_R   0.631902 0.552446 0.324437 -0.271254
C36   C     C_R   0.410668 0.542044 0.682865 -0.147395
C37   C     C_R   0.392632 0.501419 0.328214 -0.123506
C38   C     C_R   0.416058 0.520475 0.733355 -0.132710
C39   C     C_R   0.407579 0.521009 0.276546 -0.133913
C40   C     C_R   0.515238 0.445850 0.747370 0.179756
C41   C     C_R   0.536911 0.548829 0.249547 0.174048
C42   C     C_2   0.314211 0.627968 0.667615 1.046421
C43   C     C_2   0.261227 0.456985 0.356519 1.025917
C44   C     C_2   0.124655 0.673196 0.536732 1.057540
C45   C     C_R   0.606817 0.566103 0.862736 -0.016170
C46   C     C_2   0.881984 0.351095 0.447566 1.065615
C47   C     C_2   0.324550 0.580621 0.772167 0.989309
C48   C     C_2   0.291569 0.506273 0.249406 0.992078
C49   C     C_2   0.606493 0.830480 0.947284 0.981247
C50   C     C_2   0.607247 0.141803 0.041188 0.989247
C51   C     C_R   0.560934 0.401463 0.128852 -0.008045
C52   C     C_R   0.640295 0.683852 0.880644 -0.162827
C53   C     C_R   0.550468 0.280830 0.109919 -0.169517
C54   C     C_R   0.513733 0.348012 0.877974 -0.126120
H1    H     H_    0.328336 0.083505 0.512219 0.141930
H2    H     H_    0.152393 0.316986 0.398284 0.341958
H3    H     H_    0.032564 0.832968 0.527105 0.346037
H4    H     H_    0.950151 0.177132 0.439154 0.346066
H5    H     H_    0.209254 0.561994 0.838779 0.363177
H6    H     H_    0.202147 0.568932 0.193805 0.366721
H7    H     H_    0.841296 0.599463 0.267957 0.360263
H8    H     H_    0.753539 0.282508 0.698507 0.347508
H9    H     H_    0.749807 0.903706 0.075858 0.358499
H10   H     H_    0.410548 0.066463 0.918485 0.352961
H11   H     H_    0.873309 0.815830 0.017535 0.355517
H12   H     H_    0.671683 0.916307 0.491799 0.142095
H13   H     H_    0.310140 0.149697 0.983391 0.369064
H14   H     H_    0.629603 0.017819 0.929900 0.360366
H15   H     H_    0.742583 0.049205 0.997111 0.365526
H16   H     H_    0.669483 0.071829 0.414534 0.346140
H17   H     H_    0.327387 0.936953 0.435014 0.351819
H18   H     H_    0.109130 0.399749 0.480755 0.190500
H19   H     H_    0.883336 0.560656 0.535623 0.180513
H20   H     H_    0.655975 0.766321 0.855855 0.238190
H21   H     H_    0.539884 0.197727 0.134306 0.227891
H22   H     H_    0.718976 0.567079 0.342515 0.195822
H23   H     H_    0.662657 0.360044 0.635598 0.170991
H24   H     H_    0.122003 0.669923 0.672235 0.375795
N1    N     N_R   0.540993 0.446211 0.797017 -0.345990
N2    N     N_R   0.559430 0.536253 0.197301 -0.345309
N3    N     N_2   0.842700 0.448890 0.480020 -0.166857
N4    N     N_2   0.157300 0.551110 0.519980 -0.173857
O1    O     O_R   0.431060 0.692470 0.504020 -0.530132
O2    O     O_2   0.512529 0.316431 0.210620 -0.510870
O3    O     O_2   0.620968 0.753732 0.186492 -0.417266
O4    O     O_2   0.448219 0.237649 0.809289 -0.412679
O5    O     O_2   0.354724 0.721319 0.641253 -0.558913
O6    O     O_R   0.177613 0.603397 0.684320 -0.759657
O7    O     O_2   0.165637 0.521508 0.357189 -0.583995
O8    O     O_R   0.247358 0.339956 0.381901 -0.776957
O9    O     O_2   0.174923 0.716926 0.570756 -0.587685
O10   O     O_R   0.044694 0.747154 0.512172 -0.808553
O11   O     O_2   0.863271 0.358958 0.404878 -0.562042
O12   O     O_R   0.568940 0.307530 0.495980 -0.558979
O13   O     O_R   0.931374 0.241928 0.465374 -0.838368
O14   O     O_2   0.300812 0.691478 0.767402 -0.552559
O15   O     O_R   0.267929 0.510639 0.814796 -0.785460
O16   O     O_2   0.204436 0.420748 0.260763 -0.551966
O17   O     O_R   0.284226 0.589114 0.209806 -0.780115
O18   O     O_3   0.773245 0.591153 0.245749 -0.715396
O19   O     O_3   0.698977 0.316324 0.727636 -0.711742
O20   O     O_3   0.738881 0.835687 0.101689 -0.668187
O21   O     O_3   0.408205 0.137371 0.894648 -0.669352
O22   O     O_3   0.803934 0.778443 0.999436 -0.768019
O23   O     O_R   0.651120 0.659650 0.491200 -0.626070
O24   O     O_3   0.390052 0.182513 0.997014 -0.745060
O25   O     O_2   0.530512 0.846286 0.985238 -0.585932
O26   O     O_R   0.662392 0.934835 0.917257 -0.762963
O27   O     O_2   0.553762 0.043720 0.061668 -0.542849
O28   O     O_R   0.712941 0.137895 0.002437 -0.805966
O29   O     O_3   0.618022 0.134598 0.434117 -0.700566
O30   O     O_3   0.379431 0.872264 0.448468 -0.713875
O31   O     O_R   0.348880 0.340350 0.508800 -0.628657
O32   O     O_R   0.389980 0.516390 0.577660 -0.594974
O33   O     O_R   0.610020 0.483610 0.422340 -0.584950
O34   O     O_R   0.610040 0.483570 0.564830 -0.636882
O35   O     O_R   0.389960 0.516430 0.435170 -0.612718
O36   O     O_2   0.640190 0.652727 0.781075 -0.517029
Zn1   Zn    Zn3+2 0.353060 0.521910 0.508560 1.049193
Zn2   Zn    Zn3+2 0.646940 0.478090 0.491440 1.031339

loop_
_geom_bond_atom_site_label_1
_geom_bond_atom_site_label_2
_ccdc_geom_bond_type
H10   O21   S    
C23   C45   A    
H3    O10   S    
C28   O2    S    
C26   H18   S    
C36   C42   S    
H6    O17   S    
C33   H23   S    
C41   N2    S    
C18   C52   A    
C39   C41   A    
N3    Zn2   S    
C34   C51   A    
C43   O7    D    
C31   O19   S    
C20   H12   S    
C5    C11   A    
C52   H20   S    
O35   Zn1   S    
C28   C51   A    
C14   O20   S    
C27   C45   A    
C3    C33   A    
C50   O28   S    
C31   C40   A    
O1    Zn1   S    
O31   Zn1   S    
O12   Zn2   S    
C46   O13   S    
C44   N4    S    
C47   O14   D    
C31   C33   A    
O23   Zn2   S    
C11   O22   S    
O32   Zn1   S    
C44   O10   S    
C17   O35   A    
H8    O19   S    
C30   N2    A    
C19   C53   A    
H2    O8    S    
C4    C35   A    
C26   N4    D    
C25   N3    D    
C12   O12   A    
C53   H21   S    
C24   O29   S    
N4    Zn1   S    
H9    O20   S    
C2    C14   A    
C16   O34   A    
C49   O26   S    
C22   O30   S    
C35   H22   S    
C43   O8    S    
C32   C35   A    
C49   O25   D    
C21   H1    S    
C45   C52   A    
C25   C26   S    
C12   C21   S    
C50   O27   D    
C8    C18   A    
O34   Zn2   S    
C51   C53   A    
C37   C43   S    
H4    O13   S    
C15   C54   A    
C5    C9    A    
C46   N3    S    
H15   O28   S    
C29   N1    A    
C32   C41   A    
H17   O30   S    
C38   C47   S    
C40   N1    S    
C30   O3    S    
C29   O4    S    
C44   O9    D    
C4    C17   S    
C20   C22   D    
C7    C19   A    
C13   C15   A    
C9    C34   A    
H5    O15   S    
C22   C24   S    
H7    O18   S    
C42   O6    S    
C17   O33   A    
C23   C54   A    
C12   O31   A    
C27   O36   S    
H24   O6    S    
C7    C9    A    
C48   O17   S    
C1    C20   S    
C13   O24   S    
C16   O32   A    
C6    C10   A    
C5    C8    A    
H13   O24   S    
C6    C7    A    
C10   C23   A    
C1    O1    A    
C48   O16   D    
C27   N1    A    
C47   O15   S    
C2    C30   A    
C36   C38   A    
C37   C39   A    
C6    C13   A    
C38   C40   A    
C19   C50   S    
C2    C34   A    
C46   O11   D    
C3    C36   A    
C11   C14   A    
C25   H19   S    
C28   N2    A    
H16   O29   S    
C32   O18   S    
C4    C37   A    
C8    C10   A    
O33   Zn2   S    
C29   C54   A    
C21   C24   D    
C42   O5    D    
H14   O26   S    
H11   O22   S    
C15   O21   S    
C3    C16   S    
C18   C49   S    
C1    O23   A    
C39   C48   S    
