data_mof_unit_31276.cif
_audit_creation_date              2012-12-10T16:58:32-0500
_audit_creation_method            fapswitch 2.2
_symmetry_space_group_name_H-M    P1
_symmetry_Int_Tables_number       1
_space_group_crystal_system       triclinic
_cell_length_a                    7.84988
_cell_length_b                    8.497508
_cell_length_c                    23.37982
_cell_angle_alpha                 92.509555
_cell_angle_beta                  85.949974
_cell_angle_gamma                 91.750792
_cell_volume                      1553.56066262

loop_
_atom_site_label
_atom_site_type_symbol
_atom_type_description
_atom_site_fract_x
_atom_site_fract_y
_atom_site_fract_z
_atom_type_partial_charge
C1    C     C_R   0.542301 0.793826 0.497388 0.939003
C2    C     C_R   0.635262 0.450615 0.292224 -0.154113
C3    C     C_R   0.369694 0.550045 0.766883 -0.099847
C4    C     C_R   0.630276 0.449633 0.233113 -0.099872
C5    C     C_R   0.516241 0.502227 0.791073 0.243709
C6    C     C_R   0.483824 0.497639 0.208925 0.243717
C7    C     C_2   0.552568 0.952061 0.484452 -0.077937
C8    C     C_2   0.447432 0.047939 0.515548 -0.077928
C9    C     C_R   0.502110 0.500354 0.610456 0.895952
C10   C     C_R   0.497889 0.499635 0.389544 0.895940
C11   C     C_R   0.420395 0.369751 0.119142 0.560531
C12   C     C_R   0.457699 0.206174 0.502612 0.938984
C13   C     C_R   0.579652 0.630129 0.880859 0.560585
C14   C     C_R   0.551863 0.627323 0.121282 0.574159
C15   C     C_R   0.448226 0.372535 0.878717 0.574154
C16   C     C_R   0.559989 0.629733 0.061683 -0.044531
C17   C     C_R   0.440077 0.370136 0.938315 -0.044539
C18   C     C_R   0.495735 0.498740 0.030159 -0.040794
C19   C     C_R   0.504314 0.501138 0.969839 -0.040805
C20   C     C_R   0.423401 0.365750 0.058861 -0.080056
C21   C     C_R   0.576646 0.634130 0.941138 -0.080052
C22   C     C_R   0.631986 0.760102 0.033437 -0.156207
C23   C     C_R   0.659532 0.453936 0.756318 0.220779
C24   C     C_R   0.368079 0.239767 0.966560 -0.156194
C25   C     C_R   0.641413 0.764302 0.973937 0.206524
C26   C     C_R   0.358637 0.235575 0.026060 0.206514
C27   C     C_R   0.340596 0.546142 0.243682 0.220772
C28   C     C_R   0.654762 0.454040 0.697042 -0.210536
C29   C     C_R   0.345334 0.546073 0.302960 -0.210551
C30   C     C_R   0.507271 0.501119 0.672545 -0.072827
C31   C     C_R   0.492728 0.498819 0.327456 -0.072825
C32   C     C_R   0.364670 0.549095 0.707774 -0.154087
H1    H     H_    0.681884 0.860577 0.057741 0.217984
H2    H     H_    0.318194 0.139285 0.942254 0.217992
H3    H     H_    0.765447 0.415798 0.670341 0.191394
H4    H     H_    0.234705 0.584484 0.329664 0.191389
H5    H     H_    0.249916 0.586643 0.689759 0.194586
H6    H     H_    0.749934 0.412918 0.310239 0.194586
H7    H     H_    0.259672 0.587336 0.794106 0.175730
H8    H     H_    0.740249 0.412185 0.205888 0.175683
I1    I     I_    0.759078 0.975464 0.941529 -0.189644
I2    I     I_    0.240980 0.024411 0.058463 -0.189687
I3    I     I_    0.882912 0.378101 0.791627 -0.230120
I4    I     I_    0.117339 0.622224 0.208371 -0.229816
I5    I     I_    0.668232 0.998335 0.401048 -0.237226
I6    I     I_    0.331767 0.001666 0.598952 -0.237139
I7    I     I_    0.043540 0.299682 0.420841 -0.149078
I8    I     I_    0.956459 0.700322 0.579157 -0.149092
N1    N     N_R   0.483346 0.498987 0.148237 -0.360564
N2    N     N_R   0.516726 0.500880 0.851762 -0.360560
N3    N     N_2   0.950330 0.457950 0.484560 0.021795
N4    N     N_2   0.049670 0.542050 0.515440 0.021786
O1    O     O_R   0.389250 0.738570 0.503790 -0.598720
O2    O     O_2   0.643220 0.752972 0.850897 -0.481855
O3    O     O_2   0.612329 0.751811 0.152404 -0.498923
O4    O     O_2   0.387803 0.248024 0.847595 -0.498899
O5    O     O_R   0.610750 0.261430 0.496210 -0.598722
O6    O     O_R   0.678390 0.711620 0.493890 -0.592582
O7    O     O_R   0.321610 0.288380 0.506110 -0.592591
O8    O     O_R   0.355400 0.513520 0.588790 -0.606784
O9    O     O_R   0.644600 0.486480 0.411210 -0.606761
O10   O     O_R   0.644550 0.486570 0.578900 -0.617473
O11   O     O_R   0.355450 0.513430 0.421100 -0.617470
O12   O     O_2   0.356803 0.246924 0.149108 -0.481879
Zn1   Zn    Zn3+2 0.306930 0.518000 0.506610 1.057516
Zn2   Zn    Zn3+2 0.693070 0.482000 0.493390 1.057522

loop_
_geom_bond_atom_site_label_1
_geom_bond_atom_site_label_2
_ccdc_geom_bond_type
C2    C4    A    
O11   Zn1   S    
C4    H8    S    
C11   N1    A    
C27   C29   A    
O1    Zn1   S    
C2    H6    S    
C6    C27   A    
C5    C23   A    
O5    Zn2   S    
C8    C12   S    
C9    O8    A    
C15   O4    S    
C28   C30   A    
C14   O3    S    
N3    Zn2   S    
C13   C21   A    
C7    C8    D    
C29   C31   A    
C23   C28   A    
O7    Zn1   S    
C9    O10   A    
C30   C32   A    
C29   H4    S    
C21   C25   A    
C20   C26   A    
C9    C30   S    
C12   O5    A    
C7    I5    S    
C4    C6    A    
C13   N2    A    
C17   C19   A    
C24   C26   A    
O8    Zn1   S    
C11   O12   S    
C18   C20   A    
C6    N1    S    
C3    C32   A    
C11   C20   A    
C14   C16   A    
C5    N2    S    
C27   I4    S    
C17   C24   A    
C32   H5    S    
O10   Zn2   S    
C3    H7    S    
N3    N4    D    
C10   O9    A    
C1    O6    A    
I8    N4    S    
C23   I3    S    
C14   N1    A    
C26   I2    S    
C16   C18   A    
C13   O2    S    
C15   N2    A    
C25   I1    S    
C15   C17   A    
C22   H1    S    
C1    O1    A    
C18   C19   A    
I7    N3    S    
C8    I6    S    
C19   C21   A    
C1    C7    S    
C12   O7    A    
O9    Zn2   S    
O6    Zn2   S    
C24   H2    S    
N4    Zn1   S    
C10   O11   A    
C28   H3    S    
C16   C22   A    
C2    C31   A    
C3    C5    A    
C22   C25   A    
C10   C31   S    
