data_mof_unit_44643.cif
_audit_creation_date              2012-12-10T21:26:07-0500
_audit_creation_method            fapswitch 2.2
_symmetry_space_group_name_H-M    P1
_symmetry_Int_Tables_number       1
_space_group_crystal_system       triclinic
_cell_length_a                    8.636644
_cell_length_b                    16.322232
_cell_length_c                    16.476973
_cell_angle_alpha                 87.618979
_cell_angle_beta                  94.902375
_cell_angle_gamma                 99.622303
_cell_volume                      2280.81247238

loop_
_atom_site_label
_atom_site_type_symbol
_atom_type_description
_atom_site_fract_x
_atom_site_fract_y
_atom_site_fract_z
_atom_type_partial_charge
C1    C     C_R   0.476683 0.487420 0.651715 0.907644
C2    C     C_R   0.375034 0.148642 0.428872 0.324447
C3    C     C_R   0.636160 0.766659 0.557570 0.126822
C4    C     C_R   0.381232 0.235726 0.432503 0.175986
C5    C     C_R   0.799861 0.520664 0.503818 0.874396
C6    C     C_R   0.200285 0.479643 0.495571 0.873011
C7    C     C_2   0.965564 0.528084 0.517083 0.181459
C8    C     C_2   0.035215 0.473839 0.480399 0.181222
C9    C     C_R   0.426169 0.477112 0.736013 -0.305844
C10   C     C_R   0.586895 0.523497 0.266511 -0.302966
C11   C     C_R   0.393447 0.546957 0.776051 0.374070
C12   C     C_R   0.527168 0.512725 0.349043 0.908957
C13   C     C_R   0.624332 0.454294 0.227210 0.375714
C14   C     C_R   0.395568 0.545455 0.861148 0.027310
C15   C     C_R   0.631319 0.457240 0.142519 0.029416
C16   C     C_R   0.430953 0.474013 0.905203 0.120358
C17   C     C_R   0.600176 0.529369 0.098328 0.119082
C18   C     C_R   0.434451 0.400528 0.865198 0.412914
C19   C     C_R   0.596585 0.602630 0.138626 0.408101
C20   C     C_R   0.412138 0.399310 0.779268 -0.020595
C21   C     C_R   0.610149 0.601999 0.224750 -0.017347
C22   C     C_3   0.681432 0.385907 0.100428 -0.305424
C23   C     C_R   0.397531 0.755084 0.471460 0.197585
C24   C     C_3   0.555494 0.308098 0.098936 -0.705453
C25   C     C_3   0.351738 0.618123 0.903858 -0.307731
C26   C     C_3   0.480554 0.694585 0.902539 -0.707197
C27   C     C_3   0.355851 0.316666 0.736991 -0.360075
C28   C     C_3   0.206990 0.267945 0.771208 -0.876933
C29   C     C_3   0.672135 0.682656 0.269201 -0.348969
C30   C     C_3   0.830626 0.725305 0.240602 -0.873427
C31   C     C_3   0.702242 0.287002 0.601769 -0.340624
C32   C     C_3   0.859359 0.280881 0.568118 -0.818256
C33   C     C_3   0.278800 0.708348 0.409005 -0.322089
C34   C     C_R   0.566096 0.240270 0.548937 0.168816
C35   C     C_3   0.271560 0.754839 0.326267 -0.974328
C36   C     C_3   0.562530 0.109017 0.639683 -0.362530
C37   C     C_3   0.728157 0.087949 0.659033 -0.744743
C38   C     C_3   0.224257 0.867934 0.477086 -0.334428
C39   C     C_3   0.174948 0.895639 0.557274 -0.839789
C40   C     C_3   0.747903 0.727179 0.617186 -0.364986
C41   C     C_3   0.727623 0.745551 0.705593 -0.857625
C42   C     C_3   0.272996 0.275239 0.371021 -0.295977
C43   C     C_3   0.317161 0.270924 0.283483 -0.739639
C44   C     C_R   0.384256 0.838881 0.488154 0.011058
C45   C     C_R   0.537896 0.151562 0.556290 0.039178
C46   C     C_R   0.521269 0.891970 0.520544 0.193615
C47   C     C_R   0.455403 0.105403 0.490331 0.083259
C48   C     C_R   0.646875 0.855033 0.555200 0.318080
H1    H     H_    0.973976 0.611745 0.599582 0.327838
H2    H     H_    0.453813 0.741856 0.943469 0.243821
H3    H     H_    0.597287 0.677997 0.923481 0.277212
H4    H     H_    0.485669 0.722801 0.840366 0.261060
H5    H     H_    0.240070 0.634289 0.873960 0.211161
H6    H     H_    0.327806 0.601433 0.968115 0.216621
H7    H     H_    0.500508 0.292199 0.878248 0.333631
H8    H     H_    0.542948 0.713832 0.125336 0.336247
H9    H     H_    0.230504 0.245143 0.834596 0.289125
H10   H     H_    0.113847 0.307584 0.769463 0.260637
H11   H     H_    0.161951 0.212932 0.733367 0.240525
H12   H     H_    0.028469 0.391907 0.396554 0.327512
H13   H     H_    0.319326 0.325424 0.671803 0.249552
H14   H     H_    0.451014 0.278275 0.741474 0.179639
H15   H     H_    0.916384 0.681271 0.246157 0.263554
H16   H     H_    0.818640 0.748553 0.176582 0.288589
H17   H     H_    0.878163 0.779334 0.279321 0.243836
H18   H     H_    0.585272 0.725658 0.260942 0.194413
H19   H     H_    0.697197 0.672113 0.335289 0.251190
H20   H     H_    0.887198 0.217177 0.575233 0.249373
H21   H     H_    0.854415 0.297319 0.502232 0.307422
H22   H     H_    0.956006 0.323858 0.600583 0.239411
H23   H     H_    0.714206 0.402956 0.323748 0.395917
H24   H     H_    0.695788 0.352645 0.605127 0.259038
H25   H     H_    0.703036 0.264646 0.666104 0.169321
H26   H     H_    0.195685 0.803298 0.325653 0.262764
H27   H     H_    0.390959 0.784795 0.311179 0.264299
H28   H     H_    0.220958 0.710592 0.277759 0.259383
H29   H     H_    0.309924 0.648861 0.396130 0.268348
H30   H     H_    0.160082 0.693538 0.432127 0.210595
H31   H     H_    0.722568 0.033005 0.701407 0.260353
H32   H     H_    0.780217 0.073551 0.603089 0.295529
H33   H     H_    0.806832 0.140104 0.689954 0.224442
H34   H     H_    0.289922 0.596601 0.682677 0.386979
H35   H     H_    0.534566 0.147867 0.688448 0.170388
H36   H     H_    0.474623 0.051477 0.644838 0.211790
H37   H     H_    0.130120 0.840368 0.595250 0.246081
H38   H     H_    0.272800 0.933479 0.593668 0.265589
H39   H     H_    0.081280 0.934140 0.543352 0.263078
H40   H     H_    0.224190 0.917624 0.429275 0.212320
H41   H     H_    0.127438 0.818628 0.455680 0.204672
H42   H     H_    0.863170 0.878357 0.604085 0.339469
H43   H     H_    0.305422 0.050654 0.361606 0.345618
H44   H     H_    0.768870 0.811827 0.719494 0.270522
H45   H     H_    0.437436 0.323765 0.079253 0.276283
H46   H     H_    0.601740 0.729328 0.717472 0.303382
H47   H     H_    0.796592 0.707491 0.747438 0.244918
H48   H     H_    0.726389 0.659949 0.614667 0.272125
H49   H     H_    0.871916 0.746727 0.602619 0.170063
H50   H     H_    0.443670 0.266863 0.282896 0.292727
H51   H     H_    0.247310 0.215561 0.253282 0.270679
H52   H     H_    0.292450 0.327008 0.247437 0.227401
H53   H     H_    0.149590 0.243513 0.375726 0.197023
H54   H     H_    0.271402 0.339983 0.383264 0.234699
H55   H     H_    0.584439 0.263370 0.055869 0.245875
H56   H     H_    0.552228 0.277064 0.159894 0.260233
H57   H     H_    0.709069 0.403768 0.036860 0.216103
H58   H     H_    0.792466 0.370832 0.132131 0.211059
N1    N     N_2   0.460989 0.473976 0.990550 -0.134567
N2    N     N_2   0.571600 0.529654 0.012885 -0.133319
N3    N     N_R   0.519180 0.718290 0.509780 -0.154369
N4    N     N_R   0.480820 0.281710 0.490220 -0.160306
N5    N     N_2   0.539617 0.981452 0.524925 -0.093814
N6    N     N_2   0.437589 0.016264 0.485522 -0.176598
O1    O     O_R   0.493140 0.422050 0.612640 -0.660053
O2    O     O_3   0.953908 0.421610 0.421295 -0.823504
O3    O     O_3   0.663272 0.385198 0.269926 -0.764280
O4    O     O_3   0.352044 0.615779 0.733656 -0.759979
O5    O     O_3   0.460696 0.331456 0.912253 -0.783145
O6    O     O_3   0.579968 0.673244 0.091770 -0.781159
O7    O     O_3   0.773451 0.907926 0.591291 -0.787139
O8    O     O_3   0.280627 0.107159 0.366192 -0.772327
O9    O     O_R   0.506860 0.577950 0.387360 -0.652306
O10   O     O_R   0.505450 0.562230 0.618920 -0.592103
O11   O     O_R   0.494550 0.437770 0.381080 -0.596781
O12   O     O_R   0.723530 0.446300 0.497600 -0.581455
O13   O     O_R   0.276470 0.553700 0.502400 -0.589960
O14   O     O_R   0.735850 0.586490 0.503880 -0.671013
O15   O     O_R   0.264150 0.413510 0.496120 -0.667821
O16   O     O_3   0.048635 0.583809 0.572921 -0.810652
Zn1   Zn    Zn3+2 0.491780 0.406400 0.495810 0.916283
Zn2   Zn    Zn3+2 0.508220 0.593600 0.504190 0.923408

loop_
_geom_bond_atom_site_label_1
_geom_bond_atom_site_label_2
_ccdc_geom_bond_type
C35   H26   S    
C30   H16   S    
H12   O2    S    
N5    N6    D    
C43   H50   S    
C39   H39   S    
O9    Zn2   S    
C7    C8    D    
C28   H9    S    
C37   H31   S    
C5    O12   A    
C35   H27   S    
O1    Zn1   S    
C36   C37   S    
C19   C21   A    
C43   H51   S    
C6    O15   A    
C26   H2    S    
C38   C39   S    
C11   C14   A    
C33   H30   S    
C31   H25   S    
O14   Zn2   S    
C36   H35   S    
C47   N6    S    
C3    C48   A    
N4    Zn1   S    
C1    O10   A    
C27   H13   S    
C16   N1    S    
C33   C35   S    
C29   H19   S    
O13   Zn2   S    
C15   C22   S    
C12   O9    A    
C31   C32   S    
C19   O6    S    
C23   C33   S    
C5    O14   A    
N1    N2    D    
C7    O16   S    
C18   C20   A    
C8    O2    S    
C32   H20   S    
C46   N5    S    
O11   Zn1   S    
C37   H33   S    
C1    O1    A    
C40   H48   S    
C42   H54   S    
C44   C46   A    
C48   O7    S    
C45   C47   A    
C10   C21   A    
C23   N3    A    
C37   H32   S    
C46   C48   A    
C35   H28   S    
C1    C9    S    
C43   H52   S    
C17   N2    S    
C40   H49   S    
C5    C7    S    
C2    O8    S    
C32   H22   S    
C25   C26   S    
C22   H58   S    
C21   C29   S    
C23   C44   A    
C38   H40   S    
C24   H56   S    
C2    C4    A    
O15   Zn1   S    
C38   C44   S    
C29   C30   S    
C27   H14   S    
C26   H4    S    
C9    C20   A    
C41   H46   S    
C38   H41   S    
C31   C34   S    
H23   O3    S    
C36   C45   S    
C34   C45   A    
C25   H6    S    
C11   O4    S    
C9    C11   A    
C18   O5    S    
C13   O3    S    
C10   C12   S    
C40   C41   S    
C3    C40   S    
C13   C15   A    
C34   N4    A    
C22   C24   S    
C42   C43   S    
C39   H37   S    
C42   H53   S    
N3    Zn2   S    
H7    O5    S    
C28   H11   S    
C15   C17   A    
H1    O16   S    
C4    N4    A    
C31   H24   S    
H8    O6    S    
C36   H36   S    
C6    O13   A    
C25   H5    S    
C10   C13   A    
C6    C8    S    
C32   H21   S    
C20   C27   S    
C28   H10   S    
C2    C47   A    
C22   H57   S    
C24   H55   S    
H42   O7    S    
H34   O4    S    
C26   H3    S    
C33   H29   S    
C41   H47   S    
C12   O11   A    
C4    C42   S    
C3    N3    A    
C30   H15   S    
C17   C19   A    
O12   Zn1   S    
C14   C16   A    
C14   C25   S    
C30   H17   S    
C29   H18   S    
C41   H44   S    
C16   C18   A    
C27   C28   S    
H43   O8    S    
C39   H38   S    
C24   H45   S    
O10   Zn2   S    
