data_mof_unit_45962.cif
_audit_creation_date              2012-10-26T20:20:47-0400
_audit_creation_method            fapswitch 2.2
_symmetry_space_group_name_H-M    P1
_symmetry_Int_Tables_number       1
_space_group_crystal_system       triclinic
_cell_length_a                    8.722252
_cell_length_b                    10.926093
_cell_length_c                    9.535203
_cell_angle_alpha                 89.848274
_cell_angle_beta                  97.960887
_cell_angle_gamma                 90.257611
_cell_volume                      899.937826831

loop_
_atom_site_label
_atom_site_type_symbol
_atom_type_description
_atom_site_fract_x
_atom_site_fract_y
_atom_site_fract_z
_atom_type_partial_charge
C1    C     C_R   0.499609 0.261690 0.500177 0.601121
C2    C     C_R   0.494463 0.059600 0.627911 0.179618
C3    C     C_R   0.499477 0.870981 0.500027 -0.088605
C4    C     C_R   0.499108 0.126921 0.500668 -0.077624
C5    C     C_R   0.373858 0.459951 0.058295 0.076819
C6    C     C_R   0.625500 0.541497 0.941500 0.056712
C7    C     C_R   0.374125 0.459456 0.909956 0.076080
C8    C     C_R   0.625795 0.540782 0.089979 0.078943
C9    C     C_R   0.500029 0.737568 0.499945 0.612267
C10   C     C_R   0.203783 0.500003 0.463723 0.570917
C11   C     C_R   0.796214 0.500136 0.536277 0.560068
C12   C     C_2   0.037872 0.500219 0.443781 -0.091602
C13   C     C_2   0.962120 0.500341 0.556218 -0.114711
C14   C     C_R   0.502864 0.060593 0.373275 0.192952
C15   C     C_R   0.455242 0.935763 0.615883 0.194382
C16   C     C_R   0.542742 0.937343 0.384443 0.148755
Cu1   Cu    Cu3+1 0.500000 0.500020 0.640660 1.072323
Cu2   Cu    Cu3+1 0.500000 0.499980 0.359340 1.104358
H1    H     H_    0.977864 0.500149 0.335956 0.132941
H2    H     H_    0.725698 0.252689 0.890643 0.368344
H3    H     H_    0.022124 0.500504 0.664044 0.113590
H4    H     H_    0.272149 0.428205 0.100520 0.129012
H5    H     H_    0.725932 0.575837 0.898907 0.126302
H6    H     H_    0.273243 0.425832 0.842216 0.123914
H7    H     H_    0.726604 0.574521 0.157697 0.158565
H8    H     H_    0.214129 0.205694 0.116783 0.366248
H9    H     H_    0.144696 0.737584 0.707342 0.355332
H10   H     H_    0.848424 0.825862 0.435889 0.346705
N1    N     N_R   0.500040 0.500030 0.852080 -0.224670
N2    N     N_R   0.499960 0.499970 0.147920 -0.222040
O1    O     O_R   0.499990 0.319660 0.618740 -0.444049
O2    O     O_2   0.382259 0.014160 0.102597 -0.136193
O3    O     O_3   0.271181 0.203586 0.214089 -0.535182
O4    O     O_2   0.420994 0.803462 0.848951 -0.197326
O5    O     O_2   0.239289 0.972079 0.788979 -0.189304
O6    O     O_3   0.202593 0.775958 0.636288 -0.536772
O7    O     O_2   0.572019 0.810921 0.148068 -0.168705
O8    O     O_2   0.755690 0.978334 0.209129 -0.186426
O9    O     O_3   0.793656 0.778255 0.355758 -0.532429
O10   O     O_2   0.427879 0.188373 0.850017 -0.233876
O11   O     O_2   0.604726 0.015229 0.901673 -0.123886
O12   O     O_R   0.500010 0.680340 0.381260 -0.437676
O13   O     O_3   0.712562 0.210531 0.797868 -0.511642
O14   O     O_R   0.499990 0.319630 0.381170 -0.437020
O15   O     O_R   0.500010 0.680370 0.618830 -0.449047
O16   O     O_R   0.274840 0.500010 0.591370 -0.515754
O17   O     O_R   0.725160 0.499990 0.408630 -0.505832
O18   O     O_R   0.274830 0.499980 0.353800 -0.508477
O19   O     O_R   0.725170 0.500020 0.646200 -0.520542
O20   O     O_2   0.550637 0.194398 0.146299 -0.214156
S1    S     S_3+6 0.428908 0.118067 0.202591 0.125062
S2    S     S_3+6 0.328883 0.872227 0.729314 0.105274
S3    S     S_3+6 0.666801 0.876857 0.268336 0.099914
S4    S     S_3+6 0.557911 0.118227 0.800346 0.127028

loop_
_geom_bond_atom_site_label_1
_geom_bond_atom_site_label_2
_ccdc_geom_bond_type
C10   O16   A    
C2    C4    A    
O2    S1    D    
C9    O15   A    
C7    N1    A    
Cu2   O14   S    
H9    O6    S    
O3    S1    S    
Cu1   N1    S    
O13   S4    S    
C11   O17   A    
C14   S1    S    
O6    S2    S    
C1    C4    S    
O7    S3    D    
Cu2   O17   S    
H2    O13   S    
Cu1   Cu2   S    
C13   H3    S    
C15   S2    S    
Cu1   O16   S    
C10   O18   A    
C2    C15   A    
C11   C13   S    
C9    O12   A    
O9    S3    S    
O8    S3    D    
C10   C12   S    
C11   O19   A    
C6    H5    S    
C12   H1    S    
C3    C9    S    
Cu1   O15   S    
O20   S1    D    
O10   S4    D    
Cu2   O12   S    
C4    C14   A    
Cu2   N2    S    
Cu1   O1    S    
C14   C16   A    
O11   S4    D    
C3    C16   A    
C8    H7    S    
C7    H6    S    
C1    O1    A    
C6    N1    A    
C3    C15   A    
C12   C13   D    
C5    N2    A    
C2    S4    S    
Cu1   O19   S    
O5    S2    D    
C5    C7    A    
C16   S3    S    
C6    C8    A    
C1    O14   A    
H10   O9    S    
C8    N2    A    
O4    S2    D    
C5    H4    S    
H8    O3    S    
Cu2   O18   S    
