data_mof_unit_64067.cif
_audit_creation_date              2012-12-10T20:18:50-0500
_audit_creation_method            fapswitch 2.2
_symmetry_space_group_name_H-M    P1
_symmetry_Int_Tables_number       1
_space_group_crystal_system       triclinic
_cell_length_a                    19.330075
_cell_length_b                    18.449655
_cell_length_c                    27.536171
_cell_angle_alpha                 89.908342
_cell_angle_beta                  90.110288
_cell_angle_gamma                 90.044592
_cell_volume                      9820.27947949

loop_
_atom_site_label
_atom_site_type_symbol
_atom_type_description
_atom_site_fract_x
_atom_site_fract_y
_atom_site_fract_z
_atom_type_partial_charge
Br1   Br    Br    0.363772 0.580921 0.372169 -0.460092
Br2   Br    Br    0.478202 0.738046 0.973031 -0.403052
Br3   Br    Br    0.625832 0.427328 0.647303 -0.436225
Br4   Br    Br    0.351280 0.588164 0.251203 -0.336878
Br5   Br    Br    0.606159 0.430103 0.768556 -0.333246
Br6   Br    Br    0.359659 0.572290 0.628808 -0.478082
Br7   Br    Br    0.619191 0.416376 0.350945 -0.456760
Br8   Br    Br    0.401958 0.287731 0.874665 -0.302317
Br9   Br    Br    0.604705 0.681680 0.123365 -0.310789
Br10  Br    Br    0.291289 0.360747 0.027831 -0.406972
C1    C     C_R   0.365661 0.499980 0.499907 0.921518
C2    C     C_R   0.436932 0.444850 0.873203 -0.112570
C3    C     C_R   0.491117 0.500532 0.353502 -0.233419
C4    C     C_R   0.492367 0.500058 0.646404 -0.230152
C5    C     C_R   0.419783 0.454880 0.975267 0.021914
C6    C     C_R   0.479922 0.572785 0.024092 0.024425
C7    C     C_R   0.468381 0.577746 0.973498 0.004321
C8    C     C_R   0.411220 0.460935 0.026131 0.002229
C9    C     C_R   0.445830 0.514617 0.948863 0.056629
C10   C     C_R   0.448736 0.515955 0.050592 0.056681
C11   C     C_R   0.409550 0.389017 0.950825 -0.182345
C12   C     C_R   0.634343 0.500014 0.500113 0.903524
C13   C     C_R   0.526893 0.618519 0.048029 -0.180820
C14   C     C_R   0.417161 0.383292 0.900722 0.335015
C15   C     C_R   0.537252 0.614711 0.097965 0.333673
C16   C     C_R   0.499005 0.500085 0.405982 0.996868
C17   C     C_R   0.499495 0.499969 0.593981 0.997755
C18   C     C_R   0.368931 0.413630 0.053914 0.233620
C19   C     C_R   0.480453 0.641692 0.946110 0.233434
C20   C     C_R   0.745499 0.434091 0.500788 -0.124628
C21   C     C_R   0.254506 0.565895 0.499538 -0.100700
C22   C     C_R   0.254375 0.434113 0.499954 -0.165314
C23   C     C_R   0.456351 0.513156 0.101572 -0.093193
C24   C     C_R   0.745657 0.565875 0.500441 -0.165863
C25   C     C_R   0.817137 0.434092 0.500974 -0.149064
C26   C     C_R   0.182871 0.565883 0.499604 -0.146164
C27   C     C_R   0.182737 0.434182 0.499988 -0.149567
C28   C     C_R   0.817301 0.565793 0.500655 -0.150296
C29   C     C_R   0.853143 0.499921 0.500847 0.106395
C30   C     C_R   0.146883 0.500045 0.499866 0.104360
C31   C     C_R   0.709446 0.500004 0.500433 -0.023899
C32   C     C_R   0.290566 0.499986 0.499783 -0.015520
C33   C     C_R   0.964521 0.544557 0.532965 -0.159613
C34   C     C_R   0.451323 0.510608 0.897810 -0.094101
C35   C     C_R   0.035507 0.455376 0.467819 -0.157675
C36   C     C_R   0.036170 0.544643 0.532681 -0.158891
C37   C     C_R   0.963866 0.455290 0.468102 -0.159224
C38   C     C_R   0.071770 0.500053 0.500105 0.097451
C39   C     C_R   0.928260 0.499878 0.500676 0.096812
C40   C     C_R   0.545786 0.725866 0.528595 0.048149
C41   C     C_R   0.454684 0.274067 0.471084 0.049551
C42   C     C_R   0.454169 0.726017 0.471495 0.058480
C43   C     C_R   0.545367 0.274082 0.528927 0.054906
C44   C     C_R   0.546663 0.801888 0.529205 -0.252999
C45   C     C_R   0.420338 0.459855 0.128124 -0.069510
C46   C     C_R   0.453855 0.198050 0.470534 -0.252568
C47   C     C_R   0.453343 0.802031 0.470937 -0.250339
C48   C     C_R   0.546284 0.198063 0.529505 -0.250196
C49   C     C_R   0.500033 0.841345 0.500070 0.109751
C50   C     C_R   0.500091 0.158652 0.500026 0.110434
C51   C     C_R   0.428614 0.456601 0.178417 0.599005
C52   C     C_R   0.480518 0.567613 0.821411 0.583955
C53   C     C_R   0.487996 0.962020 0.457016 -0.159351
C54   C     C_R   0.512205 0.037934 0.543089 -0.159225
C55   C     C_R   0.512210 0.961856 0.543096 -0.157657
C56   C     C_R   0.472492 0.572366 0.871593 -0.068116
C57   C     C_R   0.488041 0.038094 0.456999 -0.157991
C58   C     C_R   0.500122 0.077298 0.500038 0.111444
C59   C     C_R   0.500083 0.922674 0.500063 0.111518
C60   C     C_R   0.506282 0.557411 0.176694 0.600685
C61   C     C_R   0.444840 0.443585 0.822291 0.611534
C62   C     C_R   0.531963 0.465946 0.274052 -0.158849
C63   C     C_R   0.425432 0.531302 0.717211 -0.153925
C64   C     C_R   0.539763 0.464740 0.324213 0.219392
C65   C     C_R   0.433065 0.531315 0.667189 0.217698
C66   C     C_R   0.434056 0.536517 0.332346 0.157127
C67   C     C_R   0.375028 0.412616 0.104253 -0.128139
C68   C     C_R   0.543823 0.468592 0.675945 0.155075
C69   C     C_R   0.427040 0.537773 0.281751 0.318051
C70   C     C_R   0.535839 0.469482 0.726568 0.317069
C71   C     C_R   0.476227 0.502389 0.252927 0.123231
C72   C     C_R   0.476314 0.500880 0.746813 0.121551
C73   C     C_R   0.483773 0.637961 0.895758 -0.132732
C74   C     C_R   0.500449 0.562854 0.125789 -0.110262
H1    H     H_    0.937398 0.578591 0.558675 0.149750
H2    H     H_    0.416597 0.170462 0.447708 0.146603
H3    H     H_    0.415745 0.829692 0.448399 0.153471
H4    H     H_    0.583569 0.170489 0.552343 0.151672
H5    H     H_    0.479636 0.933997 0.422995 0.151116
H6    H     H_    0.520515 0.065927 0.577124 0.151189
H7    H     H_    0.520554 0.933700 0.577125 0.150096
H8    H     H_    0.479741 0.066214 0.422954 0.149482
H9    H     H_    0.844467 0.382853 0.501637 0.144268
H10   H     H_    0.155526 0.617115 0.498995 0.144699
H11   H     H_    0.155294 0.382967 0.500664 0.143576
H12   H     H_    0.062625 0.421357 0.442096 0.150747
H13   H     H_    0.844759 0.617003 0.500080 0.143458
H14   H     H_    0.342952 0.375400 0.124751 0.223316
H15   H     H_    0.494407 0.687125 0.875526 0.222545
H16   H     H_    0.379797 0.555155 0.733404 0.194215
H17   H     H_    0.569685 0.439271 0.251203 0.193515
H18   H     H_    0.399921 0.339710 0.970850 0.210945
H19   H     H_    0.559541 0.655009 0.027666 0.210311
H20   H     H_    0.718503 0.382619 0.500976 0.167126
H21   H     H_    0.281502 0.617366 0.499241 0.171878
H22   H     H_    0.281263 0.382624 0.500208 0.160987
H23   H     H_    0.063816 0.578715 0.558195 0.152182
H24   H     H_    0.718778 0.617369 0.500131 0.160886
H25   H     H_    0.936230 0.421236 0.442573 0.151896
H26   H     H_    0.581890 0.695839 0.550939 0.133709
H27   H     H_    0.418903 0.304042 0.448452 0.134083
H28   H     H_    0.417962 0.696139 0.449209 0.165646
H29   H     H_    0.581115 0.304070 0.551550 0.156534
H30   H     H_    0.584248 0.829447 0.551783 0.146637
N1    N     N_R   0.470726 0.505014 0.201318 -0.341003
N2    N     N_R   0.467514 0.503852 0.798191 -0.339841
N3    N     N_R   0.500000 0.689440 0.500000 -0.102449
N4    N     N_R   0.500000 0.310560 0.500000 -0.103148
O1    O     O_R   0.398180 0.560840 0.499990 -0.605872
O2    O     O_2   0.501713 0.626026 0.795827 -0.524125
O3    O     O_2   0.430031 0.383489 0.796573 -0.465041
O4    O     O_2   0.546059 0.604042 0.201966 -0.468014
O5    O     O_R   0.601820 0.439160 0.500010 -0.615449
O6    O     O_R   0.601820 0.560840 0.500010 -0.639232
O7    O     O_R   0.398180 0.439160 0.499990 -0.641161
O8    O     O_R   0.500010 0.560810 0.428750 -0.597586
O9    O     O_R   0.499990 0.439190 0.571250 -0.599966
O10   O     O_R   0.499990 0.560810 0.571250 -0.597356
O11   O     O_R   0.500010 0.439190 0.428750 -0.597779
O12   O     O_2   0.394737 0.405741 0.204475 -0.520325
Zn1   Zn    Zn3+2 0.500000 0.581210 0.500000 1.004666
Zn2   Zn    Zn3+2 0.500000 0.418790 0.500000 1.001205

loop_
_geom_bond_atom_site_label_1
_geom_bond_atom_site_label_2
_ccdc_geom_bond_type
C23   C45   A    
C63   H16   S    
C21   C32   A    
O5    Zn2   S    
C5    C8    A    
C40   N3    A    
C7    C19   A    
C34   C56   A    
C66   C69   A    
C54   H6    S    
C1    O1    A    
Br9   C15   S    
Br6   C65   S    
C37   C39   A    
C5    C9    A    
C40   C44   A    
C20   C25   A    
Br2   C19   S    
C54   C58   A    
C1    O7    A    
C19   C73   A    
C27   C30   A    
C28   C29   A    
C45   C67   A    
C68   C70   A    
C47   C49   A    
C12   C31   S    
C62   H17   S    
C42   H28   S    
C48   C50   A    
C45   C51   A    
C40   H26   S    
C41   N4    A    
C27   H11   S    
C1    C32   S    
C30   C38   S    
C41   C46   A    
C16   O8    A    
O9    Zn2   S    
Br8   C14   S    
C56   C73   A    
C17   O9    A    
C13   H19   S    
C53   C59   A    
C6    C7    A    
C51   N1    A    
C15   C74   A    
O1    Zn1   S    
C20   C31   A    
C4    C17   S    
C60   C74   A    
C52   O2    S    
C62   C71   A    
O11   Zn2   S    
C42   N3    A    
C25   H9    S    
C22   H22   S    
C63   C65   A    
C53   H5    S    
C24   C31   A    
C28   H13   S    
C33   C36   A    
C43   H29   S    
Br7   C64   S    
C36   C38   A    
C44   C49   A    
C35   C37   A    
C53   C57   A    
C52   C56   A    
C57   C58   A    
C33   H1    S    
C26   C30   A    
C8    C18   A    
Br4   C69   S    
C70   C72   A    
C69   C71   A    
C43   N4    A    
C33   C39   A    
C37   H25   S    
C46   C50   A    
O6    Zn1   S    
C25   C29   A    
C52   N2    A    
C47   H3    S    
C17   O10   A    
C60   O4    S    
C46   H2    S    
C3    C66   A    
C6    C10   A    
C36   H23   S    
C71   N1    S    
C67   H14   S    
C22   C27   A    
Br5   C70   S    
C18   C67   A    
C16   O11   A    
C51   O12   S    
C49   C59   S    
C11   H18   S    
C62   C64   A    
C29   C39   S    
C2    C61   A    
C6    C13   A    
C3    C16   S    
C10   C23   A    
O10   Zn1   S    
C63   C72   A    
C9    C34   A    
C12   O5    A    
C35   C38   A    
Br10  C18   S    
C55   H7    S    
C41   H27   S    
C24   C28   A    
Br1   C66   S    
C61   O3    S    
C48   H4    S    
C43   C48   A    
C12   O6    A    
C60   N1    A    
C2    C14   A    
C24   H24   S    
C4    C65   A    
C72   N2    S    
C2    C34   A    
C54   C55   A    
C35   H12   S    
O7    Zn2   S    
O8    Zn1   S    
C55   C59   A    
C44   H30   S    
C57   H8    S    
C7    C9    A    
C61   N2    A    
C8    C10   A    
C4    C68   A    
N3    Zn1   S    
C23   C74   A    
N4    Zn2   S    
C42   C47   A    
C26   H10   S    
C5    C11   A    
C13   C15   A    
C3    C64   A    
C50   C58   S    
C21   H21   S    
C11   C14   A    
C20   H20   S    
C22   C32   A    
C21   C26   A    
C73   H15   S    
Br3   C68   S    
