data_mof_unit_12433.cif
_audit_creation_date              2012-12-10T18:06:40-0500
_audit_creation_method            fapswitch 2.2
_symmetry_space_group_name_H-M    P1
_symmetry_Int_Tables_number       1
_space_group_crystal_system       triclinic
_cell_length_a                    12.602696
_cell_length_b                    13.125794
_cell_length_c                    15.458584
_cell_angle_alpha                 83.325118
_cell_angle_beta                  98.67001
_cell_angle_gamma                 96.853534
_cell_volume                      2497.27492797

loop_
_atom_site_label
_atom_site_type_symbol
_atom_type_description
_atom_site_fract_x
_atom_site_fract_y
_atom_site_fract_z
_atom_type_partial_charge
C1    C     C_R   0.442035 0.308560 0.506912 0.856204
C2    C     C_R   0.461270 0.575251 0.096776 0.022190
C3    C     C_R   0.356070 0.600847 0.061662 0.030078
C4    C     C_R   0.540301 0.575335 0.040747 0.104796
C5    C     C_R   0.507001 0.580868 0.949223 0.077041
C6    C     C_R   0.403736 0.611830 0.915338 -0.244056
C7    C     C_R   0.330299 0.623700 0.971090 -0.169017
C8    C     C_R   0.650744 0.567847 0.073007 -0.230339
C9    C     C_R   0.723189 0.552965 0.017282 -0.223725
C10   C     C_R   0.686587 0.540731 0.929120 0.166530
C11   C     C_R   0.577588 0.553168 0.894994 0.090367
C12   C     C_R   0.436354 0.515499 0.335887 0.883833
C13   C     C_R   0.756574 0.513762 0.874958 -0.186647
C14   C     C_R   0.717972 0.495225 0.788184 -0.198796
C15   C     C_R   0.539820 0.529654 0.809473 -0.235160
C16   C     C_R   0.636647 0.941036 0.363309 -0.194146
C17   C     C_R   0.582723 0.801146 0.468577 -0.154503
C18   C     C_R   0.328854 0.158107 0.566483 -0.185478
C19   C     C_R   0.305524 0.052098 0.582058 -0.174423
C20   C     C_R   0.363751 0.986530 0.547749 -0.098807
C21   C     C_R   0.444271 0.026858 0.494599 0.104696
C22   C     C_R   0.452825 0.132880 0.466186 0.084894
C23   C     C_R   0.556170 0.691636 0.489198 0.926395
C24   C     C_R   0.514509 0.965302 0.466555 -0.047315
C25   C     C_R   0.573366 0.004465 0.396147 0.109129
C26   C     C_R   0.567220 0.105887 0.359069 -0.211472
C27   C     C_R   0.508772 0.169945 0.394435 -0.200547
C28   C     C_R   0.530350 0.866792 0.507804 0.536212
C29   C     C_R   0.638560 0.838354 0.397714 -0.281201
C30   C     C_R   0.404634 0.198970 0.510402 -0.117037
C31   C     C_R   0.138594 0.641046 0.623039 -0.310113
C32   C     C_R   0.757499 0.380808 0.395336 0.024284
C33   C     C_R   0.852757 0.355205 0.373152 -0.244232
C34   C     C_R   0.565444 0.490183 0.663755 0.876574
C35   C     C_R   0.950521 0.400158 0.413176 -0.183758
C36   C     C_R   0.952806 0.471496 0.475668 0.015824
C37   C     C_R   0.853431 0.494705 0.495943 0.231102
C38   C     C_R   0.049019 0.520737 0.518414 -0.009744
C39   C     C_R   0.044146 0.591747 0.580343 0.193046
C40   C     C_R   0.945160 0.613018 0.598849 -0.282363
C41   C     C_R   0.851072 0.565197 0.556896 -0.212117
C42   C     C_R   0.150784 0.502652 0.502222 -0.052207
C43   C     C_R   0.236767 0.619640 0.603933 0.017451
C44   C     C_R   0.404552 0.540857 0.241644 -0.144326
C45   C     C_R   0.608734 0.501957 0.755653 -0.056641
C46   C     C_R   0.277852 0.600598 0.117713 0.618612
C47   C     C_R   0.302433 0.571308 0.207506 -0.275748
C48   C     C_R   0.482191 0.542272 0.186081 -0.270861
H1    H     H_    0.251539 0.646255 0.942692 0.197098
H2    H     H_    0.840578 0.505904 0.899990 0.151668
H3    H     H_    0.679239 0.787249 0.366700 0.186289
H4    H     H_    0.609605 0.136427 0.304088 0.139821
H5    H     H_    0.680326 0.969468 0.308636 0.155040
H6    H     H_    0.289132 0.208013 0.599515 0.164592
H7    H     H_    0.341494 0.904792 0.560640 0.194378
H8    H     H_    0.244916 0.020608 0.623352 0.151286
H9    H     H_    0.505242 0.247984 0.363573 0.151317
H10   H     H_    0.311269 0.656640 0.636060 0.164210
H11   H     H_    0.455173 0.529301 0.784606 0.159975
H12   H     H_    0.940344 0.667058 0.645766 0.163634
H13   H     H_    0.136428 0.695285 0.670379 0.148645
H14   H     H_    0.163251 0.450496 0.456794 0.126737
H15   H     H_    0.681019 0.346929 0.364186 0.129659
H16   H     H_    0.022144 0.377700 0.393617 0.139658
H17   H     H_    0.850869 0.300977 0.325116 0.150623
H18   H     H_    0.777533 0.585212 0.573272 0.218122
H19   H     H_    0.773188 0.475529 0.746928 0.166542
H20   H     H_    0.806922 0.546336 0.044146 0.167475
H21   H     H_    0.241666 0.572079 0.249995 0.187157
H22   H     H_    0.558255 0.513809 0.213045 0.174335
H23   H     H_    0.378619 0.629290 0.845780 0.151605
H24   H     H_    0.683518 0.575343 0.140910 0.154013
N1    N     N_R   0.239390 0.551900 0.544730 -0.106615
N2    N     N_R   0.759950 0.448600 0.455730 -0.130191
O1    O     O_R   0.374950 0.371210 0.521360 -0.617451
O2    O     O_R   0.542050 0.338030 0.492790 -0.605528
O3    O     O_R   0.368720 0.526070 0.390200 -0.619623
O4    O     O_R   0.535820 0.492890 0.361630 -0.632585
O5    O     O_R   0.457950 0.661970 0.507210 -0.569921
O6    O     O_R   0.625050 0.628790 0.478640 -0.646897
O7    O     O_R   0.464180 0.507110 0.638370 -0.613246
O8    O     O_R   0.631280 0.473930 0.609800 -0.633235
Zn1   Zn    Zn3+2 0.388420 0.522150 0.519080 0.957496
Zn2   Zn    Zn3+2 0.611580 0.477850 0.480920 0.927786
F1    F     F_    0.497801 0.833268 0.587167 -0.696247
F2    F     F_    0.177421 0.627061 0.085588 -0.682098

loop_
_geom_bond_atom_site_label_1
_geom_bond_atom_site_label_2
_ccdc_geom_bond_type
C19   H8    S    
C43   N1    A    
C37   N2    A    
C40   H12   S    
C17   C29   A    
C31   H13   S    
C35   C36   A    
O6    Zn2   S    
O2    Zn2   S    
C33   H17   S    
C26   C27   A    
C17   C23   S    
C31   C43   A    
C36   C37   A    
C38   C42   A    
C3    C7    A    
C32   N2    A    
C5    C6    A    
O3    Zn1   S    
C18   C19   A    
C16   H5    S    
C47   H21   S    
C43   H10   S    
C11   C15   A    
C19   C20   A    
C8    C9    A    
C12   O4    A    
C14   H19   S    
C35   H16   S    
C18   C30   A    
C34   O7    A    
C23   O6    A    
C9    C10   A    
C42   H14   S    
C44   C47   A    
C4    C8    A    
C21   C22   A    
C17   C28   A    
C20   H7    S    
O7    Zn1   S    
C14   C45   A    
C6    H23   S    
C8    H24   S    
C1    O1    A    
C24   C25   A    
C7    H1    S    
C27   H9    S    
C48   H22   S    
C39   C40   A    
C2    C48   A    
C25   C26   A    
C2    C4    A    
C26   H4    S    
C12   O3    A    
C34   C45   S    
C6    C7    A    
C40   C41   A    
O8    Zn2   S    
C22   C27   A    
C15   C45   A    
C29   H3    S    
C16   C25   A    
C46   C47   A    
C42   N1    A    
C22   C30   A    
C1    O2    A    
C15   H11   S    
C24   C28   A    
C32   H15   S    
N2    Zn2   S    
C4    C5    A    
C10   C13   A    
C5    C11   A    
C41   H18   S    
C3    C46   A    
C32   C33   A    
C36   C38   A    
C2    C3    A    
C16   C29   A    
C9    H20   S    
C12   C44   S    
O5    Zn1   S    
O1    Zn1   S    
C38   C39   A    
C1    C30   S    
C33   C35   A    
C31   C39   A    
C37   C41   A    
C10   C11   A    
C18   H6    S    
C13   H2    S    
O4    Zn2   S    
C20   C21   A    
C21   C24   A    
C28   F1    S    
C34   O8    A    
C23   O5    A    
C13   C14   A    
N1    Zn1   S    
C44   C48   A    
C46   F2    S    
