data_mof_unit_32817.cif
_audit_creation_date              2012-12-10T18:03:18-0500
_audit_creation_method            fapswitch 2.2
_symmetry_space_group_name_H-M    P1
_symmetry_Int_Tables_number       1
_space_group_crystal_system       triclinic
_cell_length_a                    10.87323
_cell_length_b                    9.525176
_cell_length_c                    15.20246
_cell_angle_alpha                 89.989041
_cell_angle_beta                  90.735317
_cell_angle_gamma                 90.006037
_cell_volume                      1574.38040891

loop_
_atom_site_label
_atom_site_type_symbol
_atom_type_description
_atom_site_fract_x
_atom_site_fract_y
_atom_site_fract_z
_atom_type_partial_charge
C1    C     C_R   0.262096 0.499998 0.500115 0.912439
C2    C     C_R   0.737904 0.500009 0.499825 0.912094
C3    C     C_R   0.500509 0.499603 0.329685 0.751556
C4    C     C_R   0.499423 0.499576 0.670313 0.751597
C5    C     C_R   0.414538 0.074518 0.452090 0.549081
C6    C     C_R   0.586999 0.926119 0.546385 0.536804
C7    C     C_R   0.585476 0.074511 0.547900 0.549064
C8    C     C_R   0.412991 0.926129 0.453628 0.536543
C9    C     C_R   0.063433 0.372401 0.498180 0.483832
C10   C     C_R   0.936532 0.627658 0.498849 0.480780
C11   C     C_R   0.936517 0.372381 0.500585 0.484872
C12   C     C_R   0.063517 0.627631 0.501802 0.480491
C13   C     C_R   0.415216 0.573280 0.091194 -0.185407
C14   C     C_R   0.416332 0.408085 0.905241 -0.190044
C15   C     C_R   0.584167 0.573285 0.908861 -0.185363
C16   C     C_R   0.582956 0.407987 0.094690 -0.189952
C17   C     C_R   0.414299 0.579053 0.183012 0.041772
C18   C     C_R   0.414635 0.408966 0.813199 0.073821
C19   C     C_R   0.585332 0.578985 0.817047 0.041738
C20   C     C_R   0.584925 0.408977 0.186729 0.073603
C21   C     C_R   0.500622 0.497034 0.232458 -0.045733
C22   C     C_R   0.499099 0.496970 0.767536 -0.045768
C23   C     C_R   0.498932 0.489194 0.047791 0.053853
C24   C     C_R   0.500285 0.489281 0.952202 0.053833
C25   C     C_R   0.871758 0.500024 0.499730 -0.517931
C26   C     C_R   0.128242 0.500011 0.500063 -0.517601
Cu1   Cu    Cu3+1 0.500000 0.640660 0.500000 1.074241
Cu2   Cu    Cu3+1 0.500000 0.359340 0.500000 1.079058
H1    H     H_    0.349971 0.634550 0.052632 0.137961
H2    H     H_    0.351187 0.344378 0.941078 0.140295
H3    H     H_    0.649394 0.634489 0.947472 0.137964
H4    H     H_    0.648015 0.344273 0.058797 0.140319
N1    N     N_R   0.500000 0.852070 0.500000 -0.342433
N2    N     N_R   0.500000 0.147930 0.500000 -0.359828
O1    O     O_R   0.319640 0.618740 0.499990 -0.484343
O2    O     O_R   0.680360 0.381260 0.500010 -0.489382
O3    O     O_R   0.680360 0.618740 0.500010 -0.484494
O4    O     O_R   0.319640 0.381260 0.499990 -0.489846
O5    O     O_R   0.499990 0.618780 0.371460 -0.577581
O6    O     O_R   0.500010 0.381220 0.628540 -0.564931
O7    O     O_R   0.500010 0.618780 0.628540 -0.577229
O8    O     O_R   0.499990 0.381220 0.371460 -0.564608
F1    F     F_    0.330250 0.143986 0.402184 -0.552052
F2    F     F_    0.676748 0.857788 0.591138 -0.588178
F3    F     F_    0.669831 0.143974 0.597751 -0.552719
F4    F     F_    0.323172 0.857809 0.408954 -0.588933
C27   C     C_3   0.316584 0.670498 0.223823 -0.377191
C28   C     C_3   0.208597 0.582853 0.257374 -0.352450
C29   C     C_3   0.099546 0.676533 0.280180 -0.715480
H5    H     H_    0.127381 0.757095 0.329167 0.343759
H6    H     H_    0.063669 0.729847 0.220150 0.233523
H7    H     H_    0.024499 0.612405 0.308135 0.211798
H8    H     H_    0.178340 0.507055 0.205832 0.220308
H9    H     H_    0.237697 0.522394 0.316413 0.226077
H10   H     H_    0.356857 0.736287 0.276262 0.275002
H11   H     H_    0.280553 0.746600 0.174260 0.193631
C30   C     C_3   0.317964 0.317661 0.768455 -0.395550
C31   C     C_3   0.204220 0.403239 0.741669 -0.403078
C32   C     C_3   0.097352 0.306327 0.716816 -0.722418
H12   H     H_    0.125636 0.231090 0.665135 0.310099
H13   H     H_    0.066986 0.246383 0.775367 0.243201
H14   H     H_    0.018387 0.368833 0.691759 0.230527
H15   H     H_    0.175206 0.471052 0.797227 0.226696
H16   H     H_    0.226404 0.471890 0.685056 0.211829
H17   H     H_    0.354834 0.259969 0.711444 0.230717
H18   H     H_    0.288882 0.233521 0.814576 0.195530
C33   C     C_3   0.683275 0.670235 0.776312 -0.377317
C34   C     C_3   0.791125 0.582365 0.742815 -0.352131
C35   C     C_3   0.900594 0.675733 0.720538 -0.715743
H19   H     H_    0.873206 0.757001 0.671858 0.343616
H20   H     H_    0.936526 0.728171 0.780837 0.233112
H21   H     H_    0.975434 0.611500 0.692421 0.212291
H22   H     H_    0.820889 0.506071 0.794208 0.220368
H23   H     H_    0.762102 0.522473 0.683558 0.226069
H24   H     H_    0.643195 0.736130 0.723843 0.275037
H25   H     H_    0.719381 0.746233 0.825903 0.193676
C36   C     C_3   0.681860 0.317903 0.231378 -0.395348
C37   C     C_3   0.795556 0.403766 0.257978 -0.402013
C38   C     C_3   0.903168 0.307191 0.281621 -0.722663
H26   H     H_    0.875761 0.230603 0.332771 0.310566
H27   H     H_    0.933396 0.248819 0.222455 0.242402
H28   H     H_    0.981972 0.369748 0.306884 0.230804
H29   H     H_    0.823642 0.472640 0.202661 0.226501
H30   H     H_    0.773717 0.471392 0.315119 0.211610
H31   H     H_    0.645254 0.260153 0.288478 0.230754
H32   H     H_    0.710906 0.233804 0.185238 0.195611
F5    F     F_    0.121855 0.246542 0.494939 -0.539027
F6    F     F_    0.878058 0.753538 0.495821 -0.538793
F7    F     F_    0.878043 0.246473 0.502817 -0.539745
F8    F     F_    0.122045 0.753452 0.505730 -0.539422

loop_
_geom_bond_atom_site_label_1
_geom_bond_atom_site_label_2
_ccdc_geom_bond_type
C3    O8    A    
C14   C18   A    
C30   H18   S    
C36   C37   S    
Cu1   N1    S    
C28   H9    S    
C10   F6    S    
C20   C36   S    
C7    F3    S    
C12   F8    S    
C4    O7    A    
Cu2   O6    S    
C34   H23   S    
C13   C23   A    
C14   C24   A    
C35   H20   S    
C11   F7    S    
C37   H29   S    
C4    O6    A    
Cu1   O5    S    
C34   C35   S    
C29   H6    S    
C23   C24   S    
C19   C33   S    
C5    F1    S    
Cu2   N2    S    
C32   H12   S    
C6    F2    S    
C14   H2    S    
C9    C26   A    
C31   H16   S    
C28   H8    S    
C32   H13   S    
C33   C34   S    
C19   C22   A    
C38   H27   S    
C37   C38   S    
Cu1   O1    S    
C31   C32   S    
C17   C21   A    
C12   C26   A    
C35   H21   S    
C15   C19   A    
C5    C8    A    
C4    C22   S    
Cu1   O7    S    
C18   C30   S    
C27   C28   S    
Cu2   O4    S    
C16   C20   A    
C29   H7    S    
C5    N2    A    
C9    C11   A    
C10   C12   A    
C1    O4    A    
C10   C25   A    
C28   C29   S    
C36   H32   S    
C16   C23   A    
C1    C26   S    
C7    N2    A    
C3    C21   S    
C33   H24   S    
C13   H1    S    
C1    O1    A    
C27   H10   S    
C2    O2    A    
C31   H15   S    
C15   C24   A    
C32   H14   S    
C18   C22   A    
C17   C27   S    
C30   H17   S    
C38   H28   S    
C15   H3    S    
C6    C7    A    
C16   H4    S    
C6    N1    A    
C13   C17   A    
C34   H22   S    
C9    F5    S    
C2    O3    A    
C30   C31   S    
Cu1   O3    S    
Cu2   O8    S    
C2    C25   S    
C8    N1    A    
C35   H19   S    
C8    F4    S    
C36   H31   S    
C38   H26   S    
C37   H30   S    
C20   C21   A    
Cu2   O2    S    
C29   H5    S    
Cu1   Cu2   S    
C11   C25   A    
C33   H25   S    
C3    O5    A    
C27   H11   S    
