data_mof_unit_26556.cif
_audit_creation_date              2012-12-10T18:43:07-0500
_audit_creation_method            fapswitch 2.2
_symmetry_space_group_name_H-M    P1
_symmetry_Int_Tables_number       1
_space_group_crystal_system       triclinic
_cell_length_a                    10.635259
_cell_length_b                    9.903622
_cell_length_c                    10.724128
_cell_angle_alpha                 90.279554
_cell_angle_beta                  91.28802
_cell_angle_gamma                 89.866578
_cell_volume                      1129.24487921

loop_
_atom_site_label
_atom_site_type_symbol
_atom_type_description
_atom_site_fract_x
_atom_site_fract_y
_atom_site_fract_z
_atom_type_partial_charge
C1    C     C_R   0.260583 0.500013 0.492705 0.867568
C2    C     C_R   0.739537 0.499510 0.496196 0.863811
C3    C     C_R   0.499285 0.499596 0.262664 0.902807
C4    C     C_R   0.505292 0.500240 0.737320 0.935208
C5    C     C_2   0.525045 0.386990 0.933355 -0.150291
C6    C     C_2   0.532403 0.389827 0.067749 -0.181167
C7    C     C_2   0.524385 0.501790 0.868813 -0.340740
C8    C     C_2   0.494973 0.498870 0.130582 -0.321387
C9    C     C_R   0.063502 0.428263 0.386844 0.088024
C10   C     C_R   0.931401 0.423590 0.390767 0.077279
C11   C     C_R   0.871859 0.498494 0.485762 -0.066049
C12   C     C_R   0.127971 0.500433 0.482774 -0.062966
C13   C     C_R   0.938231 0.575127 0.573613 -0.200501
C14   C     C_R   0.066269 0.574615 0.573178 -0.186565
C15   C     C_R   0.586606 0.073318 0.568965 -0.060533
C16   C     C_R   0.413659 0.073023 0.430694 -0.055043
C17   C     C_R   0.587472 0.929819 0.570241 0.038998
C18   C     C_R   0.412753 0.929500 0.429381 0.037100
H1    H     H_    0.517881 0.288926 0.887887 0.180376
H2    H     H_    0.563622 0.298744 0.115145 0.174151
H3    H     H_    0.541422 0.599671 0.911612 0.153595
H4    H     H_    0.456983 0.588728 0.086310 0.152871
H5    H     H_    0.890652 0.631832 0.645415 0.163876
H6    H     H_    0.117733 0.630560 0.644944 0.163711
H7    H     H_    0.654597 0.130114 0.624385 0.175055
H8    H     H_    0.345906 0.129545 0.375050 0.168277
N1    N     N_R   0.500000 0.857200 0.500000 -0.171509
N2    N     N_R   0.500000 0.142810 0.500000 -0.125645
O1    O     O_R   0.316770 0.614620 0.499990 -0.638247
O2    O     O_R   0.683230 0.614620 0.500010 -0.638344
O3    O     O_R   0.316800 0.385290 0.500000 -0.617629
O4    O     O_R   0.683200 0.385290 0.500000 -0.621550
O5    O     O_R   0.500000 0.614630 0.319080 -0.648256
O6    O     O_R   0.500000 0.614630 0.680920 -0.648711
O7    O     O_R   0.500030 0.385300 0.319080 -0.628734
O8    O     O_R   0.499970 0.385300 0.680920 -0.604722
Zn1   Zn    Zn3+2 0.500000 0.653120 0.500000 0.919482
Zn2   Zn    Zn3+2 0.500000 0.346880 0.500000 0.932882
C19   C     C_3   0.133234 0.369783 0.275696 -0.443559
C20   C     C_3   0.137987 0.473047 0.169659 -0.360466
C21   C     C_3   0.177968 0.406751 0.047989 -0.838958
H9    H     H_    0.103958 0.335951 0.013651 0.262471
H10   H     H_    0.192109 0.485365 0.976200 0.252354
H11   H     H_    0.267087 0.349936 0.062248 0.277565
H12   H     H_    0.044320 0.520821 0.153964 0.234578
H13   H     H_    0.206047 0.553970 0.195786 0.216735
H14   H     H_    0.230665 0.339367 0.300015 0.217770
H15   H     H_    0.089303 0.274656 0.242365 0.223848
C22   C     C_3   0.854702 0.339847 0.296322 -0.438020
C23   C     C_3   0.847775 0.191527 0.337781 -0.279286
C24   C     C_3   0.754080 0.111303 0.257375 -0.848501
H16   H     H_    0.778504 0.117678 0.157417 0.260158
H17   H     H_    0.756108 0.003688 0.286005 0.258186
H18   H     H_    0.657429 0.150714 0.270145 0.264508
H19   H     H_    0.941666 0.143099 0.331882 0.230552
H20   H     H_    0.818977 0.185438 0.436478 0.248191
H21   H     H_    0.758586 0.381717 0.283423 0.212658
H22   H     H_    0.893929 0.346015 0.201628 0.201669
C25   C     C_2   0.683524 0.862048 0.650105 0.384950
H23   H     H_    0.673824 0.758609 0.677596 0.128174
O9    O     O_2   0.776348 0.923124 0.688562 -0.605778
C26   C     C_2   0.316683 0.861447 0.349247 0.396215
H24   H     H_    0.324797 0.756943 0.323794 0.127318
O10   O     O_2   0.225511 0.923529 0.308180 -0.609813

loop_
_geom_bond_atom_site_label_1
_geom_bond_atom_site_label_2
_ccdc_geom_bond_type
C16   N2    A    
C8    H4    S    
C4    O8    A    
C15   C17   A    
C26   H24   S    
C5    H1    S    
O4    Zn2   S    
O6    Zn1   S    
C11   C13   A    
C21   H9    S    
C18   N1    A    
C23   H19   S    
O3    Zn2   S    
C1    O3    A    
C2    O2    A    
C24   H18   S    
O8    Zn2   S    
C23   C24   S    
C22   H21   S    
C25   H23   S    
C16   C18   A    
C13   C14   A    
C20   H13   S    
C21   H10   S    
C15   N2    A    
C5    C6    S    
C1    C12   S    
C17   C25   S    
C4    C7    S    
C6    C8    D    
C2    C11   S    
C2    O4    A    
C20   C21   S    
C9    C12   A    
N1    Zn1   S    
C3    C8    S    
C23   H20   S    
C16   H8    S    
C20   H12   S    
C21   H11   S    
C4    O6    A    
C25   O9    D    
C15   H7    S    
C10   C11   A    
C1    O1    A    
O1    Zn1   S    
C24   H16   S    
C17   N1    A    
C9    C19   S    
O7    Zn2   S    
C6    H2    S    
C13   H5    S    
C19   H14   S    
C22   C23   S    
C9    C10   A    
C14   H6    S    
C19   C20   S    
C5    C7    D    
C3    O5    A    
C18   C26   S    
C26   O10   D    
N2    Zn2   S    
C7    H3    S    
C10   C22   S    
O5    Zn1   S    
C22   H22   S    
C3    O7    A    
O2    Zn1   S    
C12   C14   A    
C19   H15   S    
C24   H17   S    
