data_mof_unit_8130.cif
_audit_creation_date              2013-03-05T16:05:46-0500
_audit_creation_method            fapswitch 2.2
_symmetry_space_group_name_H-M    P1
_symmetry_Int_Tables_number       1
_space_group_crystal_system       triclinic
_cell_length_a                    9.634081
_cell_length_b                    10.817462
_cell_length_c                    17.380926
_cell_angle_alpha                 93.256049
_cell_angle_beta                  86.559758
_cell_angle_gamma                 90.328409
_cell_volume                      1805.1878792

loop_
_atom_site_label
_atom_site_type_symbol
_atom_site_description
_atom_site_fract_x
_atom_site_fract_y
_atom_site_fract_z
_atom_type_partial_charge
O1    O     O_R   0.381260 0.680340 0.500000 -0.538735
O2    O     O_R   0.618740 0.319660 0.500000 -0.538736
O3    O     O_R   0.618830 0.680370 0.500010 -0.605401
O4    O     O_R   0.381170 0.319630 0.499990 -0.605397
C1    C     C_R   0.500311 0.737541 0.499872 0.791684
C2    C     C_R   0.499689 0.262458 0.500130 0.791681
O5    O     O_R   0.367440 0.500000 0.613600 -0.536718
O6    O     O_R   0.632560 0.500000 0.386400 -0.536703
O7    O     O_R   0.605010 0.500030 0.613600 -0.608916
O8    O     O_R   0.394990 0.499970 0.386400 -0.608927
C3    C     C_R   0.482484 0.498316 0.649529 0.795443
C4    C     C_R   0.517515 0.501678 0.350470 0.795439
Cu1   Cu    Cu3+1 0.359340 0.499980 0.500000 0.997639
Cu2   Cu    Cu3+1 0.640660 0.500020 0.500000 0.997643
C5    C     C_R   0.475394 0.491019 0.733376 -0.026956
C6    C     C_R   0.524604 0.508956 0.266622 -0.026944
C7    C     C_R   0.597187 0.505612 0.773313 -0.202915
C8    C     C_R   0.402810 0.494329 0.226684 -0.202914
C9    C     C_R   0.592748 0.496397 0.852615 -0.136899
C10   C     C_R   0.407247 0.503524 0.147380 -0.136895
C11   C     C_R   0.465880 0.473846 0.893424 0.182443
C12   C     C_R   0.534113 0.526089 0.106571 0.182449
C13   C     C_R   0.344765 0.455890 0.853529 -0.167246
C14   C     C_R   0.655227 0.544075 0.146466 -0.167251
C15   C     C_R   0.349266 0.464693 0.773851 -0.132131
C16   C     C_R   0.650728 0.535292 0.226146 -0.132119
C17   C     C_2   0.457371 0.467152 0.977495 -0.216891
C18   C     C_2   0.542623 0.532773 0.022499 -0.216886
H1    H     H_    0.696413 0.523491 0.743376 0.160509
H2    H     H_    0.303585 0.476435 0.256621 0.160516
H3    H     H_    0.745339 0.550453 0.255945 0.185488
H4    H     H_    0.254654 0.449557 0.744053 0.185503
H5    H     H_    0.623205 0.591232 0.997377 0.149200
H6    H     H_    0.376788 0.408694 0.002616 0.149198
H7    H     H_    0.246517 0.436410 0.884182 0.132405
H8    H     H_    0.753474 0.563564 0.115813 0.132402
H9    H     H_    0.310878 0.494679 0.118604 0.131062
H10   H     H_    0.689116 0.505220 0.881392 0.131068
C19   C     C_R   0.619161 0.938460 0.519460 -0.184580
C20   C     C_R   0.380840 0.061540 0.480545 -0.184576
H11   H     H_    0.711799 0.892230 0.535192 0.155690
H12   H     H_    0.288201 0.107769 0.464814 0.155673
C21   C     C_R   0.618451 0.066464 0.520201 -0.109989
C22   C     C_R   0.381549 0.933536 0.479804 -0.109994
H13   H     H_    0.710462 0.116710 0.536890 0.179051
H14   H     H_    0.289537 0.883291 0.463116 0.179050
C23   C     C_R   0.499463 0.128460 0.500457 -0.022142
C24   C     C_R   0.500537 0.871540 0.499547 -0.022146
C25   C     C_R   0.922549 0.578736 0.550283 0.093535
C26   C     C_R   0.077450 0.421256 0.449722 0.093534
C27   C     C_R   0.070813 0.578059 0.549864 0.406550
C28   C     C_R   0.929187 0.421937 0.450138 0.406535
N1    N     N_R   0.147930 0.499970 0.499980 -0.251081
N2    N     N_R   0.852070 0.500030 0.500020 -0.251075
C29   C     C_3   0.849304 0.669627 0.608205 -0.685725
H15   H     H_    0.886124 0.764946 0.597793 0.222306
H16   H     H_    0.736742 0.672844 0.607784 0.253775
H17   H     H_    0.873364 0.647411 0.667498 0.220352
C30   C     C_3   0.150688 0.330319 0.391826 -0.685721
H18   H     H_    0.113931 0.234997 0.402315 0.222268
H19   H     H_    0.126539 0.352421 0.332519 0.220388
H20   H     H_    0.263264 0.327174 0.392206 0.253786
N3    N     N_R   0.139657 0.661097 0.602333 0.150233
O9    O     O_R   0.157904 0.775769 0.585206 -0.386977
O10   O     O_R   0.143369 0.634018 0.674127 -0.394084
N4    N     N_R   0.860343 0.338889 0.397673 0.150228
O11   O     O_R   0.842105 0.224214 0.414802 -0.386972
O12   O     O_R   0.856593 0.365975 0.325881 -0.394083

loop_
_geom_bond_atom_site_label_1
_geom_bond_atom_site_label_2
_geom_bond_distance
_ccdc_geom_bond_type
C20   C23   1.399782 A    
N4    O12   1.300489 A    
O7    Cu2   1.983707 S    
N3    O10   1.300473 A    
Cu1   N1    2.036762 S    
C8    H2    1.082432 S    
C9    H10   1.081904 S    
C7    H1    1.082409 S    
C19   C24   1.399786 A    
C26   C28   1.428020 A    
C20   C22   1.384057 A    
O6    C4    1.305122 A    
O3    C1    1.301856 A    
C15   H4    1.082225 S    
C20   H12   1.082267 S    
N4    O11   1.300586 A    
C11   C17   1.464485 S    
C28   N4    1.432196 S    
C30   H18   1.109643 S    
C19   H11   1.082275 S    
C12   C18   1.464485 S    
Cu1   Cu2   2.710256 S    
O5    C3    1.305120 A    
C10   H9    1.081928 S    
C21   H13   1.082941 S    
O7    C3    1.302428 A    
C17   H6    1.085500 S    
C14   H8    1.083580 S    
O3    Cu2   1.963420 S    
O8    C4    1.302427 A    
O1    C1    1.300039 A    
C26   C30   1.512757 S    
C3    C5    1.461433 S    
C6    C8    1.402435 A    
C9    C11   1.403110 A    
C14   C16   1.391604 A    
C18   H5    1.085501 S    
C13   H7    1.083569 S    
C29   H16   1.085664 S    
C11   C13   1.399732 A    
C6    C16   1.403116 A    
C4    C6    1.461438 S    
O2    Cu2   1.961229 S    
C1    C24   1.449843 S    
C12   C14   1.399761 A    
C29   H15   1.109538 S    
C5    C15   1.403108 A    
C26   N1    1.388955 A    
O1    Cu1   1.961229 S    
C2    C23   1.449846 S    
C10   C12   1.403128 A    
C27   N1    1.365281 A    
C25   N2    1.388951 A    
C22   C24   1.401353 A    
C16   H3    1.082245 S    
C13   C15   1.391607 A    
C27   N3    1.432178 S    
C8    C10   1.385675 A    
O4    C2    1.301858 A    
C30   H19   1.109617 S    
C17   C18   1.340778 D    
C5    C7    1.402390 A    
C29   H17   1.109509 S    
C7    C9    1.385676 A    
C30   H20   1.085729 S    
C19   C21   1.384061 A    
O5    Cu1   1.980676 S    
O6    Cu2   1.980678 S    
Cu2   N2    2.036761 S    
C25   C29   1.512751 S    
C21   C23   1.401357 A    
C22   H14   1.082940 S    
O2    C2    1.300037 A    
O4    Cu1   1.963420 S    
C28   N2    1.365285 A    
N3    O9    1.300540 A    
C25   C27   1.428026 A    
O8    Cu1   1.983709 S    
