data_mof_unit_35019.cif
_audit_creation_date              2012-12-10T17:43:19-0500
_audit_creation_method            fapswitch 2.2
_symmetry_space_group_name_H-M    P1
_symmetry_Int_Tables_number       1
_space_group_crystal_system       triclinic
_cell_length_a                    14.970038
_cell_length_b                    13.726855
_cell_length_c                    10.619364
_cell_angle_alpha                 89.919249
_cell_angle_beta                  91.083038
_cell_angle_gamma                 90.200063
_cell_volume                      2181.78435772

loop_
_atom_site_label
_atom_site_type_symbol
_atom_type_description
_atom_site_fract_x
_atom_site_fract_y
_atom_site_fract_z
_atom_type_partial_charge
C1    C     C_R   0.328560 0.499880 0.494945 0.831268
C2    C     C_R   0.671299 0.500241 0.500591 0.838218
C3    C     C_R   0.952412 0.521648 0.476698 -0.030415
C4    C     C_R   0.046129 0.521846 0.473751 -0.021201
C5    C     C_R   0.903130 0.467819 0.385154 0.028508
C6    C     C_R   0.095419 0.569635 0.570480 0.024470
C7    C     C_R   0.957859 0.637899 0.650812 0.356107
C8    C     C_R   0.039598 0.441379 0.269207 0.365438
C9    C     C_R   0.051364 0.628429 0.658805 0.068239
C10   C     C_R   0.946806 0.428398 0.280256 0.116358
C11   C     C_R   0.464784 0.792900 0.598623 0.075546
C12   C     C_R   0.535202 0.207116 0.401378 0.078288
C13   C     C_R   0.535069 0.793451 0.401180 0.090670
C14   C     C_R   0.464932 0.206569 0.598816 0.083084
C15   C     C_R   0.534814 0.896685 0.396697 -0.075308
C16   C     C_R   0.465185 0.103344 0.603310 -0.074585
C17   C     C_R   0.464947 0.896080 0.603051 -0.069221
C18   C     C_R   0.535081 0.103947 0.396985 -0.066495
C19   C     C_R   0.499998 0.948292 0.499980 0.029281
C20   C     C_R   0.500029 0.051731 0.500052 0.031841
C21   C     C_R   0.568042 0.949012 0.292120 0.145593
C22   C     C_R   0.431928 0.051048 0.707877 0.141511
C23   C     C_R   0.431427 0.947697 0.707499 0.132949
C24   C     C_R   0.568631 0.052358 0.292557 0.131457
C25   C     C_R   0.498109 0.499911 0.259256 0.841027
C26   C     C_R   0.500945 0.500111 0.740839 0.846549
C27   C     C_3   0.431377 0.556289 0.038963 -0.187668
C28   C     C_3   0.566941 0.443944 0.961496 -0.194829
C29   C     C_3   0.510764 0.592291 0.959790 -0.168019
C30   C     C_3   0.487455 0.407937 0.040540 -0.168810
C31   C     C_3   0.421719 0.465091 0.954823 0.205867
C32   C     C_3   0.576520 0.535233 0.045539 0.201480
C33   C     C_3   0.500614 0.500669 0.877651 -0.099841
C34   C     C_3   0.497688 0.499524 0.122606 -0.097967
C35   C     C_R   0.810607 0.460046 0.396994 -0.177183
C36   C     C_R   0.188144 0.561133 0.572848 -0.172150
C37   C     C_R   0.768096 0.502467 0.498322 -0.124938
C38   C     C_R   0.231396 0.501783 0.487230 -0.121544
C39   C     C_R   0.816441 0.554166 0.590529 0.199131
C40   C     C_R   0.183132 0.453603 0.390574 0.166935
C41   C     C_R   0.908208 0.572353 0.573722 -0.053598
C42   C     C_R   0.090422 0.471840 0.376160 -0.066018
Cu1   Cu    Cu3+1 0.500000 0.597420 0.500000 0.996827
Cu2   Cu    Cu3+1 0.500000 0.402580 0.500000 0.990216
H1    H     H_    0.375740 0.601630 0.073659 0.200272
H2    H     H_    0.622542 0.398435 0.927070 0.193668
H3    H     H_    0.520965 0.667553 0.924292 0.198520
H4    H     H_    0.477237 0.332677 0.076046 0.198792
H5    H     H_    0.769829 0.422181 0.327625 0.176539
H6    H     H_    0.228556 0.598519 0.643074 0.176486
H7    H     H_    0.436612 0.750403 0.673405 0.158251
H8    H     H_    0.563314 0.249627 0.326570 0.158701
H9    H     H_    0.563331 0.751440 0.326327 0.171384
H10   H     H_    0.436676 0.248607 0.673647 0.169927
N1    N     N_R   0.500000 0.743810 0.500000 -0.202724
N2    N     N_R   0.500000 0.256190 0.500000 -0.202190
O1    O     O_R   0.370260 0.582280 0.500030 -0.580686
O2    O     O_R   0.629740 0.417720 0.499970 -0.581150
O3    O     O_R   0.629740 0.582280 0.499970 -0.545181
O4    O     O_R   0.370260 0.417720 0.500030 -0.556234
O5    O     O_R   0.499980 0.582260 0.316850 -0.588027
O6    O     O_R   0.500020 0.417740 0.683150 -0.586905
O7    O     O_R   0.500020 0.582260 0.683150 -0.591454
O8    O     O_R   0.499980 0.417740 0.316850 -0.593490
I1    I     I_    0.298335 0.412513 0.876224 -0.197077
I2    I     I_    0.698227 0.590760 0.126456 -0.221633
I3    I     I_    0.754693 0.570012 0.769619 -0.193836
I4    I     I_    0.247537 0.339054 0.288414 -0.144945
S1    S     S_3+6 0.909082 0.748116 0.705006 0.086207
O9    O     O_2   0.896968 0.742602 0.845059 -0.199401
O10   O     O_2   0.969920 0.832264 0.676115 -0.220239
O11   O     O_3   0.810010 0.768557 0.632332 -0.508383
H11   H     H_    0.785254 0.826313 0.675059 0.388559
S2    S     S_3+6 0.082737 0.454083 0.114844 0.077065
O12   O     O_2   0.168004 0.512305 0.117371 -0.264044
O13   O     O_2   0.099175 0.355056 0.059779 -0.219745
O14   O     O_3   0.007719 0.513142 0.023000 -0.462942
H12   H     H_    0.028226 0.503448 0.935774 0.382609
I5    I     I_    0.124056 0.701307 0.808196 -0.089561
I6    I     I_    0.874794 0.348052 0.137079 -0.140609
I7    I     I_    0.614828 0.872575 0.129979 -0.196111
I8    I     I_    0.384837 0.127642 0.869782 -0.199210
I9    I     I_    0.381207 0.869727 0.867224 -0.242945
I10   I     I_    0.619153 0.130407 0.133037 -0.255326

loop_
_geom_bond_atom_site_label_1
_geom_bond_atom_site_label_2
_ccdc_geom_bond_type
C14   N2    A    
C27   C29   S    
C19   C20   A    
Cu1   Cu2   S    
C6    C9    A    
Cu1   O7    S    
C39   C41   A    
O14   H12   S    
Cu2   O8    S    
C15   C19   A    
C28   H2    S    
C17   C23   A    
S2    O13   D    
C29   H3    S    
C18   C24   A    
C22   I8    S    
C30   H4    S    
C35   C37   A    
C8    C42   A    
C29   C32   S    
C30   C31   S    
C29   C33   S    
C7    C9    A    
C9    I5    S    
S1    O10   D    
C11   C17   A    
C36   H6    S    
Cu2   O2    S    
S2    O14   S    
C35   H5    S    
C31   C33   S    
Cu1   O3    S    
C25   C34   S    
C27   H1    S    
C40   C42   A    
C12   H8    S    
C13   H9    S    
C27   C34   S    
S2    O12   D    
C30   C34   S    
C27   C31   S    
C28   C32   S    
C4    C6    A    
C1    O4    A    
C10   I6    S    
C2    O3    A    
Cu2   O6    S    
C25   O8    A    
C32   C34   S    
S1    O11   S    
C26   O7    A    
C1    O1    A    
Cu2   N2    S    
C26   C33   S    
C16   C20   A    
C8    S2    S    
C25   O5    A    
C12   N2    A    
C23   I9    S    
C1    C38   S    
Cu1   N1    S    
C14   H10   S    
C21   I7    S    
C28   C33   S    
C13   C15   A    
C14   C16   A    
C3    C4    A    
C11   N1    A    
Cu1   O5    S    
C32   I2    S    
C31   I1    S    
C3    C41   A    
C16   C22   A    
C39   I3    S    
O11   H11   S    
C3    C5    A    
C7    S1    S    
C2    O2    A    
C28   C30   S    
C24   I10   S    
C5    C10   A    
C37   C39   A    
C38   C40   A    
C2    C37   S    
C4    C42   A    
Cu2   O4    S    
C5    C35   A    
C36   C38   A    
C17   C19   A    
C6    C36   A    
C18   C20   A    
C7    C41   A    
C26   O6    A    
S1    O9    D    
C11   H7    S    
Cu1   O1    S    
C15   C21   A    
C8    C10   A    
C40   I4    S    
C21   C24   A    
C12   C18   A    
C22   C23   A    
C13   N1    A    
