data_mof_unit_24729.cif
_audit_creation_date              2012-12-10T20:40:02-0500
_audit_creation_method            fapswitch 2.2
_symmetry_space_group_name_H-M    P1
_symmetry_Int_Tables_number       1
_space_group_crystal_system       triclinic
_cell_length_a                    23.390913
_cell_length_b                    10.665991
_cell_length_c                    9.941059
_cell_angle_alpha                 90.348705
_cell_angle_beta                  89.990033
_cell_angle_gamma                 92.337325
_cell_volume                      2478.05834359

loop_
_atom_site_label
_atom_site_type_symbol
_atom_type_description
_atom_site_fract_x
_atom_site_fract_y
_atom_site_fract_z
_atom_type_partial_charge
C1    C     C_R   0.497619 0.260007 0.499569 0.879868
C2    C     C_R   0.122725 0.633462 0.445552 0.513941
C3    C     C_R   0.241961 0.575511 0.613964 0.201403
C4    C     C_R   0.389527 0.501033 0.500165 0.894445
C5    C     C_R   0.300958 0.563353 0.612300 -0.230838
C6    C     C_R   0.327631 0.509778 0.501125 -0.117739
C7    C     C_R   0.295257 0.467719 0.390351 -0.216886
C8    C     C_R   0.236016 0.477544 0.390416 0.198812
C9    C     C_R   0.209385 0.531661 0.502675 0.314985
C10   C     C_R   0.763768 0.445168 0.401303 0.182861
C11   C     C_R   0.703686 0.427138 0.406925 0.148223
C12   C     C_R   0.967092 0.348438 0.637762 -0.161087
C13   C     C_R   0.672637 0.499850 0.499082 -0.117771
C14   C     C_R   0.701056 0.582012 0.588917 -0.279246
C15   C     C_R   0.760309 0.594932 0.589274 0.204025
C16   C     C_R   0.497679 0.739748 0.500195 0.868790
C17   C     C_R   0.791595 0.527387 0.494764 0.277034
C18   C     C_R   0.477936 0.063410 0.618000 0.085606
C19   C     C_R   0.486908 0.127866 0.497993 -0.103458
C20   C     C_R   0.483478 0.062556 0.375254 -0.223869
C21   C     C_R   0.483500 0.933064 0.375819 -0.210394
C22   C     C_R   0.486781 0.870156 0.499163 -0.129223
C23   C     C_R   0.026369 0.347425 0.637563 -0.163176
C24   C     C_R   0.477327 0.935098 0.618845 0.142872
C25   C     C_3   0.507507 0.932980 0.751748 -0.038283
C26   C     C_3   0.508195 0.075632 0.750083 -0.473565
C27   C     C_R   0.465774 0.416383 0.070272 0.159246
C28   C     C_R   0.610377 0.497804 0.499774 0.886666
C29   C     C_R   0.537809 0.576023 0.072583 0.209765
C30   C     C_R   0.538511 0.574252 0.928539 0.211907
C31   C     C_R   0.465649 0.416732 0.928576 0.151679
C32   C     C_3   0.402053 0.404706 0.922690 -0.472797
C33   C     C_3   0.402076 0.404742 0.075432 -0.500413
C34   C     C_R   0.058489 0.442684 0.572496 -0.007832
C35   C     C_R   0.881751 0.630875 0.437045 0.509259
C36   C     C_R   0.879483 0.443718 0.568822 0.508412
C37   C     C_R   0.938888 0.444172 0.571966 -0.008258
C38   C     C_R   0.970511 0.541599 0.506576 -0.059485
C39   C     C_R   0.942220 0.638445 0.439254 -0.039582
C40   C     C_3   0.673937 0.328660 0.317663 -0.848680
C41   C     C_3   0.790035 0.680304 0.690913 -0.851298
C42   C     C_3   0.470158 0.874869 0.863597 -0.847446
C43   C     C_3   0.578450 0.668456 0.143868 -0.813086
C44   C     C_3   0.583767 0.654880 0.857931 -0.851966
C45   C     C_R   0.030656 0.540803 0.508052 -0.020914
C46   C     C_3   0.949864 0.846051 0.305787 -0.773201
C47   C     C_3   0.215454 0.635071 0.735525 -0.845175
C48   C     C_3   0.201381 0.428695 0.272155 -0.866103
C49   C     C_3   0.798007 0.375491 0.297511 -0.838359
C50   C     C_R   0.063003 0.637207 0.444484 -0.064748
C51   C     C_R   0.035398 0.734454 0.380861 -0.153222
C52   C     C_R   0.975583 0.736900 0.376834 0.171721
C53   C     C_R   0.118097 0.441942 0.569293 0.502536
H1    H     H_    0.943449 0.273156 0.688488 0.191191
H2    H     H_    0.386577 0.313839 0.119012 0.200988
H3    H     H_    0.060663 0.808928 0.332805 0.193305
H4    H     H_    0.326160 0.597772 0.697317 0.164595
H5    H     H_    0.630212 0.301522 0.352577 0.241305
H6    H     H_    0.671754 0.363749 0.212962 0.246177
H7    H     H_    0.697425 0.240407 0.318691 0.238642
H8    H     H_    0.819643 0.625903 0.752851 0.246260
H9    H     H_    0.814741 0.756488 0.638600 0.258838
H10   H     H_    0.759115 0.724244 0.759721 0.231817
H11   H     H_    0.485738 0.884099 0.280265 0.176033
H12   H     H_    0.676755 0.637876 0.657958 0.163408
H13   H     H_    0.491600 0.890715 0.962223 0.232221
H14   H     H_    0.427432 0.916782 0.866785 0.244187
H15   H     H_    0.463898 0.772375 0.846726 0.265142
H16   H     H_    0.577318 0.666301 0.252464 0.290716
H17   H     H_    0.623298 0.651041 0.114987 0.224587
H18   H     H_    0.567935 0.765749 0.117293 0.201701
H19   H     H_    0.576250 0.667940 0.751516 0.284746
H20   H     H_    0.585849 0.751647 0.898770 0.212175
H21   H     H_    0.626097 0.613269 0.871244 0.226409
H22   H     H_    0.382789 0.489182 0.119627 0.219475
H23   H     H_    0.485622 0.110517 0.279509 0.173029
H24   H     H_    0.922717 0.898245 0.376603 0.264661
H25   H     H_    0.983101 0.914066 0.267318 0.208154
H26   H     H_    0.924464 0.811813 0.217677 0.267457
H27   H     H_    0.234973 0.730710 0.751106 0.240413
H28   H     H_    0.168593 0.643912 0.725684 0.241367
H29   H     H_    0.223656 0.577738 0.825839 0.245081
H30   H     H_    0.316050 0.425431 0.305033 0.158662
H31   H     H_    0.169792 0.355022 0.306031 0.250412
H32   H     H_    0.178371 0.506416 0.225664 0.257439
H33   H     H_    0.228825 0.387151 0.193789 0.236836
H34   H     H_    0.550913 0.895081 0.744308 0.163390
H35   H     H_    0.843477 0.408617 0.292793 0.234250
H36   H     H_    0.796928 0.273870 0.321120 0.249186
H37   H     H_    0.779786 0.389228 0.195801 0.243939
H38   H     H_    0.481183 0.118969 0.828371 0.210982
H39   H     H_    0.552018 0.119174 0.740531 0.189236
H40   H     H_    0.046874 0.271592 0.688111 0.192368
H41   H     H_    0.382628 0.488842 0.879366 0.213282
H42   H     H_    0.386794 0.313608 0.877978 0.206243
N1    N     N_R   0.852590 0.534937 0.500957 -0.343712
N2    N     N_R   0.148596 0.536114 0.506000 -0.349655
N3    N     N_R   0.499610 0.499140 0.142800 -0.127141
N4    N     N_R   0.499610 0.499180 0.857150 -0.130301
O1    O     O_R   0.500010 0.316790 0.614690 -0.607964
O2    O     O_R   0.583850 0.500060 0.614640 -0.620135
O3    O     O_R   0.583840 0.500020 0.385300 -0.619565
O4    O     O_2   0.851723 0.716546 0.371262 -0.569657
O5    O     O_2   0.848414 0.352173 0.631900 -0.561754
O6    O     O_2   0.145597 0.348003 0.628406 -0.554947
O7    O     O_2   0.154831 0.725578 0.386385 -0.558530
O8    O     O_R   0.500000 0.316760 0.385350 -0.623604
O9    O     O_R   0.416160 0.499980 0.614700 -0.620895
O10   O     O_R   0.416150 0.499940 0.385360 -0.616205
O11   O     O_R   0.500000 0.683240 0.614650 -0.635124
O12   O     O_R   0.499990 0.683210 0.385310 -0.629838
Zn1   Zn    Zn3+2 0.500000 0.500020 0.653130 0.934689
Zn2   Zn    Zn3+2 0.500000 0.499980 0.346870 0.938080

loop_
_geom_bond_atom_site_label_1
_geom_bond_atom_site_label_2
_ccdc_geom_bond_type
C33   H2    S    
C7    H30   S    
C4    O10   A    
C27   N3    A    
C40   H7    S    
C48   H33   S    
C32   H41   S    
C19   C20   A    
C18   C26   S    
C41   H8    S    
C49   H37   S    
C16   O11   A    
C7    C8    A    
C35   N1    A    
C27   C33   S    
O2    Zn1   S    
C48   H31   S    
C4    O9    A    
C12   C23   A    
C37   C38   A    
C29   N3    A    
C18   C24   A    
C5    C6    A    
C41   H9    S    
C36   C37   A    
C18   C19   A    
C35   O4    S    
C46   H26   S    
C10   C17   A    
C26   H39   S    
C46   C52   S    
C25   H34   S    
C20   H23   S    
C51   H3    S    
C47   H29   S    
C12   C37   A    
O8    Zn2   S    
C38   C45   A    
C2    C50   A    
C28   O2    A    
C33   H22   S    
C2    N2    A    
C9    N2    S    
C8    C9    A    
C21   H11   S    
C43   H18   S    
C13   C28   S    
C31   N4    A    
O10   Zn2   S    
C39   C52   A    
C43   H16   S    
C40   H6    S    
C13   C14   A    
C29   C43   S    
C42   H15   S    
C49   H35   S    
C30   C44   S    
C11   C40   S    
C47   H27   S    
C1    O1    A    
C1    C19   S    
C40   H5    S    
C27   C31   A    
C51   C52   A    
C24   C25   S    
C15   C41   S    
C4    C6    S    
C46   H25   S    
N3    Zn2   S    
C53   N2    A    
C26   H38   S    
C30   N4    A    
C2    O7    S    
O9    Zn1   S    
C35   C39   A    
C8    C48   S    
C29   C30   A    
C3    C9    A    
C28   O3    A    
C36   N1    A    
C31   C32   S    
C23   C34   A    
C50   C51   A    
O12   Zn2   S    
C17   N1    S    
C44   H21   S    
C34   C45   A    
C1    O8    A    
O1    Zn1   S    
C43   H17   S    
C42   H14   S    
C23   H40   S    
C41   H10   S    
C15   C17   A    
C16   C22   S    
C14   C15   A    
C49   H36   S    
C3    C5    A    
C25   C42   S    
C46   H24   S    
C6    C7    A    
C5    H4    S    
C36   O5    S    
C32   C33   S    
C25   C26   S    
O3    Zn2   S    
C11   C13   A    
C38   C39   A    
C45   C50   A    
N4    Zn1   S    
C3    C47   S    
C14   H12   S    
C44   H19   S    
C22   C24   A    
C47   H28   S    
C44   H20   S    
O11   Zn1   S    
C10   C11   A    
C53   O6    S    
C32   H42   S    
C20   C21   A    
C34   C53   A    
C42   H13   S    
C48   H32   S    
C21   C22   A    
C10   C49   S    
C12   H1    S    
C16   O12   A    
