data_mof_unit_43991.cif
_audit_creation_date              2013-03-05T16:00:47-0500
_audit_creation_method            fapswitch 2.2
_symmetry_space_group_name_H-M    P1
_symmetry_Int_Tables_number       1
_space_group_crystal_system       triclinic
_cell_length_a                    20.840519
_cell_length_b                    21.657007
_cell_length_c                    14.231753
_cell_angle_alpha                 90.509321
_cell_angle_beta                  88.328935
_cell_angle_gamma                 89.905598
_cell_volume                      6420.40873316

loop_
_atom_site_label
_atom_site_type_symbol
_atom_site_description
_atom_site_fract_x
_atom_site_fract_y
_atom_site_fract_z
_atom_type_partial_charge
O1    O     O_R   0.066090 0.433930 0.580280 -0.607865
O2    O     O_R   0.933910 0.566070 0.419720 -0.639058
O3    O     O_R   0.933910 0.566070 0.580280 -0.594543
O4    O     O_R   0.066090 0.433930 0.419720 -0.650439
O5    O     O_R   0.933910 0.433930 0.419720 -0.613057
O6    O     O_R   0.066090 0.566070 0.580280 -0.626985
O7    O     O_R   0.066090 0.566070 0.419720 -0.626460
O8    O     O_R   0.933910 0.433930 0.580280 -0.625353
O9    O     O_R   0.566090 0.933930 0.580280 -0.611429
O10   O     O_R   0.433910 0.066070 0.419720 -0.641823
O11   O     O_R   0.433910 0.066070 0.580280 -0.590822
O12   O     O_R   0.566090 0.933930 0.419720 -0.631357
O13   O     O_R   0.433910 0.933930 0.419720 -0.603594
O14   O     O_R   0.566090 0.066070 0.580280 -0.624202
O15   O     O_R   0.566090 0.066070 0.419720 -0.626911
O16   O     O_R   0.433910 0.933930 0.580280 -0.625116
C1    C     C_R   0.085524 0.412845 0.499252 0.993145
C2    C     C_R   0.913842 0.587028 0.501038 0.953596
C3    C     C_R   0.913290 0.413980 0.499880 0.943833
C4    C     C_R   0.086498 0.586768 0.499604 0.945849
C5    C     C_R   0.586226 0.913273 0.498960 0.953004
C6    C     C_R   0.412661 0.086048 0.501763 0.925613
C7    C     C_R   0.413342 0.914040 0.500423 0.931517
C8    C     C_R   0.586938 0.085993 0.499705 0.894606
Zn1   Zn    Zn3+2 1.000000 0.500000 0.607200 1.006816
Zn2   Zn    Zn3+2 0.000000 0.500000 0.392800 0.998126
Zn3   Zn    Zn3+2 0.500000 0.000000 0.607200 1.020965
Zn4   Zn    Zn3+2 0.500000 0.000000 0.392800 0.983647
C9    C     C_R   0.129644 0.682187 0.568532 0.275892
C10   C     C_R   0.875191 0.314204 0.442684 0.316827
C11   C     C_R   0.868085 0.679298 0.429921 0.248313
C12   C     C_R   0.114191 0.301986 0.500703 0.248821
C13   C     C_R   0.621988 0.189167 0.546800 0.269600
C14   C     C_R   0.377797 0.812718 0.448368 0.300598
C15   C     C_R   0.369794 0.187456 0.554675 0.248491
C16   C     C_R   0.620432 0.811162 0.553750 0.277561
C17   C     C_R   0.135184 0.634738 0.500537 -0.206602
C18   C     C_R   0.864285 0.367290 0.498294 -0.193155
C19   C     C_R   0.865291 0.635027 0.501459 -0.140392
C20   C     C_R   0.132851 0.364442 0.498526 -0.155139
C21   C     C_R   0.635555 0.133420 0.500353 -0.219419
C22   C     C_R   0.365629 0.866330 0.501640 -0.193334
C23   C     C_R   0.361191 0.131369 0.506244 -0.155056
C24   C     C_R   0.630952 0.862337 0.495631 -0.144122
C25   C     C_R   0.189902 0.629992 0.440243 0.014735
C26   C     C_R   0.806383 0.376406 0.549889 0.033563
C27   C     C_R   0.813280 0.632559 0.566481 -0.007916
C28   C     C_R   0.197635 0.381672 0.500976 -0.008486
C29   C     C_R   0.696774 0.121450 0.460918 0.035865
C30   C     C_R   0.309864 0.873023 0.559153 0.039089
C31   C     C_R   0.303416 0.118580 0.461390 0.003914
C32   C     C_R   0.684236 0.865504 0.433709 0.013637
C33   C     C_R   0.241366 0.670698 0.451248 0.029498
C34   C     C_R   0.763258 0.326785 0.559296 0.009280
C35   C     C_R   0.759313 0.670478 0.553861 -0.017445
C36   C     C_R   0.245062 0.335232 0.506921 0.001568
C37   C     C_R   0.741580 0.169393 0.453681 0.030338
C38   C     C_R   0.269765 0.821563 0.572853 0.011798
C39   C     C_R   0.254642 0.164242 0.461896 -0.008615
C40   C     C_R   0.723516 0.813420 0.419874 0.005855
C41   C     C_R   0.233326 0.721572 0.513920 -0.005189
C42   C     C_R   0.774974 0.272264 0.505058 -0.004812
C43   C     C_R   0.763989 0.717787 0.485678 0.017691
C44   C     C_R   0.226196 0.273100 0.489988 0.005550
C45   C     C_R   0.728929 0.225031 0.504374 -0.012617
C46   C     C_R   0.279487 0.768799 0.514304 -0.002468
C47   C     C_R   0.271300 0.225004 0.491336 0.008379
C48   C     C_R   0.716573 0.763899 0.483679 0.009056
C49   C     C_R   0.178009 0.726706 0.573404 -0.031621
C50   C     C_R   0.831325 0.265821 0.448175 -0.036990
C51   C     C_R   0.817864 0.721462 0.423120 -0.039353
C52   C     C_R   0.161354 0.258057 0.477951 -0.042583
C53   C     C_R   0.669868 0.233726 0.553729 -0.028171
C54   C     C_R   0.333896 0.764379 0.452968 -0.035899
C55   C     C_R   0.331734 0.237182 0.528742 -0.046673
C56   C     C_R   0.664326 0.762337 0.549216 -0.042973
C57   C     C_R   0.299674 0.663933 0.398106 0.307514
C58   C     C_R   0.707113 0.330962 0.617803 0.268203
C59   C     C_R   0.702037 0.665017 0.609596 0.271389
C60   C     C_R   0.309988 0.347283 0.528358 0.287448
C61   C     C_R   0.798944 0.163322 0.398728 0.298708
C62   C     C_R   0.218032 0.822512 0.639548 0.275417
C63   C     C_R   0.190666 0.152932 0.434316 0.290973
C64   C     C_R   0.772766 0.811367 0.349538 0.265134
C65   C     C_R   0.842280 0.211641 0.395746 -0.156748
C66   C     C_R   0.171827 0.776488 0.636601 -0.162620
C67   C     C_R   0.144777 0.199203 0.445846 -0.108785
C68   C     C_R   0.820637 0.767351 0.354577 -0.148084
C69   C     C_R   0.344084 0.711405 0.397812 -0.164291
C70   C     C_R   0.659968 0.286050 0.610638 -0.157324
C71   C     C_R   0.656130 0.711376 0.607782 -0.126106
C72   C     C_R   0.351606 0.298196 0.541697 -0.117605
H1    H     H_    0.884137 0.206323 0.349730 0.238140
H2    H     H_    0.131267 0.780035 0.685443 0.239642
H3    H     H_    0.095785 0.189070 0.427409 0.231124
H4    H     H_    0.859410 0.769181 0.302633 0.240921
H5    H     H_    0.387307 0.705844 0.354492 0.235742
H6    H     H_    0.616598 0.290928 0.653876 0.239392
H7    H     H_    0.613288 0.706443 0.651958 0.229654
H8    H     H_    0.400601 0.308744 0.558893 0.241733
C73   C     C_R   0.943584 0.493072 0.801423 0.196924
C74   C     C_R   0.056076 0.491598 0.198098 0.195860
C75   C     C_R   0.056771 0.505479 0.796910 0.231452
C76   C     C_R   0.943113 0.505491 0.203344 0.259740
C77   C     C_R   0.443206 0.995422 0.801251 0.230070
C78   C     C_R   0.555800 0.991490 0.197695 0.206448
C79   C     C_R   0.556716 0.004789 0.796842 0.241458
C80   C     C_R   0.443428 0.006932 0.203095 0.224882
N1    N     N_R   0.000000 0.500000 0.750030 -0.148313
N2    N     N_R   0.000000 0.500000 0.249970 -0.142568
N3    N     N_R   0.500000 0.000000 0.750030 -0.143799
N4    N     N_R   0.500000 1.000000 0.249970 -0.148501
C81   C     C_R   0.058455 0.500283 0.896920 -0.080140
C82   C     C_R   0.941355 0.500795 0.103096 -0.077840
C83   C     C_R   0.941626 0.498516 0.901558 -0.074882
C84   C     C_R   0.058091 0.497571 0.098257 -0.075410
C85   C     C_R   0.558209 0.998842 0.896566 -0.078728
C86   C     C_R   0.441364 0.002480 0.102828 -0.076324
C87   C     C_R   0.441415 0.000911 0.901351 -0.070622
C88   C     C_R   0.557872 0.996570 0.097707 -0.072687
C89   C     C_R   0.999957 0.499709 0.949635 -0.030581
C90   C     C_R   0.999801 0.499687 0.050275 -0.032206
C91   C     C_R   0.499744 0.999767 0.949330 -0.034573
C92   C     C_R   0.499648 0.999689 0.049889 -0.032734
C93   C     C_R   0.116969 0.498208 0.945936 0.220161
C94   C     C_R   0.882837 0.499525 0.054005 0.225225
C95   C     C_R   0.882999 0.499720 0.955055 0.216465
C96   C     C_R   0.116755 0.498196 0.044936 0.220274
C97   C     C_R   0.616625 0.995080 0.945189 0.224866
C98   C     C_R   0.382765 0.003710 0.053856 0.218692
C99   C     C_R   0.382894 0.004678 0.954871 0.220289
C100  C     C_R   0.616516 0.995558 0.044126 0.216521
N5    N     N_R   0.073416 0.686679 0.629472 0.208154
O17   O     O_R   0.078235 0.680856 0.719915 -0.368460
O18   O     O_R   0.017071 0.694366 0.594396 -0.318766
N6    N     N_R   0.927484 0.312092 0.374303 0.212633
O19   O     O_R   0.974513 0.273307 0.383472 -0.355810
O20   O     O_R   0.920984 0.339199 0.293907 -0.336224
N7    N     N_R   0.924255 0.684117 0.368885 0.209924
O21   O     O_R   0.980081 0.695005 0.403960 -0.316178
O22   O     O_R   0.920238 0.674798 0.278799 -0.375499
N8    N     N_R   0.052285 0.282467 0.539489 0.237694
O23   O     O_R   0.006853 0.322008 0.558866 -0.378893
O24   O     O_R   0.045661 0.227427 0.574486 -0.307720
N9    N     N_R   0.559158 0.200607 0.585963 0.197371
O25   O     O_R   0.545043 0.183228 0.671327 -0.316891
O26   O     O_R   0.521045 0.237884 0.543048 -0.373686
N10   N     N_R   0.433629 0.808554 0.386875 0.205898
O27   O     O_R   0.482655 0.775559 0.410657 -0.334937
O28   O     O_R   0.430997 0.829024 0.301405 -0.326662
N11   N     N_R   0.401638 0.188705 0.643887 0.264291
O29   O     O_R   0.391283 0.143767 0.702446 -0.304183
O30   O     O_R   0.423416 0.240030 0.678611 -0.267528
N12   N     N_R   0.568360 0.811124 0.622316 0.210076
O31   O     O_R   0.580248 0.815601 0.711366 -0.324179
O32   O     O_R   0.509178 0.810754 0.595896 -0.341449
N13   N     N_3   0.192586 0.585700 0.365050 -0.355060
H9    H     H_    0.186837 0.541775 0.393284 0.199362
H10   H     H_    0.156654 0.595822 0.317867 0.252751
N14   N     N_3   0.787323 0.437397 0.581987 -0.367460
H11   H     H_    0.818742 0.471417 0.557550 0.143350
H12   H     H_    0.744197 0.448078 0.549978 0.238975
N15   N     N_3   0.819551 0.596418 0.649661 -0.405042
H13   H     H_    0.808532 0.623685 0.708942 0.273269
H14   H     H_    0.789719 0.558021 0.647320 0.247372
N16   N     N_3   0.212608 0.446316 0.500449 -0.476822
H15   H     H_    0.228738 0.459949 0.566180 0.256374
H16   H     H_    0.246787 0.454972 0.447113 0.268352
N17   N     N_3   0.715610 0.059650 0.437162 -0.386327
H17   H     H_    0.706245 0.031689 0.495481 0.186663
H18   H     H_    0.688215 0.044990 0.381476 0.230912
N18   N     N_3   0.289998 0.932799 0.595567 -0.370246
H19   H     H_    0.318850 0.968454 0.569824 0.162482
H20   H     H_    0.244704 0.942186 0.569265 0.224328
N19   N     N_3   0.294712 0.057905 0.422763 -0.469602
H21   H     H_    0.259698 0.034649 0.462483 0.231966
H22   H     H_    0.281472 0.061482 0.352866 0.263222
N20   N     N_3   0.705289 0.925293 0.403249 -0.482402
H23   H     H_    0.752628 0.931971 0.423551 0.237616
H24   H     H_    0.703699 0.928963 0.330810 0.264094
N21   N     N_R   0.316848 0.608049 0.348500 0.242161
O33   O     O_R   0.320223 0.556504 0.394369 -0.307370
O34   O     O_R   0.341176 0.610582 0.263370 -0.260769
N22   N     N_R   0.698922 0.377674 0.689487 0.234239
O35   O     O_R   0.744073 0.386961 0.749242 -0.275345
O36   O     O_R   0.642901 0.402900 0.705482 -0.258259
N23   N     N_R   0.686504 0.610778 0.662300 0.200483
O37   O     O_R   0.669075 0.615883 0.750564 -0.257411
O38   O     O_R   0.674783 0.559552 0.617555 -0.330282
N24   N     N_R   0.334377 0.407995 0.544164 0.188421
O39   O     O_R   0.337767 0.428641 0.629994 -0.282221
O40   O     O_R   0.369044 0.434052 0.478256 -0.281306
N25   N     N_R   0.811768 0.111229 0.338223 0.229571
O41   O     O_R   0.866891 0.083070 0.341023 -0.280739
O42   O     O_R   0.774980 0.100859 0.267570 -0.271385
N26   N     N_R   0.213899 0.867067 0.714913 0.235239
O43   O     O_R   0.263399 0.876636 0.766730 -0.286942
O44   O     O_R   0.158485 0.889811 0.741987 -0.279931
N27   N     N_R   0.169273 0.094448 0.400243 0.184300
O45   O     O_R   0.137681 0.058094 0.457204 -0.313562
O46   O     O_R   0.165248 0.085716 0.310061 -0.287995
N28   N     N_R   0.771551 0.848957 0.267237 0.207127
O47   O     O_R   0.823920 0.875082 0.235484 -0.268929
O48   O     O_R   0.721856 0.846635 0.214032 -0.308602
N29   N     N_3   0.886857 0.474714 0.755119 -0.363696
H25   H     H_    0.881672 0.501441 0.695810 0.242214
H26   H     H_    0.891351 0.428104 0.736783 0.246708
N30   N     N_3   0.111829 0.469852 0.243105 -0.383357
H27   H     H_    0.117995 0.495844 0.303439 0.221684
H28   H     H_    0.104464 0.423565 0.260163 0.233153
N31   N     N_3   0.114864 0.520371 0.746324 -0.380310
H29   H     H_    0.122488 0.491071 0.688956 0.238720
H30   H     H_    0.113670 0.566579 0.726905 0.252849
N32   N     N_3   0.884602 0.518343 0.254729 -0.381101
H31   H     H_    0.877761 0.488402 0.310594 0.242571
H32   H     H_    0.883608 0.564435 0.275833 0.250221
N33   N     N_3   0.385499 0.980214 0.754828 -0.354485
H33   H     H_    0.379095 0.009710 0.698706 0.253501
H34   H     H_    0.388169 0.934165 0.733035 0.251266
N34   N     N_3   0.611547 0.971294 0.243029 -0.385999
H35   H     H_    0.617083 0.998857 0.302010 0.225672
H36   H     H_    0.604114 0.925282 0.261589 0.245739
N35   N     N_3   0.614511 0.021459 0.746864 -0.383081
H37   H     H_    0.622477 0.993049 0.688485 0.241949
H38   H     H_    0.611919 0.067930 0.728687 0.238500
N36   N     N_3   0.385908 0.022665 0.254216 -0.392257
H39   H     H_    0.378992 0.993612 0.311274 0.256975
H40   H     H_    0.387844 0.069227 0.273257 0.223984
N37   N     N_R   0.177761 0.493666 0.896430 0.244653
O49   O     O_R   0.219249 0.538289 0.901903 -0.253909
O50   O     O_R   0.194097 0.442377 0.853760 -0.296519
N38   N     N_R   0.821957 0.495937 0.103251 0.240875
O51   O     O_R   0.781788 0.541914 0.100889 -0.263877
O52   O     O_R   0.803945 0.444229 0.141601 -0.292278
N39   N     N_R   0.822396 0.503933 0.910216 0.253788
O53   O     O_R   0.780166 0.460157 0.920508 -0.215679
O54   O     O_R   0.806474 0.554838 0.868966 -0.310772
N40   N     N_R   0.177283 0.501639 0.090239 0.248199
O55   O     O_R   0.218930 0.457103 0.079770 -0.255972
O56   O     O_R   0.192891 0.551654 0.135373 -0.306390
N41   N     N_R   0.677036 0.988190 0.895205 0.242826
O57   O     O_R   0.720683 0.030845 0.900898 -0.267585
O58   O     O_R   0.690220 0.937079 0.849855 -0.291372
N42   N     N_R   0.321826 0.002419 0.103292 0.241291
O59   O     O_R   0.283836 0.050119 0.101905 -0.269243
O60   O     O_R   0.301834 0.951521 0.142128 -0.284748
N43   N     N_R   0.322683 0.012863 0.910065 0.248395
O61   O     O_R   0.277224 0.972227 0.920964 -0.213832
O62   O     O_R   0.310966 0.064127 0.866700 -0.271860
N44   N     N_R   0.677143 0.998439 0.089027 0.246087
O63   O     O_R   0.718496 0.953696 0.078098 -0.211591
O64   O     O_R   0.693754 0.048940 0.131929 -0.277087

loop_
_geom_bond_atom_site_label_1
_geom_bond_atom_site_label_2
_geom_bond_distance
_ccdc_geom_bond_type
C50   C65   1.399749 A    
C78   N34   1.415758 S    
C68   H4    1.080202 S    
N24   O39   1.300935 A    
C83   C89   1.412431 A    
O10   Zn4   2.011037 S    
O2    C2    1.296955 A    
N17   H18   1.037942 S    
N17   H17   1.045718 S    
C94   N38   1.434029 S    
N35   H37   1.038717 S    
C14   C22   1.399775 A    
C23   C31   1.405967 A    
N34   H36   1.043809 S    
N9    O25   1.300685 A    
C100  N44   1.433634 S    
C91   C92   1.431100 A    
N19   H22   1.043550 S    
C78   N4    1.373391 A    
N21   O33   1.300995 A    
O10   C6    1.306469 A    
C10   C18   1.404374 A    
C94   C95   1.408191 A    
O7    Zn2   2.029484 S    
N28   O48   1.301447 A    
O12   Zn4   2.031087 S    
C54   C69   1.396748 A    
C27   C35   1.408176 A    
N15   H14   1.039982 S    
C39   C63   1.421831 A    
C53   C70   1.398503 A    
C93   N37   1.434389 S    
C38   C62   1.415508 A    
C40   C64   1.413009 A    
N23   O38   1.301280 A    
N32   H32   1.039852 S    
N20   H24   1.036187 S    
O6    Zn1   2.019095 S    
C81   C93   1.423295 A    
C73   N1    1.375584 A    
C46   C54   1.413281 A    
C12   N8    1.453358 S    
C29   C37   1.400037 A    
N42   O59   1.301157 A    
O13   C7    1.291956 A    
O3    C2    1.299513 A    
C20   C28   1.402674 A    
N41   O57   1.301193 A    
O14   C8    1.292386 A    
N43   O61   1.301042 A    
C32   C40   1.401745 A    
N9    O26   1.300248 A    
C43   C48   1.404821 A    
C14   N10   1.437636 S    
C41   C46   1.405370 A    
C38   C46   1.419020 A    
N13   H9    1.041706 S    
N15   H13   1.045296 S    
C58   N22   1.436753 S    
N22   O36   1.301362 A    
N30   H27   1.033811 S    
N25   O42   1.300320 A    
C35   C43   1.418925 A    
C93   C96   1.408821 A    
C87   C99   1.420783 A    
N39   O53   1.300971 A    
C36   C44   1.422947 A    
O13   Zn4   2.019098 S    
C79   C85   1.427456 A    
O14   Zn3   2.019095 S    
C15   C23   1.405594 A    
Zn2   N2    2.032723 S    
N12   O32   1.299894 A    
O9    Zn3   2.011037 S    
Zn1   N1    2.032721 S    
C97   C100  1.407927 A    
C27   N15   1.433962 S    
O1    Zn1   2.011037 S    
C24   C32   1.399530 A    
O16   Zn3   2.029487 S    
N11   O30   1.300270 A    
C77   N3    1.376054 A    
C83   C95   1.420720 A    
Zn3   N3    2.032721 S    
N27   O45   1.300943 A    
N13   H10   1.044576 S    
N16   H16   1.044106 S    
C8    C21   1.444118 S    
N39   O54   1.300686 A    
C42   C50   1.412797 A    
C65   H1    1.080788 S    
C59   N23   1.431782 S    
C63   N27   1.428866 S    
C60   N24   1.428756 S    
N34   H35   1.034996 S    
C10   C50   1.392920 A    
N18   H20   1.045852 S    
N20   H23   1.045964 S    
C31   C39   1.416809 A    
C9    C49   1.398729 A    
O7    C4    1.301585 A    
N43   O62   1.301225 A    
C66   H2    1.080824 S    
N21   O34   1.301284 A    
N40   O56   1.301022 A    
O8    C3    1.304269 A    
C18   C26   1.406860 A    
N28   O47   1.301260 A    
C16   N12   1.438102 S    
C59   C71   1.386617 A    
C30   C38   1.405662 A    
C44   C47   1.402520 A    
C80   C86   1.431280 A    
O3    Zn1   2.031087 S    
C25   N13   1.430567 S    
N10   O27   1.300455 A    
C12   C52   1.396045 A    
C30   N18   1.445576 S    
C45   C53   1.410787 A    
C75   N31   1.429220 S    
N32   H31   1.037204 S    
N26   O43   1.301288 A    
C34   C42   1.421797 A    
N44   O63   1.301013 A    
N29   H25   1.035845 S    
O12   C5    1.297681 A    
C25   C33   1.400877 A    
C58   C70   1.388924 A    
O5    Zn2   2.019098 S    
C69   H5    1.082586 S    
N41   O58   1.301237 A    
C1    C20   1.437912 S    
N14   H12   1.045885 S    
C60   C72   1.388731 A    
C33   C57   1.419139 A    
C2    C19   1.449305 S    
N37   O49   1.301131 A    
C86   C98   1.423990 A    
C3    C18   1.438855 S    
C67   H3    1.083895 S    
C5    C24   1.442587 S    
C35   C59   1.419465 A    
C39   C47   1.424043 A    
C57   N21   1.435250 S    
N31   H29   1.037975 S    
O11   Zn3   2.031087 S    
C22   C30   1.408367 A    
N11   O29   1.301123 A    
C26   N14   1.445033 S    
C26   C34   1.406863 A    
N38   O52   1.301200 A    
C9    N5    1.440019 S    
N12   O31   1.301200 A    
C28   N16   1.434873 S    
O2    Zn2   2.011037 S    
C86   C92   1.411474 A    
C80   N36   1.423298 S    
C31   N19   1.433738 S    
C7    C22   1.435047 S    
C40   C48   1.416282 A    
C89   C90   1.432195 A    
C73   N29   1.425588 S    
C55   C72   1.397679 A    
C14   C54   1.392178 A    
C76   C82   1.430962 A    
O4    C1    1.299621 A    
C13   C53   1.394222 A    
O15   C8    1.300562 A    
N31   H30   1.041000 S    
C43   C51   1.415221 A    
N25   O41   1.301533 A    
O16   C7    1.296630 A    
N36   H40   1.043005 S    
C12   C20   1.408370 A    
N16   H15   1.043563 S    
C73   C83   1.428313 A    
N8    O24   1.301968 A    
C16   C24   1.402530 A    
C47   C55   1.406032 A    
C17   C25   1.410058 A    
C29   N17   1.429051 S    
C52   C67   1.397518 A    
C85   C97   1.420340 A    
N18   H19   1.041984 S    
C72   H8    1.081221 S    
N6    O20   1.301100 A    
C19   C27   1.405944 A    
C84   C90   1.411702 A    
C41   C49   1.413878 A    
C28   C36   1.413781 A    
N40   O55   1.301137 A    
N24   O40   1.300570 A    
C42   C45   1.403905 A    
C75   C81   1.430195 A    
C88   C100  1.421591 A    
C57   C69   1.384396 A    
C79   N3    1.377239 A    
C33   C41   1.418010 A    
C78   C88   1.427635 A    
C15   C55   1.395160 A    
N10   O28   1.300971 A    
N6    O19   1.299950 A    
C63   C67   1.389425 A    
O4    Zn2   2.031087 S    
N7    O21   1.300411 A    
N35   H38   1.043069 S    
N44   O64   1.300202 A    
O5    C3    1.285923 A    
C87   C91   1.411796 A    
C48   C56   1.413560 A    
C21   C29   1.401602 A    
O6    C4    1.296680 A    
O11   C6    1.291820 A    
C95   N39   1.434706 S    
C36   C60   1.419819 A    
C75   N1    1.379896 A    
Zn4   N4    2.032723 S    
C13   C21   1.395819 A    
N14   H11   1.041810 S    
C98   C99   1.408996 A    
N33   H33   1.038670 S    
C76   N32   1.429141 S    
C62   N26   1.436955 S    
N37   O50   1.301226 A    
N19   H21   1.043016 S    
C62   C66   1.388267 A    
O8    Zn1   2.029487 S    
C77   N33   1.426570 S    
C76   N2    1.380882 A    
C4    C17   1.453617 S    
N7    O22   1.301221 A    
O9    C5    1.295178 A    
O15   Zn4   2.029484 S    
N5    O17   1.301208 A    
C64   C68   1.382536 A    
C97   N41   1.434805 S    
C74   N2    1.374942 A    
C82   C94   1.423238 A    
C99   N43   1.435470 S    
N38   O51   1.301122 A    
C34   C58   1.418481 A    
N42   O60   1.301173 A    
C64   N28   1.433143 S    
C37   C61   1.414657 A    
C44   C52   1.405550 A    
C74   C84   1.427331 A    
C85   C91   1.412509 A    
N33   H34   1.042681 S    
N27   O46   1.300797 A    
C15   N11   1.449743 S    
N26   O44   1.301373 A    
C74   N30   1.424463 S    
C88   C92   1.410240 A    
C56   C71   1.396648 A    
C61   N25   1.433191 S    
C51   C68   1.398828 A    
C82   C90   1.412624 A    
C79   N35   1.429370 S    
C80   N4    1.380088 A    
C16   C56   1.396862 A    
C81   C89   1.412840 A    
O1    C1    1.290412 A    
N23   O37   1.301112 A    
N30   H28   1.044046 S    
N36   H39   1.038564 S    
C84   C96   1.420164 A    
C98   N42   1.434227 S    
C9    C17   1.407524 A    
C11   C19   1.404720 A    
N5    O18   1.300319 A    
N8    O23   1.297595 A    
C77   C87   1.427892 A    
N22   O35   1.301285 A    
C71   H7    1.082882 S    
C32   N20   1.434503 S    
C10   N6    1.440171 S    
N29   H26   1.043741 S    
C96   N40   1.435046 S    
C70   H6    1.082990 S    
C6    C23   1.452409 S    
C61   C65   1.383544 A    
C49   C66   1.401219 A    
C13   N9    1.428466 S    
C11   N7    1.441699 S    
C11   C51   1.393912 A    
C37   C45   1.419260 A    
