data_mof_unit_37263.cif
_audit_creation_date              2012-10-26T20:13:56-0400
_audit_creation_method            fapswitch 2.2
_symmetry_space_group_name_H-M    P1
_symmetry_Int_Tables_number       1
_space_group_crystal_system       triclinic
_cell_length_a                    8.775179
_cell_length_b                    10.747495
_cell_length_c                    9.551345
_cell_angle_alpha                 90.666248
_cell_angle_beta                  98.00178
_cell_angle_gamma                 91.274139
_cell_volume                      891.709148064

loop_
_atom_site_label
_atom_site_type_symbol
_atom_type_description
_atom_site_fract_x
_atom_site_fract_y
_atom_site_fract_z
_atom_type_partial_charge
C1    C     C_R   0.498108 0.262395 0.499098 0.558859
C2    C     C_R   0.620726 0.554054 0.943439 0.216318
C3    C     C_3   0.683736 0.687416 0.953979 0.480645
C4    C     C_R   0.204266 0.498012 0.463422 0.562430
C5    C     C_3   0.678381 0.682252 0.113173 -0.186238
C6    C     C_R   0.503547 0.737439 0.501210 0.531314
C7    C     C_R   0.796045 0.499188 0.535653 0.531455
C8    C     C_2   0.038765 0.495136 0.440193 0.221532
C9    C     C_2   0.961615 0.495615 0.552750 -0.151291
C10   C     C_R   0.410137 0.062441 0.581983 0.024588
C11   C     C_R   0.501814 0.128976 0.499301 0.053809
C12   C     C_R   0.607463 0.936961 0.426169 -0.183131
C13   C     C_R   0.603031 0.066439 0.423511 -0.167559
C14   C     C_3   0.953572 0.387908 0.235889 -0.096085
C15   C     C_3   0.860361 0.750652 0.798219 -0.080515
C16   C     C_3   0.614982 0.898968 0.928418 -0.000428
C17   C     C_3   0.473909 0.957204 0.978746 -0.269960
C18   C     C_3   0.498670 0.096840 0.006825 -0.478143
C19   C     C_3   0.016037 0.071156 0.400933 0.009741
C20   C     C_3   0.969895 0.041568 0.243263 -0.258860
C21   C     C_3   0.041876 0.921800 0.198742 -0.391027
C22   C     C_R   0.511012 0.870771 0.505700 0.014552
C23   C     C_R   0.417780 0.934134 0.587778 0.007988
C24   C     C_3   0.248158 0.916736 0.580463 -0.231396
C25   C     C_3   0.237357 0.057114 0.565333 0.127718
C26   C     C_R   0.619775 0.552747 0.090327 0.108502
C27   C     C_R   0.390194 0.435963 0.059446 -0.006769
C28   C     C_R   0.390235 0.435839 0.910602 -0.019796
Cu1   Cu    Cu3+1 0.499990 0.499980 0.640670 0.961169
Cu2   Cu    Cu3+1 0.500010 0.500020 0.359330 0.952866
H1    H     H_    0.299920 0.385584 0.842731 0.111619
H2    H     H_    0.299780 0.385889 0.102892 0.117193
H3    H     H_    0.066765 0.342375 0.240927 0.124171
H4    H     H_    0.908309 0.399245 0.122539 0.131477
H5    H     H_    0.870583 0.326805 0.282425 0.115770
H6    H     H_    0.877810 0.852720 0.812829 0.085873
H7    H     H_    0.765468 0.729482 0.712366 0.177018
H8    H     H_    0.966951 0.714442 0.764201 0.120005
H9    H     H_    0.644180 0.952009 0.836274 0.141459
H10   H     H_    0.715187 0.909503 0.013455 0.122171
H11   H     H_    0.371978 0.942156 0.897146 0.171620
H12   H     H_    0.793336 0.687276 0.178609 0.160079
H13   H     H_    0.448917 0.912156 0.077296 0.162920
H14   H     H_    0.395662 0.135331 0.045784 0.151905
H15   H     H_    0.516473 0.145155 0.907963 0.151111
H16   H     H_    0.600201 0.115004 0.088201 0.144200
H17   H     H_    0.957807 0.156623 0.429268 0.106953
H18   H     H_    0.974235 0.993137 0.462755 0.112073
H19   H     H_    0.842989 0.031003 0.219753 0.091984
H20   H     H_    0.006755 0.119645 0.179591 0.147157
H21   H     H_    0.169515 0.930673 0.216588 0.191808
H22   H     H_    0.004552 0.903114 0.084461 0.145754
H23   H     H_    0.592040 0.742962 0.151289 0.120989
H24   H     H_    0.004665 0.841911 0.259537 0.149776
H25   H     H_    0.021463 0.491914 0.660153 0.087215
H26   H     H_    0.675855 0.118055 0.361214 0.099720
H27   H     H_    0.683090 0.888630 0.364585 0.106769
H28   H     H_    0.196771 0.861642 0.485670 0.143532
H29   H     H_    0.214600 0.882642 0.681421 0.087649
H30   H     H_    0.189523 0.106833 0.651809 0.087236
N1    N     N_R   0.500980 0.500930 0.148050 -0.244183
N2    N     N_R   0.500990 0.500890 0.852140 -0.235174
O1    O     O_R   0.500000 0.319640 0.618810 -0.520865
O2    O     O_3   0.839863 0.695265 0.927630 -0.590344
O3    O     O_3   0.579647 0.773897 0.883191 -0.551281
O4    O     O_3   0.176796 0.093040 0.427168 -0.554684
O5    O     O_R   0.500020 0.319680 0.381230 -0.506519
O6    O     O_R   0.274830 0.499980 0.591380 -0.537273
O7    O     O_R   0.274850 0.500020 0.353800 -0.475233
O8    O     O_R   0.499980 0.680320 0.618770 -0.457700
O9    O     O_R   0.500000 0.680360 0.381190 -0.515973
O10   O     O_R   0.725150 0.499980 0.646200 -0.512822
O11   O     O_R   0.725170 0.500020 0.408620 -0.453703
O12   O     O_3   0.965998 0.506353 0.302330 -0.553738

loop_
_geom_bond_atom_site_label_1
_geom_bond_atom_site_label_2
_ccdc_geom_bond_type
C14   H4    S    
C23   C24   S    
Cu1   O1    S    
C15   H8    S    
C7    C9    S    
Cu1   Cu2   S    
C9    H25   S    
C25   H30   S    
C18   H14   S    
C10   C23   A    
Cu1   O6    S    
C19   C20   S    
C1    C11   S    
C21   H21   S    
C4    C8    S    
C13   H26   S    
C19   O4    S    
Cu1   O10   S    
C14   H3    S    
C8    O12   S    
Cu2   O9    S    
C8    C9    D    
C15   O2    S    
C24   H28   S    
C7    O11   A    
C3    O2    S    
C24   C25   S    
C20   C21   S    
C11   C13   A    
C3    O3    S    
C16   H10   S    
C24   H29   S    
C20   H19   S    
C12   H27   S    
C17   H13   S    
C10   C25   S    
C5    H23   S    
C4    O7    A    
C1    O5    A    
C26   N1    A    
C17   C18   S    
C2    C3    S    
C21   H22   S    
C28   N2    A    
C21   H24   S    
C12   C22   A    
C17   H11   S    
Cu2   N1    S    
C16   C17   S    
C10   C11   A    
C16   H9    S    
C5    C26   S    
C18   H16   S    
C18   H15   S    
C14   O12   S    
C15   H6    S    
C27   C28   A    
Cu2   O7    S    
C12   C13   A    
Cu1   N2    S    
C5    H12   S    
C2    C26   A    
Cu1   O8    S    
C19   H17   S    
C7    O10   A    
C6    O8    A    
Cu2   O11   S    
C22   C23   A    
C1    O1    A    
C20   H20   S    
C16   O3    S    
C27   N1    A    
C27   H2    S    
C19   H18   S    
C4    O6    A    
C14   H5    S    
C28   H1    S    
C15   H7    S    
C25   O4    S    
Cu2   O5    S    
C2    N2    A    
C6    O9    A    
C3    C5    S    
C6    C22   S    
