data_mof_unit_5057.cif
_audit_creation_date              2013-03-05T16:31:36-0500
_audit_creation_method            fapswitch 2.2
_symmetry_space_group_name_H-M    P1
_symmetry_Int_Tables_number       1
_space_group_crystal_system       triclinic
_cell_length_a                    9.549462
_cell_length_b                    10.872082
_cell_length_c                    15.447028
_cell_angle_alpha                 89.694016
_cell_angle_beta                  74.668632
_cell_angle_gamma                 91.057851
_cell_volume                      1546.32614558

loop_
_atom_site_label
_atom_site_type_symbol
_atom_site_description
_atom_site_fract_x
_atom_site_fract_y
_atom_site_fract_z
_atom_type_partial_charge
O1    O     O_R   0.118810 0.319640 0.500000 -0.583527
O2    O     O_R   0.881230 0.319680 0.499990 -0.576732
C1    C     C_R   0.997850 0.262619 0.502342 0.800936
O3    O     O_R   0.055580 0.499970 0.629840 -0.592679
O4    O     O_R   0.818000 0.500010 0.629830 -0.596768
C2    C     C_R   0.918557 0.497777 0.672135 0.781937
Cu1   Cu    Cu3+1 0.140670 0.499980 0.500000 0.956226
Cu2   Cu    Cu3+1 0.859330 0.500020 0.500000 0.983510
O5    O     O_R   0.118770 0.680320 0.500010 -0.580557
O6    O     O_R   0.881190 0.680360 0.500000 -0.596705
O7    O     O_R   0.182000 0.499990 0.370170 -0.584036
O8    O     O_R   0.944420 0.500030 0.370160 -0.527089
C3    C     C_R   0.000663 0.737927 0.500498 0.844825
C4    C     C_R   0.081181 0.497481 0.327350 0.863938
C5    C     C_R   0.873365 0.483034 0.770088 -0.042929
C6    C     C_R   0.124767 0.494472 0.227785 -0.161072
C7    C     C_R   0.913086 0.404574 0.908198 -0.208407
C8    C     C_R   0.965857 0.432964 0.817144 -0.193802
C9    C     C_R   0.729615 0.507429 0.815203 -0.239832
C10   C     C_R   0.671782 0.474099 0.905838 0.093857
C11   C     C_R   0.767055 0.424744 0.952868 0.130773
C12   C     C_R   0.522073 0.487234 0.950469 0.068869
C13   C     C_R   0.473051 0.464349 0.044686 0.056858
C14   C     C_R   0.571858 0.415784 0.089271 -0.138492
C15   C     C_R   0.715294 0.394356 0.043534 -0.146974
C16   C     C_R   0.418836 0.517475 0.903252 -0.209161
C17   C     C_R   0.273390 0.528872 0.947215 -0.200543
C18   C     C_R   0.225635 0.513850 0.039870 0.102497
C19   C     C_R   0.324983 0.485388 0.090223 0.104412
C20   C     C_R   0.078042 0.524740 0.082178 -0.260955
C21   C     C_R   0.025138 0.509001 0.174900 0.364905
C22   C     C_R   0.272988 0.481786 0.184430 -0.270362
H1    H     H_    0.786606 0.354149 0.079604 0.185886
H2    H     H_    0.347437 0.472648 0.225578 0.171443
H3    H     H_    0.077370 0.412559 0.783151 0.143713
H4    H     H_    0.665177 0.552914 0.777557 0.144254
H5    H     H_    0.539894 0.388084 0.158965 0.169807
H6    H     H_    0.445299 0.527655 0.831334 0.133858
H7    H     H_    0.002381 0.542259 0.042450 0.176525
C23   C     C_R   0.118707 0.067607 0.510823 0.028428
C24   C     C_R   0.992749 0.129992 0.511201 -0.054924
C25   C     C_R   0.862752 0.061884 0.521973 -0.187808
H8    H     H_    0.760745 0.107327 0.527752 0.162302
C26   C     C_R   0.865279 0.933311 0.520500 -0.192440
H9    H     H_    0.764155 0.883096 0.526543 0.152615
C27   C     C_R   0.998035 0.871551 0.506822 -0.034379
C28   C     C_R   0.122824 0.941509 0.506297 0.008480
C29   C     C_3   0.276421 0.947904 0.447059 0.163229
C30   C     C_3   0.269904 0.087000 0.454163 -0.442080
H10   H     H_    0.357285 0.910023 0.479530 0.073549
H11   H     H_    0.342414 0.126277 0.493160 0.170327
C31   C     C_R   0.605874 0.543132 0.427404 0.352261
N1    N     N_R   0.648210 0.500930 0.499430 -0.195885
C32   C     C_R   0.543889 0.446837 0.568218 -0.094513
H12   H     H_    0.574265 0.404983 0.624068 0.143572
C33   C     C_R   0.394968 0.447715 0.568569 -0.083566
H13   H     H_    0.314387 0.407317 0.624791 0.135821
N2    N     N_R   0.352300 0.500890 0.499430 -0.192749
C34   C     C_R   0.458957 0.539074 0.425981 0.219457
C35   C     C_3   0.470428 0.663480 0.384966 -0.412836
C36   C     C_3   0.625680 0.671580 0.391563 -0.463615
H14   H     H_    0.460653 0.661061 0.314849 0.245530
H15   H     H_    0.397201 0.726066 0.430154 0.213649
H16   H     H_    0.706735 0.680633 0.325793 0.266688
H17   H     H_    0.640907 0.739041 0.442270 0.188597
N3    N     N_R   0.295020 0.908426 0.354018 0.140073
O9    O     O_R   0.191377 0.852221 0.328546 -0.364588
O10   O     O_R   0.419247 0.928752 0.295584 -0.339794
H18   H     H_    0.274462 0.136042 0.389985 0.225567
N4    N     N_R   0.870772 0.505005 0.212442 0.094298
O11   O     O_R   0.810072 0.407291 0.256791 -0.383104
O12   O     O_R   0.790277 0.578852 0.180699 -0.401888
H19   H     H_    0.197619 0.549973 0.908155 0.149204
H20   H     H_    0.985760 0.364399 0.943306 0.142115

loop_
_geom_bond_atom_site_label_1
_geom_bond_atom_site_label_2
_geom_bond_distance
_ccdc_geom_bond_type
C5    C8    1.399235 A    
N3    O10   1.301096 A    
C23   C28   1.373864 A    
C24   C25   1.404486 A    
C9    C10   1.405259 A    
Cu1   Cu2   2.686653 S    
N1    C32   1.370874 A    
C31   N1    1.360539 A    
C6    C21   1.418670 A    
Cu1   O7    1.938864 S    
C16   C17   1.383520 A    
C35   H15   1.097156 S    
O4    C2    1.297024 A    
C13   C19   1.426229 A    
C18   C19   1.413950 A    
C19   C22   1.407950 A    
C9    H4    1.076464 S    
C20   C21   1.395528 A    
O7    C4    1.304271 A    
C23   C30   1.487858 S    
C33   H13   1.081354 S    
C35   H14   1.111839 S    
O5    C3    1.298470 A    
C2    C5    1.466594 S    
C27   C28   1.399992 A    
C21   N4    1.434054 S    
C1    C24   1.446392 S    
C30   H11   1.112240 S    
C13   C14   1.414749 A    
N4    O11   1.301306 A    
C8    H3    1.083141 S    
Cu1   N2    2.018484 S    
C29   H10   1.109884 S    
N3    O9    1.301519 A    
C34   C35   1.480363 S    
C30   H18   1.113401 S    
C25   C26   1.398714 A    
O3    Cu1   1.954753 S    
C26   C27   1.412083 A    
C14   H5    1.078057 S    
C32   C33   1.420898 A    
C14   C15   1.389753 A    
O3    C2    1.298533 A    
C16   H6    1.076770 S    
N2    C34   1.365735 A    
C7    C11   1.404625 A    
C35   C36   1.513713 S    
O1    C1    1.292714 A    
C22   H2    1.077143 S    
C36   H16   1.105095 S    
C5    C9    1.396405 A    
C31   C34   1.408837 A    
C28   C29   1.509762 S    
Cu2   O8    1.954753 S    
C7    C8    1.393665 A    
C23   C24   1.390444 A    
O8    C4    1.299434 A    
C7    H20   1.083600 S    
C4    C6    1.484000 S    
C25   H8    1.083156 S    
C26   H9    1.082417 S    
Cu1   O5    1.975625 S    
C11   C15   1.392079 A    
C32   H12   1.080974 S    
C29   C30   1.518062 S    
O1    Cu1   1.967917 S    
O2    Cu2   1.975624 S    
C10   C12   1.423708 A    
O6    C3    1.292970 A    
Cu2   N1    2.018636 S    
O4    Cu2   1.938861 S    
C6    C22   1.406385 A    
C31   C36   1.489676 S    
C18   C20   1.395537 A    
O2    C1    1.293474 A    
C3    C27   1.456803 S    
C33   N2    1.368603 A    
C20   H7    1.083153 S    
C36   H17   1.111317 S    
C10   C11   1.416621 A    
Cu2   O6    1.967917 S    
C12   C16   1.414787 A    
C17   C18   1.390223 A    
C12   C13   1.425041 A    
N4    O12   1.301460 A    
C29   N3    1.468242 S    
C17   H19   1.084317 S    
C15   H1    1.083660 S    
