data_mof_unit_60340.cif
_audit_creation_date              2012-12-10T18:42:50-0500
_audit_creation_method            fapswitch 2.2
_symmetry_space_group_name_H-M    P1
_symmetry_Int_Tables_number       1
_space_group_crystal_system       triclinic
_cell_length_a                    45.024307
_cell_length_b                    31.851899
_cell_length_c                    31.84413
_cell_angle_alpha                 90.017964
_cell_angle_beta                  134.992532
_cell_angle_gamma                 89.980958
_cell_volume                      32296.3415831

loop_
_atom_site_label
_atom_site_type_symbol
_atom_type_description
_atom_site_fract_x
_atom_site_fract_y
_atom_site_fract_z
_atom_type_partial_charge
C1    C     C_R   0.581363 0.999999 0.581353 0.895631
C2    C     C_3   0.000245 0.208732 0.499712 -0.078137
C3    C     C_R   0.581371 0.499997 0.081440 0.902015
C4    C     C_3   0.019029 0.035099 0.783125 -0.265556
C5    C     C_3   0.020024 0.965421 0.784091 -0.265493
C6    C     C_3   0.519159 0.535022 0.783254 -0.265498
C7    C     C_3   0.519895 0.465340 0.783964 -0.265596
C8    C     C_3   0.479232 0.534329 0.715434 -0.212737
C9    C     C_3   0.479963 0.465206 0.716138 -0.212790
C10   C     C_3   0.979105 0.034259 0.715308 -0.212791
C11   C     C_3   0.980092 0.965140 0.716266 -0.212858
C12   C     C_1   0.499881 0.499993 0.625853 -0.164029
C13   C     C_3   0.475235 0.236318 0.443040 0.068932
C14   C     C_1   0.999881 0.999997 0.625853 -0.164129
C15   C     C_1   0.999813 0.999982 0.873987 -0.167253
C16   C     C_1   0.499813 0.499981 0.873987 -0.167243
C17   C     C_3   0.538579 0.500381 0.775153 0.542689
C18   C     C_3   0.038577 0.000531 0.775151 0.542717
C19   C     C_3   0.499456 0.499976 0.708428 0.131153
C20   C     C_3   0.999456 0.999982 0.708428 0.131206
C21   C     C_3   0.999719 0.999978 0.790931 0.129901
C22   C     C_3   0.499719 0.499973 0.790930 0.129864
C23   C     C_3   0.538594 0.236074 0.532597 0.443090
C24   C     C_3   0.476210 0.763668 0.443151 0.068604
C25   C     C_3   0.538717 0.763891 0.533830 0.442565
C26   C     C_3   0.038883 0.736071 0.534837 0.443113
C27   C     C_3   0.038623 0.263898 0.532866 0.442524
C28   C     C_3   0.959750 0.999417 0.723941 -0.110299
C29   C     C_3   0.459748 0.499559 0.723939 -0.110233
C30   C     C_1   0.499735 0.499985 0.663234 -0.007249
C31   C     C_1   0.999735 0.999991 0.663235 -0.007346
C32   C     C_1   0.999733 0.999977 0.836386 -0.034482
C33   C     C_1   0.499733 0.499974 0.836386 -0.034448
C34   C     C_3   0.012806 0.961888 0.248951 0.043591
C35   C     C_3   0.976945 0.736318 0.443504 0.069021
C36   C     C_3   0.026719 0.030021 0.262823 0.081239
C37   C     C_3   0.513268 0.462027 0.249413 0.043516
C38   C     C_3   0.526351 0.530324 0.262455 0.081349
C39   C     C_3   0.474159 0.470048 0.238065 0.151092
C40   C     C_3   0.487163 0.537604 0.251002 0.140681
C41   C     C_3   0.973797 0.970383 0.237702 0.151020
C42   C     C_3   0.987622 0.037777 0.251462 0.140714
C43   C     C_1   0.500170 0.500043 0.374400 -0.123746
C44   C     C_1   0.000170 0.000048 0.374401 -0.123672
C45   C     C_1   0.000065 0.000023 0.125945 -0.142988
C46   C     C_3   0.975507 0.263665 0.442970 0.068531
C47   C     C_1   0.500065 0.500019 0.125944 -0.142989
C48   C     C_3   0.538783 0.492611 0.302480 0.399283
C49   C     C_3   0.038691 0.992159 0.302388 0.399310
C50   C     C_3   0.500111 0.500154 0.291404 -0.058814
C51   C     C_3   0.000113 0.000172 0.291406 -0.058802
C52   C     C_3   0.000361 0.999913 0.209152 -0.059568
C53   C     C_3   0.500361 0.499898 0.209152 -0.059551
C54   C     C_1   0.499773 0.125791 0.499720 -0.137059
C55   C     C_1   0.499768 0.874207 0.499662 -0.137077
C56   C     C_1   0.999795 0.625790 0.499731 -0.137098
C57   C     C_3   0.514961 0.263889 0.477254 0.105762
C58   C     C_1   0.999771 0.374207 0.499665 -0.137081
C59   C     C_3   0.961117 0.008053 0.196993 -0.246096
C60   C     C_3   0.461022 0.507560 0.196898 -0.246155
C61   C     C_1   0.500249 0.500092 0.336989 0.114764
C62   C     C_1   0.000250 0.000102 0.336990 0.114822
C63   C     C_1   0.000145 0.000005 0.163515 0.081950
C64   C     C_1   0.500145 0.499995 0.163514 0.081942
C65   C     C_1   0.500131 0.374167 0.500035 -0.150978
C66   C     C_1   0.500103 0.625831 0.499984 -0.150704
C67   C     C_1   0.000141 0.874165 0.500057 -0.150959
C68   C     C_3   0.516080 0.736063 0.478763 0.105677
C69   C     C_1   0.000110 0.125832 0.499979 -0.150677
C70   C     C_3   0.484968 0.236489 0.520650 0.446254
C71   C     C_3   0.483807 0.763548 0.518895 0.446362
C72   C     C_3   0.983204 0.736483 0.518050 0.446179
C73   C     C_3   0.984614 0.263545 0.520041 0.446413
C74   C     C_3   0.499394 0.208689 0.498588 -0.058918
C75   C     C_3   0.499384 0.791308 0.498450 -0.058747
C76   C     C_3   0.999470 0.708687 0.498607 -0.058973
C77   C     C_3   0.999382 0.291308 0.498450 -0.058693
C78   C     C_3   0.610239 0.247104 0.605387 0.139263
C79   C     C_3   0.016898 0.763892 0.479983 0.105852
C80   C     C_3   0.652083 0.229190 0.632717 -0.787882
C81   C     C_3   0.610283 0.752777 0.608742 0.139437
C82   C     C_3   0.652565 0.770623 0.637778 -0.787163
C83   C     C_3   0.110376 0.747103 0.611093 0.139927
C84   C     C_3   0.152880 0.729280 0.641011 -0.789257
C85   C     C_3   0.110249 0.252827 0.606281 0.139072
C86   C     C_3   0.152221 0.270690 0.634076 -0.786470
C87   C     C_3   0.248147 0.996656 0.357485 0.094687
C88   C     C_3   0.267073 0.995266 0.420227 -0.764378
C89   C     C_3   0.748152 0.497278 0.357510 0.094696
C90   C     C_3   0.015276 0.236066 0.477600 0.105787
C91   C     C_3   0.767081 0.496140 0.420260 -0.764728
C92   C     C_3   0.609317 0.501116 0.860863 0.089001
C93   C     C_3   0.653075 0.501574 0.885489 -0.747686
C94   C     C_3   0.109312 0.001527 0.860858 0.088980
C95   C     C_3   0.153068 0.002148 0.885482 -0.747636
C96   C     C_3   0.608248 0.474316 0.359308 0.144506
C97   C     C_3   0.651361 0.490803 0.414659 -0.770403
C98   C     C_3   0.107932 0.973034 0.358989 0.144802
C99   C     C_3   0.151234 0.989024 0.414523 -0.770295
C100  C     C_3   0.468581 0.248964 0.573727 0.126896
C101  C     C_1   0.499577 0.163267 0.499270 0.126700
C102  C     C_3   0.442039 0.233165 0.583594 -0.763931
C103  C     C_3   0.465210 0.751135 0.569206 0.127462
C104  C     C_3   0.437495 0.766966 0.577014 -0.765417
C105  C     C_3   0.963257 0.748963 0.566630 0.126760
C106  C     C_3   0.934838 0.733178 0.573182 -0.763851
C107  C     C_3   0.967557 0.251127 0.572288 0.127570
C108  C     C_3   0.940636 0.266952 0.581499 -0.765545
C109  C     C_3   0.747050 0.902801 0.691810 0.147639
C110  C     C_3   0.728866 0.858695 0.671432 -0.824249
C111  C     C_3   0.746962 0.095524 0.688847 0.147329
C112  C     C_R   0.081362 0.499998 0.581353 0.895676
C113  C     C_1   0.499568 0.836732 0.499165 0.126759
C114  C     C_3   0.728711 0.139517 0.667043 -0.824631
C115  C     C_3   0.247036 0.404207 0.689398 0.146965
C116  C     C_3   0.228802 0.360195 0.667795 -0.823201
C117  C     C_3   0.246922 0.596994 0.691336 0.147196
C118  C     C_3   0.228607 0.641037 0.670562 -0.823998
C119  C     C_3   0.752403 0.904609 0.809783 0.141790
C120  C     C_3   0.770350 0.860523 0.831511 -0.813850
C121  C     C_3   0.752309 0.097155 0.806799 0.142283
C122  C     C_3   0.770191 0.141359 0.827096 -0.817994
C123  C     C_3   0.252381 0.403172 0.807347 0.142029
C124  C     C_1   0.999624 0.663265 0.499282 0.126640
C125  C     C_3   0.270294 0.358988 0.827872 -0.814678
C126  C     C_3   0.252278 0.595715 0.809272 0.142054
C127  C     C_3   0.270123 0.639862 0.830614 -0.817563
C128  C     C_1   0.999571 0.336732 0.499169 0.126812
C129  C     C_1   0.500299 0.336681 0.500058 0.072903
C130  C     C_1   0.500253 0.663316 0.499962 0.072957
C131  C     C_1   0.000331 0.836679 0.500103 0.072943
C132  C     C_1   0.000269 0.163318 0.499962 0.072963
C133  C     C_3   0.763765 0.966075 0.783715 0.353437
C134  C     C_3   0.763738 0.034578 0.782661 0.353157
C135  C     C_3   0.263761 0.465567 0.782871 0.353338
C136  C     C_3   0.460334 0.264277 0.465088 0.104512
C137  C     C_3   0.263729 0.534074 0.783562 0.353168
C138  C     C_3   0.736094 0.965469 0.716450 0.355081
C139  C     C_3   0.736066 0.033957 0.715395 0.355200
C140  C     C_3   0.236091 0.465970 0.715604 0.355075
C141  C     C_3   0.236059 0.534462 0.716294 0.355180
C142  C     C_1   0.625797 0.000002 0.625799 -0.141661
C143  C     C_1   0.125795 0.499994 0.625803 -0.141583
C144  C     C_1   0.874137 0.000013 0.873792 -0.148774
C145  C     C_1   0.374135 0.500016 0.873806 -0.148798
C146  C     C_R   0.499971 0.081363 0.499979 0.896286
C147  C     C_3   0.460147 0.735749 0.463556 0.104564
C148  C     C_R   0.499971 0.918637 0.499965 0.896370
C149  C     C_R   0.999972 0.581362 0.499978 0.896385
C150  C     C_R   0.999971 0.418637 0.499965 0.896304
C151  C     C_3   0.736564 0.000643 0.777124 -0.074043
C152  C     C_3   0.236556 0.499596 0.777150 -0.074032
C153  C     C_3   0.708719 0.000022 0.709178 -0.125253
C154  C     C_3   0.208715 0.499996 0.709204 -0.125260
C155  C     C_3   0.791161 0.000018 0.789995 -0.124697
C156  C     C_3   0.291157 0.500039 0.790026 -0.124770
C157  C     C_3   0.763282 0.999396 0.721998 -0.071644
C158  C     C_3   0.960180 0.764272 0.462885 0.104389
C159  C     C_3   0.263276 0.500440 0.722023 -0.071418
C160  C     C_1   0.663279 0.000009 0.663436 0.164049
C161  C     C_1   0.163276 0.499992 0.663452 0.164166
C162  C     C_1   0.836635 0.000020 0.835911 0.162232
C163  C     C_1   0.336632 0.500031 0.835935 0.162185
C164  C     C_3   0.235925 0.034222 0.256578 -0.293242
C165  C     C_3   0.235939 0.964537 0.254447 -0.294450
C166  C     C_3   0.735926 0.534340 0.256387 -0.293423
C167  C     C_3   0.735940 0.464644 0.254650 -0.294366
C168  C     C_3   0.263961 0.035194 0.244720 -0.227346
C169  C     C_3   0.960261 0.235745 0.464541 0.104574
C170  C     C_3   0.263976 0.965998 0.242605 -0.228002
C171  C     C_3   0.763961 0.535085 0.244522 -0.227580
C172  C     C_3   0.763975 0.465878 0.242799 -0.227849
C173  C     C_1   0.374102 0.999992 0.374149 -0.147730
C174  C     C_1   0.874102 0.499992 0.374149 -0.147806
C175  C     C_1   0.125844 0.999989 0.125831 -0.157536
C176  C     C_1   0.625844 0.499989 0.125833 -0.157571
C177  C     C_R   0.418597 0.999998 0.418623 0.901362
C178  C     C_R   0.918597 0.499998 0.418623 0.901341
C179  C     C_3   0.263410 0.998799 0.302094 0.554713
C180  C     C_3   0.500277 0.291266 0.499841 -0.077834
C181  C     C_3   0.763411 0.499019 0.302103 0.554716
C182  C     C_3   0.291124 0.999991 0.290726 0.086160
C183  C     C_3   0.791124 0.499990 0.290727 0.086205
C184  C     C_3   0.208784 0.999982 0.208544 0.075009
C185  C     C_3   0.708784 0.499982 0.208547 0.075080
C186  C     C_3   0.236076 0.001192 0.196158 0.248406
C187  C     C_3   0.736075 0.500967 0.196153 0.248434
C188  C     C_1   0.336581 0.999988 0.336509 0.029049
C189  C     C_1   0.836581 0.499988 0.336509 0.028958
C190  C     C_1   0.163352 0.999984 0.163238 0.005216
C191  C     C_3   0.500224 0.708731 0.499707 -0.078072
C192  C     C_1   0.663352 0.499984 0.163241 0.005161
C193  C     C_R   0.499951 0.500000 0.581417 0.893316
C194  C     C_R   0.999951 0.000001 0.581417 0.893224
C195  C     C_R   0.500011 0.418612 0.500042 0.900071
C196  C     C_R   0.500004 0.581387 0.500034 0.900187
C197  C     C_R   0.000012 0.918612 0.500048 0.900002
C198  C     C_R   0.000005 0.081388 0.500033 0.900187
C199  C     C_R   0.500048 0.500001 0.418726 0.907997
C200  C     C_R   0.000048 0.000002 0.418726 0.908054
C201  C     C_R   0.000025 0.000007 0.081457 0.899609
C202  C     C_3   0.000335 0.791263 0.499900 -0.077793
C203  C     C_R   0.500025 0.500007 0.081457 0.899573
C204  C     C_3   0.524872 0.263811 0.556318 -0.471297
C205  C     C_3   0.523815 0.736199 0.555929 -0.471139
C206  C     C_3   0.023275 0.763803 0.555929 -0.471297
C207  C     C_3   0.024552 0.236203 0.556118 -0.471162
C208  C     C_R   0.918607 0.000003 0.918622 0.896692
C209  C     C_R   0.418607 0.500004 0.918624 0.896679
C210  C     C_R   0.999919 0.999994 0.918589 0.907213
C211  C     C_R   0.499919 0.499994 0.918589 0.907222
C212  C     C_R   0.081371 0.999997 0.081439 0.902032
H1    H     H_    0.276147 0.063790 0.241145 0.183065
H2    H     H_    0.463725 0.436895 0.687666 0.159535
H3    H     H_    0.754593 0.084404 0.664361 0.191847
H4    H     H_    0.776483 0.097554 0.737003 0.169056
H5    H     H_    0.720360 0.151581 0.690321 0.249276
H6    H     H_    0.752156 0.160906 0.676048 0.215458
H7    H     H_    0.700061 0.139024 0.618511 0.277343
H8    H     H_    0.276545 0.402274 0.737570 0.169119
H9    H     H_    0.254685 0.415165 0.664886 0.192032
H10   H     H_    0.200172 0.360585 0.619252 0.277468
H11   H     H_    0.252268 0.338731 0.676944 0.215853
H12   H     H_    0.220420 0.348296 0.691089 0.249141
H13   H     H_    0.962169 0.062166 0.686161 0.159566
H14   H     H_    0.254619 0.586704 0.666655 0.191910
H15   H     H_    0.276412 0.598591 0.739550 0.169091
H16   H     H_    0.220154 0.652269 0.694018 0.249782
H17   H     H_    0.252051 0.662829 0.680181 0.215408
H18   H     H_    0.200007 0.641011 0.622002 0.277583
H19   H     H_    0.722947 0.902686 0.761581 0.168378
H20   H     H_    0.744701 0.915841 0.834138 0.193523
H21   H     H_    0.798677 0.860872 0.880179 0.276298
H22   H     H_    0.746557 0.839264 0.821786 0.212608
H23   H     H_    0.779133 0.848422 0.808788 0.252098
H24   H     H_    0.963959 0.936769 0.687899 0.159321
H25   H     H_    0.744640 0.086923 0.831520 0.192871
H26   H     H_    0.722839 0.098457 0.758550 0.168606
H27   H     H_    0.778942 0.152478 0.803980 0.252511
H28   H     H_    0.746373 0.163021 0.816696 0.212543
H29   H     H_    0.798528 0.141681 0.875760 0.275095
H30   H     H_    0.222908 0.401763 0.759108 0.168286
H31   H     H_    0.244711 0.413568 0.832022 0.193493
H32   H     H_    0.298640 0.358783 0.876535 0.276205
H33   H     H_    0.246496 0.337388 0.817602 0.212504
H34   H     H_    0.279039 0.347706 0.804799 0.252116
H35   H     H_    0.035064 0.063575 0.811274 0.148442
H36   H     H_    0.244644 0.584674 0.833770 0.192974
H37   H     H_    0.222790 0.597457 0.761068 0.168587
H38   H     H_    0.278833 0.651779 0.807737 0.252515
H39   H     H_    0.246297 0.661162 0.820762 0.212589
H40   H     H_    0.298478 0.639705 0.879273 0.275190
H41   H     H_    0.036864 0.937405 0.813023 0.148318
H42   H     H_    0.535299 0.563439 0.811508 0.148449
H43   H     H_    0.536632 0.437263 0.812792 0.148328
H44   H     H_    0.927149 0.998955 0.703696 0.155678
H45   H     H_    0.427145 0.499219 0.703692 0.155727
H46   H     H_    0.544914 0.276038 0.602108 0.158684
H47   H     H_    0.276175 0.938416 0.237313 0.182503
H48   H     H_    0.543035 0.723989 0.601519 0.158766
H49   H     H_    0.041983 0.776022 0.601376 0.158628
H50   H     H_    0.044350 0.223989 0.601854 0.158818
H51   H     H_    0.929132 0.014570 0.152774 0.198370
H52   H     H_    0.428960 0.513688 0.152602 0.198346
H53   H     H_    0.612369 0.253294 0.641832 0.138457
H54   H     H_    0.604737 0.277192 0.582937 0.158197
H55   H     H_    0.651086 0.222732 0.597455 0.271224
H56   H     H_    0.677615 0.252035 0.664719 0.204874
H57   H     H_    0.658895 0.199529 0.656553 0.254051
H58   H     H_    0.776147 0.563591 0.240784 0.182883
H59   H     H_    0.605265 0.722686 0.586616 0.158291
H60   H     H_    0.611369 0.746602 0.644192 0.138670
H61   H     H_    0.658891 0.800287 0.661324 0.254082
H62   H     H_    0.677867 0.747750 0.670321 0.205446
H63   H     H_    0.652612 0.777056 0.603543 0.271216
H64   H     H_    0.110857 0.753169 0.645973 0.138709
H65   H     H_    0.105661 0.777251 0.589297 0.157977
H66   H     H_    0.153514 0.722969 0.607342 0.270958
H67   H     H_    0.178052 0.752119 0.673952 0.205161
H68   H     H_    0.158908 0.699549 0.664238 0.254211
H69   H     H_    0.776173 0.438198 0.237663 0.182577
H70   H     H_    0.104876 0.222720 0.583936 0.158369
H71   H     H_    0.112084 0.246682 0.642451 0.138680
H72   H     H_    0.158896 0.300379 0.657796 0.253854
H73   H     H_    0.177688 0.247840 0.666258 0.205300
H74   H     H_    0.151517 0.277086 0.599091 0.271393
H75   H     H_    0.228195 0.968252 0.333434 0.139390
H76   H     H_    0.228254 0.025307 0.335289 0.143419
H77   H     H_    0.286810 0.023509 0.445340 0.262094
H78   H     H_    0.241614 0.994551 0.418609 0.200963
H79   H     H_    0.286753 0.966697 0.443491 0.259954
H80   H     H_    0.223809 0.061956 0.261764 0.163893
H81   H     H_    0.728201 0.468851 0.333624 0.139459
H82   H     H_    0.728258 0.525915 0.335149 0.143246
H83   H     H_    0.786817 0.524414 0.445209 0.261973
H84   H     H_    0.741623 0.495561 0.418649 0.200824
H85   H     H_    0.786762 0.467594 0.443688 0.260049
H86   H     H_    0.606485 0.472541 0.877951 0.146308
H87   H     H_    0.605882 0.529623 0.877371 0.146509
H88   H     H_    0.657176 0.530039 0.869872 0.256479
H89   H     H_    0.677027 0.501821 0.934784 0.221586
H90   H     H_    0.657778 0.473203 0.870451 0.256362
H91   H     H_    0.223836 0.935800 0.257905 0.162280
H92   H     H_    0.106587 0.972939 0.878051 0.146300
H93   H     H_    0.105771 0.030019 0.877263 0.146514
H94   H     H_    0.157063 0.030631 0.869763 0.256487
H95   H     H_    0.177019 0.002483 0.934776 0.221581
H96   H     H_    0.157876 0.973797 0.870547 0.256367
H97   H     H_    0.600864 0.486298 0.319861 0.143310
H98   H     H_    0.609837 0.439522 0.359712 0.180983
H99   H     H_    0.660533 0.478286 0.455060 0.263205
H100  H     H_    0.674998 0.480769 0.414680 0.198073
H101  H     H_    0.650809 0.525642 0.415460 0.273177
H102  H     H_    0.723810 0.562172 0.261416 0.163717
H103  H     H_    0.100683 0.985096 0.319677 0.143208
H104  H     H_    0.109116 0.938223 0.358992 0.181236
H105  H     H_    0.160265 0.976401 0.454782 0.263405
H106  H     H_    0.174750 0.978719 0.414419 0.198207
H107  H     H_    0.151084 0.023866 0.415726 0.273013
H108  H     H_    0.455494 0.279697 0.550235 0.155264
H109  H     H_    0.501264 0.253559 0.617846 0.140710
H110  H     H_    0.454669 0.202838 0.607917 0.259163
H111  H     H_    0.442577 0.256425 0.610112 0.201919
H112  H     H_    0.409063 0.228600 0.540208 0.269036
H113  H     H_    0.723836 0.435996 0.258273 0.162326
H114  H     H_    0.497503 0.746537 0.613990 0.140755
H115  H     H_    0.452469 0.720399 0.545641 0.155339
H116  H     H_    0.404879 0.771541 0.532915 0.268742
H117  H     H_    0.437178 0.743719 0.602679 0.202042
H118  H     H_    0.449740 0.797294 0.601363 0.259091
H119  H     H_    0.950741 0.779697 0.543033 0.155400
H120  H     H_    0.995298 0.753553 0.611798 0.140642
H121  H     H_    0.946832 0.702853 0.597526 0.259000
H122  H     H_    0.934013 0.756446 0.598322 0.202093
H123  H     H_    0.902455 0.728612 0.528671 0.269103
H124  H     H_    0.462399 0.562298 0.686391 0.159526
H125  H     H_    0.000122 0.246534 0.616623 0.140818
H126  H     H_    0.954583 0.220389 0.548776 0.155268
H127  H     H_    0.907770 0.271521 0.537879 0.268697
H128  H     H_    0.940903 0.243705 0.607746 0.201954
H129  H     H_    0.953141 0.297282 0.605833 0.259177
H130  H     H_    0.776593 0.901388 0.740010 0.169103
H131  H     H_    0.754629 0.912930 0.666941 0.192087
H132  H     H_    0.700182 0.858537 0.622908 0.277589
H133  H     H_    0.752323 0.836902 0.681060 0.216016
H134  H     H_    0.720590 0.847601 0.695148 0.249215
I1    I     I_    0.711257 0.001595 0.814245 -0.367537
I2    I     I_    0.068082 0.077680 0.281013 -0.290803
I3    I     I_    0.530711 0.401783 0.242478 -0.295207
I4    I     I_    0.567135 0.578481 0.280070 -0.290164
I5    I     I_    0.539159 0.287055 0.443197 -0.243436
I6    I     I_    0.542041 0.712801 0.447250 -0.235584
I7    I     I_    0.044050 0.787059 0.450199 -0.245687
I8    I     I_    0.039969 0.212798 0.444267 -0.234541
I9    I     I_    0.436494 0.212757 0.354723 -0.199269
I10   I     I_    0.439056 0.787210 0.355222 -0.200456
I11   I     I_    0.940800 0.712755 0.355863 -0.198025
I12   I     I_    0.211242 0.498954 0.814264 -0.367565
I13   I     I_    0.937244 0.287214 0.354767 -0.201125
I14   I     I_    0.398037 0.287855 0.411778 -0.263394
I15   I     I_    0.397589 0.712217 0.408012 -0.265744
I16   I     I_    0.897505 0.787849 0.406009 -0.262461
I17   I     I_    0.897880 0.212201 0.410575 -0.266347
I18   I     I_    0.788534 0.998449 0.684814 -0.397195
I19   I     I_    0.288512 0.501094 0.684814 -0.396721
I20   I     I_    0.213487 0.003100 0.110460 -0.366232
I21   I     I_    0.713484 0.502519 0.110444 -0.366354
I22   I     I_    0.431522 0.423820 0.218892 -0.217052
I23   I     I_    0.465062 0.596602 0.252067 -0.212793
I24   I     I_    0.930596 0.924679 0.217960 -0.217683
I25   I     I_    0.966246 0.097038 0.253260 -0.212413
I26   I     I_    0.029523 0.901438 0.241295 -0.294562
O1    O     O_R   0.561630 0.000000 0.596420 -0.611025
O2    O     O_R   0.965230 0.000000 0.403640 -0.602485
O3    O     O_R   0.000030 0.965220 0.061700 -0.605968
O4    O     O_R   0.000030 0.034780 0.061700 -0.607187
O5    O     O_R   0.500030 0.465220 0.061700 -0.605908
O6    O     O_R   0.500030 0.534780 0.061700 -0.607219
O7    O     O_R   0.938380 0.965210 0.938430 -0.608635
O8    O     O_R   0.938380 0.034790 0.938430 -0.609629
O9    O     O_R   0.438380 0.465210 0.938430 -0.608584
O10   O     O_R   0.438380 0.534790 0.938430 -0.609665
O11   O     O_R   0.999950 0.965200 0.938400 -0.614408
O12   O     O_R   0.061630 0.500000 0.596420 -0.611039
O13   O     O_R   0.999950 0.034800 0.938400 -0.614338
O14   O     O_R   0.499950 0.465200 0.938400 -0.614469
O15   O     O_R   0.499950 0.534800 0.938400 -0.614266
O16   O     O_R   0.061600 0.965210 0.061670 -0.613514
O17   O     O_R   0.061600 0.034790 0.061670 -0.611359
O18   O     O_R   0.561600 0.465210 0.061670 -0.613394
O19   O     O_R   0.561600 0.534790 0.061670 -0.611485
O20   O     O_R   0.561580 0.000000 0.526800 -0.602040
O21   O     O_R   0.061580 0.500000 0.526800 -0.602005
O22   O     O_R   0.500020 0.061610 0.534810 -0.610980
O23   O     O_R   0.465210 0.438380 0.465220 -0.601459
O24   O     O_R   0.500020 0.938390 0.534810 -0.611073
O25   O     O_R   0.000020 0.561610 0.534810 -0.611169
O26   O     O_R   0.000020 0.438390 0.534810 -0.610968
O27   O     O_R   0.499970 0.061600 0.465200 -0.604727
O28   O     O_R   0.499970 0.938400 0.465200 -0.604743
O29   O     O_R   0.999970 0.561600 0.465200 -0.604679
O30   O     O_R   0.999970 0.438400 0.465200 -0.604767
O31   O     O_R   0.438410 0.000000 0.473200 -0.607502
O32   O     O_R   0.938410 0.500000 0.473200 -0.607540
O33   O     O_R   0.438360 0.000000 0.403580 -0.611111
O34   O     O_R   0.465210 0.561620 0.465220 -0.602303
O35   O     O_R   0.938360 0.500000 0.403580 -0.611108
O36   O     O_R   0.534760 0.500000 0.596460 -0.611321
O37   O     O_R   0.034760 0.000000 0.596460 -0.611287
O38   O     O_R   0.465190 0.500000 0.526830 -0.616281
O39   O     O_R   0.965190 0.000000 0.526830 -0.616410
O40   O     O_R   0.534770 0.438380 0.534860 -0.618399
O41   O     O_R   0.534770 0.561620 0.534860 -0.617630
O42   O     O_R   0.034770 0.938380 0.534860 -0.617873
O43   O     O_R   0.034770 0.061620 0.534860 -0.617830
O44   O     O_3   0.578274 0.217639 0.565144 -0.582473
O45   O     O_R   0.965210 0.938380 0.465220 -0.601895
O46   O     O_3   0.578612 0.782283 0.567839 -0.582624
O47   O     O_3   0.078872 0.717637 0.569706 -0.582548
O48   O     O_3   0.078369 0.282307 0.565836 -0.582641
O49   O     O_3   0.280803 0.997554 0.360213 -0.599271
O50   O     O_3   0.780806 0.498005 0.360229 -0.599301
O51   O     O_3   0.579264 0.500806 0.798288 -0.610114
O52   O     O_3   0.079261 0.001107 0.798284 -0.610107
O53   O     O_3   0.578752 0.486479 0.360632 -0.580526
O54   O     O_3   0.078581 0.985540 0.360462 -0.580471
O55   O     O_3   0.467986 0.218898 0.540626 -0.581341
O56   O     O_R   0.965210 0.061620 0.465220 -0.602125
O57   O     O_3   0.465677 0.781182 0.537164 -0.581533
O58   O     O_3   0.964358 0.718889 0.535244 -0.581521
O59   O     O_3   0.967295 0.281174 0.539516 -0.581467
O60   O     O_3   0.716687 0.930017 0.678797 -0.593356
O61   O     O_3   0.716625 0.068820 0.676651 -0.593318
O62   O     O_3   0.216677 0.431001 0.677041 -0.593308
O63   O     O_3   0.216599 0.569795 0.678425 -0.593199
O64   O     O_3   0.782972 0.931099 0.822256 -0.593292
O65   O     O_3   0.782907 0.070144 0.820108 -0.593744
O66   O     O_3   0.282958 0.430105 0.820509 -0.593276
O67   O     O_R   0.534790 0.500000 0.473270 -0.606982
O68   O     O_3   0.282887 0.569166 0.821904 -0.593792
O69   O     O_R   0.034790 1.000000 0.473270 -0.606869
O70   O     O_R   0.465230 0.500000 0.403640 -0.602486
Zn1   Zn    Zn3+2 0.500030 0.000000 0.546480 1.019380
Zn2   Zn    Zn3+2 0.999990 0.046460 0.000050 1.011231
Zn3   Zn    Zn3+2 0.499990 0.453540 0.000050 1.011470
Zn4   Zn    Zn3+2 0.499990 0.546460 0.000050 1.011136
Zn5   Zn    Zn3+2 0.000030 0.500000 0.546480 1.019254
Zn6   Zn    Zn3+2 0.499960 0.000000 0.453520 1.037575
Zn7   Zn    Zn3+2 0.999960 0.500000 0.453520 1.037657
Zn8   Zn    Zn3+2 0.546440 0.500000 0.546540 1.003706
Zn9   Zn    Zn3+2 0.046440 0.000000 0.546540 1.004062
Zn10  Zn    Zn3+2 0.453540 0.500000 0.453560 1.032729
Zn11  Zn    Zn3+2 0.953540 0.000000 0.453560 1.032455
Zn12  Zn    Zn3+2 0.999990 0.953540 0.000050 1.011340

loop_
_geom_bond_atom_site_label_1
_geom_bond_atom_site_label_2
_ccdc_geom_bond_type
C13   I9    S    
C166  C185  S    
C173  C188  T    
C106  H122  S    
C126  C127  S    
C22   C29   S    
C80   H55   S    
C181  O50   S    
C154  C161  S    
C36   C42   S    
C40   I23   S    
C133  C151  S    
C70   O55   S    
C37   I3    S    
C15   C32   T    
C88   H78   S    
C78   H54   S    
C171  C183  S    
C82   H62   S    
C111  H3    S    
C96   O53   S    
C140  C159  S    
C53   C64   S    
C210  O11   A    
C119  O64   S    
C167  C185  S    
C84   H67   S    
C165  C170  S    
C27   C90   S    
C200  O2    A    
C2    C90   S    
C141  O63   S    
C9    C19   S    
C10   C20   S    
C49   C51   S    
C208  O7    A    
C70   C74   S    
O27   Zn6   S    
C201  O3    A    
O39   Zn11  S    
C119  H19   S    
C96   H97   S    
C4    C18   S    
C150  O26   A    
C48   C50   S    
C14   C194  S    
C103  H115  S    
C100  H109  S    
C210  O13   A    
C70   C136  S    
C86   H74   S    
C92   O51   S    
C125  H34   S    
C26   C206  S    
C183  C189  S    
C95   H95   S    
C129  C180  S    
C3    O19   A    
C181  C183  S    
C155  C162  S    
C70   C204  S    
C117  H14   S    
O21   Zn7   S    
C89   O50   S    
C105  H119  S    
C199  O70   A    
C196  O41   A    
C115  O62   S    
C42   I25   S    
C164  C168  S    
C98   H103  S    
C47   C64   T    
C110  H133  S    
C36   I2    S    
C72   C206  S    
C5    C18   S    
C118  H16   S    
C29   H45   S    
C102  H112  S    
C187  I21   S    
C107  H125  S    
C165  H91   S    
C126  O68   S    
C134  C155  S    
C109  O60   S    
C99   H107  S    
C104  H116  S    
O34   Zn10  S    
C164  C179  S    
C74   C101  S    
C21   C28   S    
C34   I26   S    
C103  O57   S    
O23   Zn10  S    
C43   C61   T    
C185  C192  S    
C8    H124  S    
O15   Zn4   S    
C78   O44   S    
C87   H75   S    
C83   H65   S    
C52   C63   S    
C57   C180  S    
C72   O58   S    
C7    C22   S    
O28   Zn6   S    
C148  O28   A    
C116  H11   S    
C100  O55   S    
C125  H32   S    
C136  I14   S    
C38   C53   S    
C39   C60   S    
C197  O45   A    
C151  C153  S    
C141  C154  S    
C2    C169  S    
C3    C176  S    
C71   C205  S    
C5    C21   S    
C139  C157  S    
C98   C99   S    
C85   H71   S    
C86   H72   S    
C169  I17   S    
C209  O9    A    
C186  I20   S    
C19   C30   S    
C41   C51   S    
C58   C150  S    
C6    C22   S    
C71   C147  S    
C58   C128  T    
C40   C60   S    
C27   O48   S    
C99   H106  S    
O7    Zn12  S    
O25   Zn5   S    
C14   C31   T    
C104  H117  S    
C123  H31   S    
C85   C86   S    
O20   Zn6   S    
C126  H37   S    
C8    C29   S    
C102  H110  S    
C59   H51   S    
C39   I22   S    
C127  H40   S    
C138  O60   S    
C16   C33   T    
C78   C80   S    
C89   H82   S    
C185  C187  S    
C13   C57   S    
C134  C151  S    
C135  C152  S    
C199  O67   A    
C91   H84   S    
C121  O65   S    
C5    H41   S    
C99   H105  S    
C131  C202  S    
C83   O47   S    
C92   C93   S    
C1    C142  S    
C112  O21   A    
C141  C159  S    
C122  H28   S    
C147  C191  S    
C7    C17   S    
C84   H66   S    
C118  H17   S    
C75   C113  S    
C89   C91   S    
C38   C48   S    
C36   C52   S    
O14   Zn3   S    
C37   C53   S    
C197  O42   A    
C170  C182  S    
C194  O39   A    
C51   C62   S    
C107  O59   S    
C114  H6    S    
C53   C60   S    
C122  H29   S    
C145  C209  S    
C206  H49   S    
C35   C76   S    
C112  O12   A    
C8    C19   S    
C168  C186  S    
O69   Zn9   S    
C92   H87   S    
C76   C124  S    
C93   H90   S    
C108  H127  S    
O1    Zn1   S    
C134  C139  S    
C164  H80   S    
C145  C163  T    
C68   C191  S    
C35   I11   S    
C166  H102  S    
C81   H60   S    
C135  C156  S    
C37   C48   S    
C4    H35   S    
C120  H21   S    
C83   C84   S    
C41   I24   S    
O56   Zn11  S    
C182  C188  S    
C193  O38   A    
C172  H69   S    
C44   C200  S    
C123  O66   S    
C17   O51   S    
C69   C198  S    
C165  C179  S    
C184  C190  S    
C200  O69   A    
C23   C74   S    
C26   O47   S    
C106  H123  S    
C23   C57   S    
C207  H50   S    
C174  C178  S    
O33   Zn6   S    
C73   C77   S    
C80   H56   S    
C16   C211  S    
C24   C147  S    
C42   C59   S    
C140  O62   S    
C1    O20   A    
O42   Zn9   S    
O36   Zn8   S    
C23   C204  S    
O12   Zn5   S    
C153  C160  S    
C82   H63   S    
C167  H113  S    
O38   Zn10  S    
C117  C118  S    
C172  C183  S    
C55   C148  S    
C106  H121  S    
C147  I15   S    
C35   C79   S    
C143  C161  T    
C116  H10   S    
C115  H8    S    
C177  O31   A    
C97   H100  S    
C198  O43   A    
C208  O8    A    
C50   C61   S    
C171  H58   S    
O9    Zn3   S    
C65   C195  S    
O2    Zn11  S    
C71   O57   S    
C96   H98   S    
C109  H131  S    
C205  H48   S    
C87   C88   S    
C155  C157  S    
C12   C193  S    
C60   H52   S    
C125  H33   S    
C108  H129  S    
C23   O44   S    
C38   I4    S    
C175  C190  T    
O43   Zn9   S    
C34   C41   S    
C56   C124  T    
C112  C143  S    
O70   Zn10  S    
C5    C11   S    
C15   C210  S    
C105  O58   S    
C120  H23   S    
O5    Zn3   S    
C110  H134  S    
C212  O17   A    
C123  C125  S    
C139  C153  S    
C172  C187  S    
C121  H26   S    
C88   H79   S    
C211  O14   A    
C80   H57   S    
C191  C205  S    
O26   Zn5   S    
C6    C17   S    
C54   C101  T    
O17   Zn2   S    
C24   I10   S    
C204  H46   S    
C156  C163  S    
C195  O40   A    
C34   C49   S    
C10   H13   S    
C2    C132  S    
C137  C152  S    
C170  H47   S    
C203  O6    A    
C25   O46   S    
C54   C146  S    
C179  C182  S    
O32   Zn5   S    
C73   C207  S    
C133  C138  S    
C25   C68   S    
C25   C205  S    
O4    Zn2   S    
C135  C140  S    
C11   C20   S    
C88   H77   S    
C78   H53   S    
C82   H61   S    
C87   H76   S    
C57   I5    S    
C142  C160  T    
C111  O61   S    
C85   O48   S    
C6    C8    S    
C135  O66   S    
C90   I8    S    
O41   Zn8   S    
C92   H86   S    
C25   C75   S    
C98   O54   S    
C116  H12   S    
O19   Zn4   S    
C177  O33   A    
C79   C202  S    
C170  C186  S    
C193  O36   A    
O16   Zn12  S    
C47   C203  S    
C137  O68   S    
C111  H4    S    
C121  C122  S    
C119  H20   S    
C138  C153  S    
C168  C182  S    
C85   H70   S    
C86   H73   S    
C73   C169  S    
O11   Zn12  S    
C95   H96   S    
C130  C191  S    
C127  H39   S    
O8    Zn2   S    
C10   C28   S    
C11   H24   S    
C137  C141  S    
C7    H43   S    
C165  C184  S    
C115  H9    S    
C180  C204  S    
C104  H118  S    
C110  H132  S    
C119  C120  S    
C24   C75   S    
C167  C172  S    
C46   C90   S    
C171  C187  S    
C9    H2    S    
C105  C106  S    
C34   C52   S    
C26   C79   S    
C127  H38   S    
O31   Zn1   S    
C102  H111  S    
C159  I19   S    
C35   C158  S    
C37   C39   S    
C107  H126  S    
C109  C110  S    
C38   C40   S    
C89   H81   S    
C11   C28   S    
C40   C50   S    
C91   H83   S    
C146  O27   A    
C68   I6    S    
C184  C186  S    
O22   Zn1   S    
C111  C114  S    
C94   C95   S    
C24   C68   S    
C117  O63   S    
C13   C74   S    
C94   O52   S    
C103  C104  S    
C2    C207  S    
C178  O35   A    
C36   C49   S    
C115  C116  S    
C144  C208  S    
C73   O59   S    
C139  O61   S    
O3    Zn12  S    
C195  O23   A    
C114  H7    S    
C72   C76   S    
C81   C82   S    
C1    O1    A    
O18   Zn3   S    
C93   H89   S    
C108  H128  S    
C152  I12   S    
C176  C192  T    
C91   H85   S    
C84   H68   S    
C81   H59   S    
O67   Zn8   S    
C72   C158  S    
C6    H42   S    
O10   Zn4   S    
C120  H22   S    
C212  O16   A    
C94   H93   S    
C149  O29   A    
C26   C76   S    
C93   H88   S    
C211  O15   A    
C209  O10   A    
C46   I13   S    
C95   H94   S    
C18   C20   S    
C9    C29   S    
C42   C51   S    
C3    O18   A    
C166  C171  S    
C97   H101  S    
C174  C189  T    
C87   O49   S    
C166  C181  S    
C79   I7    S    
O6    Zn4   S    
C21   C32   S    
C179  O49   S    
C126  H36   S    
C48   O53   S    
C67   C197  S    
C41   C59   S    
C178  O32   A    
C201  O4    A    
C55   C113  T    
C44   C62   T    
C12   C30   T    
C45   C63   T    
C158  I16   S    
C137  C156  S    
C168  H1    S    
C194  O37   A    
O40   Zn8   S    
C157  I18   S    
C164  C184  S    
C52   C59   S    
C65   C129  T    
C81   O46   S    
C122  H27   S    
O37   Zn9   S    
C173  C177  S    
C107  C108  S    
C96   C97   S    
C148  O24   A    
C100  C102  S    
C149  O25   A    
C133  O64   S    
C175  C212  S    
O30   Zn7   S    
C100  H108  S    
C77   C128  S    
C103  H114  S    
C152  C154  S    
C97   H99   S    
C49   O54   S    
C158  C202  S    
C13   C136  S    
O24   Zn1   S    
C196  O34   A    
C114  H5    S    
C4    C10   S    
C83   H64   S    
C109  H130  S    
C7    C9    S    
C22   C33   S    
C117  H15   S    
C105  H120  S    
C144  C162  T    
C133  C155  S    
O29   Zn7   S    
C156  C159  S    
C67   C131  T    
C28   H44   S    
C94   H92   S    
C27   C77   S    
C66   C196  S    
C134  O65   S    
C136  C180  S    
C46   C169  S    
O45   Zn11  S    
O35   Zn7   S    
C203  O5    A    
C71   C75   S    
C4    C21   S    
C138  C157  S    
C167  C181  S    
C18   O52   S    
C118  H18   S    
C69   C132  T    
C121  H25   S    
C46   C77   S    
C17   C19   S    
C27   C207  S    
C151  I1    S    
C39   C50   S    
C45   C201  S    
C202  C206  S    
O13   Zn2   S    
C146  O22   A    
C198  O56   A    
C43   C199  S    
C56   C149  S    
C98   H104  S    
C123  H30   S    
C150  O30   A    
C140  C154  S    
C66   C130  T    
C20   C31   S    
