data_mof_unit_18637.cif
_audit_creation_date              2012-12-10T16:45:22-0500
_audit_creation_method            fapswitch 2.2
_symmetry_space_group_name_H-M    P1
_symmetry_Int_Tables_number       1
_space_group_crystal_system       triclinic
_cell_length_a                    7.428475
_cell_length_b                    8.695593
_cell_length_c                    15.823808
_cell_angle_alpha                 94.250432
_cell_angle_beta                  74.762636
_cell_angle_gamma                 103.190011
_cell_volume                      960.079564426

loop_
_atom_site_label
_atom_site_type_symbol
_atom_type_description
_atom_site_fract_x
_atom_site_fract_y
_atom_site_fract_z
_atom_type_partial_charge
C1    C     C_R   0.545112 0.800181 0.502601 0.876132
C2    C     C_R   0.454888 0.199819 0.497399 0.876137
C3    C     C_R   0.278191 0.406234 0.081868 -0.183537
C4    C     C_R   0.721791 0.593921 0.918149 -0.183536
C5    C     C_R   0.148769 0.362874 0.030707 -0.208117
C6    C     C_R   0.851207 0.637287 0.969313 -0.208111
C7    C     C_2   0.570548 0.968066 0.503835 -0.364185
C8    C     C_2   0.429452 0.031934 0.496165 -0.364178
C9    C     C_R   0.382445 0.482708 0.666275 0.792216
C10   C     C_R   0.617555 0.517295 0.333726 0.792226
C11   C     C_R   0.309498 0.456821 0.761596 -0.163128
C12   C     C_R   0.690502 0.543213 0.238408 -0.163103
C13   C     C_R   0.070837 0.347082 0.891421 -0.180526
C14   C     C_R   0.929142 0.653038 0.108598 -0.180553
C15   C     C_R   0.123285 0.370781 0.801267 0.386972
C16   C     C_R   0.876700 0.629292 0.198747 0.386950
C17   C     C_R   0.438349 0.512343 0.813504 -0.272963
C18   C     C_R   0.561659 0.487700 0.186496 -0.272982
C19   C     C_R   0.392639 0.477073 0.902982 0.083057
C20   C     C_R   0.607355 0.523029 0.097027 0.083061
C21   C     C_R   0.203775 0.396077 0.941855 0.057820
C22   C     C_R   0.796208 0.604053 0.058161 0.057821
C23   C     C_R   0.528954 0.518650 0.954563 0.078100
C24   C     C_R   0.471036 0.481474 0.045449 0.078100
Cu1   Cu    Cu3+1 0.322120 0.483240 0.490330 0.964119
Cu2   Cu    Cu3+1 0.677880 0.516760 0.509670 0.964123
H1    H     H_    0.003327 0.303427 0.061335 0.152114
H2    H     H_    0.996640 0.696761 0.938691 0.152112
H3    H     H_    0.926991 0.283524 0.921585 0.166300
H4    H     H_    0.072980 0.716623 0.078441 0.166302
H5    H     H_    0.220313 0.379043 0.150173 0.154780
H6    H     H_    0.779665 0.621147 0.849848 0.154749
N1    N     N_2   0.945180 0.542040 0.524240 -0.208013
N2    N     N_2   0.054820 0.457960 0.475760 -0.208013
O1    O     O_R   0.384450 0.714270 0.493720 -0.579042
O2    O     O_R   0.615550 0.285730 0.506280 -0.579045
O3    O     O_R   0.684880 0.742590 0.510050 -0.590883
O4    O     O_R   0.315120 0.257410 0.489950 -0.590882
O5    O     O_R   0.265540 0.477900 0.617090 -0.582181
O6    O     O_R   0.734460 0.522100 0.382910 -0.582160
O7    O     O_R   0.565970 0.506210 0.633420 -0.569960
O8    O     O_R   0.434030 0.493790 0.366580 -0.569963
H7    H     H_    0.424817 0.417364 0.218363 0.169679
H8    H     H_    0.575212 0.582630 0.781625 0.169698
O9    O     O_3   0.009361 0.695744 0.245040 -0.723540
H9    H     H_    0.941249 0.737198 0.301353 0.333469
O10   O     O_3   0.990613 0.304314 0.754983 -0.723550
H10   H     H_    0.058717 0.262875 0.698664 0.333481
H11   H     H_    0.706538 0.039461 0.511068 0.181496
H12   H     H_    0.293462 0.960539 0.488932 0.181498
H13   H     H_    0.003721 0.614766 0.568935 0.229820
H14   H     H_    0.996278 0.385234 0.431065 0.229819

loop_
_geom_bond_atom_site_label_1
_geom_bond_atom_site_label_2
_ccdc_geom_bond_type
C16   O9    S    
Cu1   O8    S    
C19   C23   A    
C23   C24   A    
Cu2   O3    S    
C1    O3    A    
Cu1   O4    S    
C10   O8    A    
C2    O4    A    
Cu2   N1    S    
N2    H14   S    
O10   H10   S    
C15   O10   S    
Cu1   N2    S    
C14   C22   A    
C11   C15   A    
N1    N2    D    
C17   H8    S    
C13   C21   A    
C7    C8    D    
C5    H1    S    
C18   H7    S    
Cu1   O5    S    
C3    H5    S    
C9    C11   S    
Cu2   O6    S    
C3    C24   A    
C4    H6    S    
C10   C12   S    
Cu1   O1    S    
C13   H3    S    
C19   C21   A    
C14   H4    S    
C18   C20   A    
C13   C15   A    
C14   C16   A    
O9    H9    S    
N1    H13   S    
C12   C18   A    
C6    C22   A    
C8    H12   S    
C6    H2    S    
C9    O5    A    
C5    C21   A    
C1    O1    A    
C4    C6    A    
C7    H11   S    
C2    O2    A    
C4    C23   A    
Cu2   O2    S    
C11   C17   A    
C10   O6    A    
C17   C19   A    
Cu1   Cu2   S    
C1    C7    S    
C9    O7    A    
C20   C24   A    
C2    C8    S    
C12   C16   A    
Cu2   O7    S    
C20   C22   A    
C3    C5    A    
