data_mof_unit_60419.cif
_audit_creation_date              2012-10-26T21:24:01-0400
_audit_creation_method            fapswitch 2.2
_symmetry_space_group_name_H-M    P1
_symmetry_Int_Tables_number       1
_space_group_crystal_system       triclinic
_cell_length_a                    17.774597
_cell_length_b                    16.63844
_cell_length_c                    14.345178
_cell_angle_alpha                 90.00002
_cell_angle_beta                  93.737009
_cell_angle_gamma                 89.99997
_cell_volume                      4233.44476167

loop_
_atom_site_label
_atom_site_type_symbol
_atom_type_description
_atom_site_fract_x
_atom_site_fract_y
_atom_site_fract_z
_atom_type_partial_charge
C1    C     C_R   0.355294 0.500000 0.499482 0.584909
C2    C     C_R   0.460438 0.255478 0.429508 0.176877
C3    C     C_R   0.463550 0.744568 0.427191 0.178012
C4    C     C_R   0.539561 0.255478 0.570492 0.176877
C5    C     C_R   0.499999 0.873725 0.500000 0.045821
C6    C     C_R   0.499999 0.125855 0.500001 0.052083
C7    C     C_1   0.499999 0.962954 0.500001 -0.012109
C8    C     C_1   0.499999 0.036652 0.500001 -0.006681
C9    C     C_R   0.499645 0.500001 0.330935 0.528217
C10   C     C_R   0.500355 0.500001 0.669064 0.528218
C11   C     C_1   0.499659 0.500002 0.228668 -0.027290
C12   C     C_R   0.644706 0.500000 0.500518 0.584909
C13   C     C_1   0.500341 0.500002 0.771332 -0.027290
C14   C     C_1   0.499744 0.500004 0.143291 -0.024818
C15   C     C_1   0.500256 0.500004 0.856709 -0.024818
C16   C     C_1   0.499917 0.500006 0.042690 0.018811
C17   C     C_1   0.500083 0.500006 0.957310 0.018811
C18   C     C_R   0.846781 0.572819 0.500951 0.375092
C19   C     C_R   0.153228 0.427160 0.499129 0.374902
C20   C     C_R   0.153219 0.572819 0.499055 0.375092
C21   C     C_R   0.846771 0.427160 0.500865 0.374901
C22   C     C_R   0.768331 0.573132 0.501028 0.338629
C23   C     C_1   0.966288 0.499985 0.500243 0.179754
C24   C     C_R   0.231679 0.426854 0.499053 0.338248
C25   C     C_R   0.231670 0.573132 0.498978 0.338629
C26   C     C_R   0.768320 0.426854 0.500940 0.338247
C27   C     C_R   0.727943 0.499995 0.500874 -0.109958
C28   C     C_R   0.272056 0.499995 0.499126 -0.109957
C29   C     C_R   0.885884 0.499987 0.500760 -0.087980
C30   C     C_R   0.114116 0.499988 0.499240 -0.087979
C31   C     C_3   0.556448 0.877227 0.664806 -0.396889
C32   C     C_3   0.430079 0.124699 0.340339 -0.395226
C33   C     C_3   0.443552 0.877227 0.335194 -0.396888
C34   C     C_1   0.033712 0.499985 0.499757 0.179754
C35   C     C_3   0.569917 0.124699 0.659663 -0.395226
C36   C     C_3   0.586377 0.704189 0.648400 -0.289038
C37   C     C_3   0.412351 0.296630 0.352402 -0.286633
C38   C     C_3   0.413623 0.704189 0.351600 -0.289041
C39   C     C_3   0.587651 0.296629 0.647596 -0.286636
C40   C     C_R   0.530088 0.830342 0.577820 -0.000057
C41   C     C_R   0.464707 0.169454 0.425139 -0.001090
C42   C     C_R   0.469911 0.830342 0.422180 -0.000057
C43   C     C_R   0.535291 0.169454 0.574862 -0.001091
C44   C     C_R   0.536450 0.744568 0.572809 0.178012
Cu1   Cu    Cu3+1 0.500000 0.580420 0.500000 0.996209
Cu2   Cu    Cu3+1 0.500000 0.419580 0.500000 0.995295
F1    F     F_    0.884682 0.643711 0.500929 -0.519785
F2    F     F_    0.115338 0.356265 0.499230 -0.520257
F3    F     F_    0.115318 0.643710 0.499083 -0.519786
F4    F     F_    0.884662 0.356264 0.500758 -0.520256
F5    F     F_    0.732438 0.645174 0.501094 -0.562268
F6    F     F_    0.267581 0.354814 0.499078 -0.563126
F7    F     F_    0.267563 0.645174 0.498919 -0.562264
F8    F     F_    0.732418 0.354814 0.500909 -0.563122
H1    H     H_    0.568808 0.839329 0.727332 0.133089
H2    H     H_    0.632263 0.124105 0.658184 0.159147
H3    H     H_    0.553502 0.153822 0.724931 0.136236
H4    H     H_    0.550684 0.061659 0.663940 0.138243
H5    H     H_    0.637942 0.740609 0.664581 0.136839
H6    H     H_    0.555416 0.697106 0.712673 0.110715
H7    H     H_    0.609111 0.646154 0.628677 0.202364
H8    H     H_    0.360021 0.262109 0.334669 0.132044
H9    H     H_    0.390606 0.355411 0.370768 0.201796
H10   H     H_    0.444506 0.302100 0.288900 0.110797
H11   H     H_    0.362058 0.740609 0.335418 0.136834
H12   H     H_    0.607596 0.912480 0.651048 0.155196
H13   H     H_    0.444585 0.697106 0.287327 0.110717
H14   H     H_    0.390889 0.646154 0.371323 0.202361
H15   H     H_    0.639982 0.262109 0.665326 0.132046
H16   H     H_    0.609393 0.355412 0.629231 0.201793
H17   H     H_    0.555498 0.302098 0.711102 0.110794
H18   H     H_    0.511222 0.919013 0.683872 0.144316
H19   H     H_    0.446493 0.153820 0.275071 0.136235
H20   H     H_    0.449312 0.061659 0.336062 0.138242
H21   H     H_    0.367733 0.124104 0.341820 0.159150
H22   H     H_    0.431192 0.839328 0.272667 0.133089
H23   H     H_    0.392404 0.912481 0.348952 0.155196
H24   H     H_    0.488778 0.919014 0.316130 0.144317
N1    N     N_R   0.500000 0.701220 0.500000 -0.198263
N2    N     N_R   0.500000 0.298780 0.500000 -0.198393
O1    O     O_R   0.391260 0.567930 0.500000 -0.450722
O2    O     O_R   0.608740 0.432070 0.500000 -0.450987
O3    O     O_R   0.608740 0.567930 0.500000 -0.450723
O4    O     O_R   0.391260 0.432070 0.500000 -0.450987
O5    O     O_R   0.500000 0.567920 0.376050 -0.502362
O6    O     O_R   0.500000 0.432080 0.623950 -0.502725
O7    O     O_R   0.500000 0.567920 0.623950 -0.502361
O8    O     O_R   0.500000 0.432080 0.376050 -0.502723

loop_
_geom_bond_atom_site_label_1
_geom_bond_atom_site_label_2
_ccdc_geom_bond_type
C24   F6    S    
C31   H12   S    
C21   C26   A    
C3    C42   A    
C5    C42   A    
C36   H5    S    
C3    N1    A    
C18   F1    S    
C32   H21   S    
C37   H8    S    
C7    C8    T    
C20   C30   A    
Cu1   Cu2   S    
C25   C28   A    
C26   C27   A    
C35   H4    S    
C33   C42   S    
C23   C29   S    
Cu1   O7    S    
C25   F7    S    
C4    N2    A    
C9    O8    A    
C32   H20   S    
C11   C14   T    
C33   H24   S    
C20   C25   A    
C2    C41   A    
C1    O1    A    
C31   C40   S    
C9    O5    A    
Cu2   O2    S    
C3    C38   S    
C16   C17   T    
C6    C41   A    
C1    C28   S    
C32   C41   S    
C38   H11   S    
C35   C43   S    
Cu1   O3    S    
C26   F8    S    
C21   F4    S    
C37   H9    S    
Cu2   O8    S    
C10   O7    A    
C30   C34   S    
C12   C27   S    
C32   H19   S    
C5    C7    S    
C19   F2    S    
C6    C8    S    
C21   C29   A    
C12   O3    A    
C1    O4    A    
Cu1   O5    S    
C20   F3    S    
C33   H22   S    
C4    C39   S    
C23   C34   T    
C39   H15   S    
C12   O2    A    
Cu1   N1    S    
C18   C29   A    
C9    C11   S    
Cu2   O4    S    
C31   H18   S    
C38   H14   S    
C22   C27   A    
C13   C15   T    
C14   C16   S    
C36   C44   S    
C36   H7    S    
C37   H10   S    
C15   C17   S    
C10   O6    A    
C35   H2    S    
C18   C22   A    
C44   N1    A    
Cu1   O1    S    
C24   C28   A    
C36   H6    S    
C10   C13   S    
C4    C43   A    
C35   H3    S    
C19   C24   A    
Cu2   N2    S    
C2    C37   S    
C33   H23   S    
C39   H16   S    
C2    N2    A    
C40   C44   A    
C38   H13   S    
C5    C40   A    
C39   H17   S    
C6    C43   A    
C31   H1    S    
C19   C30   A    
C22   F5    S    
Cu2   O6    S    
