data_mof_unit_44123.cif
_audit_creation_date              2012-12-10T16:48:05-0500
_audit_creation_method            fapswitch 2.2
_symmetry_space_group_name_H-M    P1
_symmetry_Int_Tables_number       1
_space_group_crystal_system       triclinic
_cell_length_a                    15.847582
_cell_length_b                    8.685809
_cell_length_c                    7.450625
_cell_angle_alpha                 103.016697
_cell_angle_beta                  94.067667
_cell_angle_gamma                 92.204496
_cell_volume                      995.136755362

loop_
_atom_site_label
_atom_site_type_symbol
_atom_type_description
_atom_site_fract_x
_atom_site_fract_y
_atom_site_fract_z
_atom_type_partial_charge
C1    C     C_R   0.497478 0.199720 0.453246 0.886689
C2    C     C_R   0.502522 0.800280 0.546754 0.886689
C3    C     C_R   0.340007 0.499852 0.502485 0.817207
C4    C     C_R   0.659993 0.500148 0.497515 0.817207
C5    C     C_2   0.496269 0.031798 0.426977 -0.337807
C6    C     C_2   0.503730 0.968202 0.573023 -0.337806
C7    C     C_3   0.969902 0.366366 0.537613 0.379281
C8    C     C_3   0.030098 0.633633 0.462387 0.379280
C9    C     C_3   0.022234 0.376657 0.374038 0.370483
C10   C     C_3   0.977766 0.623343 0.625962 0.370483
C11   C     C_1   0.250604 0.500363 0.507521 -0.106163
C12   C     C_1   0.749396 0.499637 0.492479 -0.106163
C13   C     C_3   0.031923 0.489902 0.670349 -0.326908
C14   C     C_3   0.968077 0.510097 0.329651 -0.326908
C15   C     C_3   0.083427 0.500316 0.504750 -0.134169
C16   C     C_3   0.916573 0.499684 0.495250 -0.134169
C17   C     C_1   0.175108 0.500486 0.507906 0.144453
C18   C     C_1   0.824892 0.499514 0.492094 0.144453
Cu1   Cu    Cu3+1 0.509330 0.517380 0.684380 0.992764
Cu2   Cu    Cu3+1 0.490670 0.482620 0.315620 0.992764
H1    H     H_    0.941586 0.518297 0.190299 0.227659
H2    H     H_    0.058414 0.481703 0.809701 0.227659
H3    H     H_    0.489238 0.960152 0.286257 0.182370
H4    H     H_    0.510762 0.039848 0.713743 0.182370
H5    H     H_    0.434418 0.377500 0.948714 0.234167
H6    H     H_    0.565582 0.622500 0.051286 0.234167
N1    N     N_2   0.476600 0.456420 0.038510 -0.210725
N2    N     N_2   0.523400 0.543580 0.961490 -0.210725
O1    O     O_R   0.506070 0.286130 0.619780 -0.586618
O2    O     O_R   0.493930 0.713870 0.380220 -0.586618
O3    O     O_R   0.490300 0.256770 0.308360 -0.581357
O4    O     O_R   0.509700 0.743230 0.691640 -0.581357
O5    O     O_R   0.386960 0.514660 0.655680 -0.583782
O6    O     O_R   0.613040 0.485340 0.344320 -0.583782
O7    O     O_R   0.371190 0.485310 0.344260 -0.562589
O8    O     O_R   0.628810 0.514690 0.655740 -0.562589
Cl1   Cl    Cl    0.052472 0.211820 0.206197 -0.400571
Cl2   Cl    Cl    0.947528 0.788180 0.793803 -0.400571
Cl3   Cl    Cl    0.929205 0.187784 0.587291 -0.404385
Cl4   Cl    Cl    0.070795 0.812216 0.412709 -0.404386

loop_
_geom_bond_atom_site_label_1
_geom_bond_atom_site_label_2
_ccdc_geom_bond_type
C8    C14   S    
C9    C14   S    
C4    O8    A    
C15   C17   S    
Cu2   N1    S    
C4    C12   S    
H6    N2    S    
Cu1   Cu2   S    
C5    H3    S    
C3    O7    A    
C10   Cl2   S    
C6    H4    S    
C1    O1    A    
C9    C15   S    
Cu2   O6    S    
C10   C16   S    
Cu1   N2    S    
C2    C6    S    
C1    C5    S    
Cu1   O4    S    
C14   H1    S    
C16   C18   S    
C7    C16   S    
C13   H2    S    
C8    C15   S    
C14   C16   S    
Cu1   O8    S    
C13   C15   S    
C1    O3    A    
C5    C6    D    
Cu2   O3    S    
C4    O6    A    
C3    C11   S    
C2    O2    A    
C3    O5    A    
Cu1   O1    S    
C7    C13   S    
C2    O4    A    
C9    Cl1   S    
Cu1   O5    S    
C12   C18   T    
N1    N2    D    
C7    C9    S    
C7    Cl3   S    
C11   C17   T    
Cu2   O2    S    
C8    Cl4   S    
Cu2   O7    S    
C10   C13   S    
C8    C10   S    
H5    N1    S    
