data_mof_unit_32635.cif
_audit_creation_date              2013-03-05T15:45:59-0500
_audit_creation_method            fapswitch 2.2
_symmetry_space_group_name_H-M    P1
_symmetry_Int_Tables_number       1
_space_group_crystal_system       triclinic
_cell_length_a                    18.89679
_cell_length_b                    10.992558
_cell_length_c                    18.692492
_cell_angle_alpha                 90.409725
_cell_angle_beta                  90.670861
_cell_angle_gamma                 89.688291
_cell_volume                      3882.45918902

loop_
_atom_site_label
_atom_site_type_symbol
_atom_site_description
_atom_site_fract_x
_atom_site_fract_y
_atom_site_fract_z
_atom_type_partial_charge
O1    O     O_R   0.787510 0.042610 0.670410 -0.440510
O2    O     O_R   0.212490 0.042610 0.329590 -0.430480
O3    O     O_R   0.287510 0.542610 0.670410 -0.440516
O4    O     O_R   0.712490 0.542610 0.329590 -0.430473
O5    O     O_R   0.765670 0.292090 0.675090 -0.504037
O6    O     O_R   0.234330 0.292090 0.324910 -0.489336
O7    O     O_R   0.265670 0.792090 0.675090 -0.504023
O8    O     O_R   0.734330 0.792090 0.324910 -0.489343
C1    C     C_R   0.730777 0.377577 0.646502 0.544815
C2    C     C_R   0.271012 0.375888 0.354909 0.542820
C3    C     C_R   0.230777 0.877577 0.646502 0.544837
C4    C     C_R   0.771012 0.875888 0.354909 0.542843
O9    O     O_R   0.670220 0.409020 0.668560 -0.512987
O10   O     O_R   0.329780 0.409020 0.331440 -0.518800
O11   O     O_R   0.170220 0.909020 0.668560 -0.512966
O12   O     O_R   0.829780 0.909020 0.331440 -0.518788
O13   O     O_R   0.556580 0.251590 0.674980 -0.474949
O14   O     O_R   0.443420 0.251590 0.325020 -0.490630
O15   O     O_R   0.056580 0.751590 0.674980 -0.474915
O16   O     O_R   0.943420 0.751590 0.325020 -0.490680
C5    C     C_R   0.530738 0.154462 0.647038 0.548926
C6    C     C_R   0.433862 0.150674 0.360211 0.546987
C7    C     C_R   0.030738 0.654462 0.647038 0.548958
C8    C     C_R   0.933862 0.650674 0.360211 0.546962
O17   O     O_R   0.545890 0.049670 0.670030 -0.525542
O18   O     O_R   0.454110 0.049670 0.329970 -0.498041
O19   O     O_R   0.045890 0.549670 0.670030 -0.525535
O20   O     O_R   0.954110 0.549670 0.329970 -0.498073
O21   O     O_R   0.681340 0.957860 0.676500 -0.505382
O22   O     O_R   0.318660 0.957860 0.323500 -0.518410
O23   O     O_R   0.181340 0.457860 0.676500 -0.505382
O24   O     O_R   0.818660 0.457860 0.323500 -0.518400
C9    C     C_R   0.741921 0.966885 0.648327 0.587244
C10   C     C_R   0.257929 0.971193 0.353370 0.563639
C11   C     C_R   0.241921 0.466885 0.648327 0.587239
C12   C     C_R   0.757929 0.471193 0.353370 0.563680
O25   O     O_R   0.787380 0.044010 0.830940 -0.461293
O26   O     O_R   0.212620 0.044010 0.169060 -0.446491
O27   O     O_R   0.287380 0.544010 0.830940 -0.461419
O28   O     O_R   0.712620 0.544010 0.169060 -0.446449
O29   O     O_R   0.765540 0.293390 0.823910 -0.543084
O30   O     O_R   0.234460 0.293390 0.176090 -0.538229
O31   O     O_R   0.265540 0.793390 0.823910 -0.543040
O32   O     O_R   0.734460 0.793390 0.176090 -0.538262
C13   C     C_R   0.732030 0.384327 0.850325 0.558178
C14   C     C_R   0.268207 0.383829 0.149414 0.548196
C15   C     C_R   0.232027 0.884317 0.850325 0.558121
C16   C     C_R   0.768204 0.883830 0.149415 0.548272
O33   O     O_R   0.670090 0.410410 0.829090 -0.421829
O34   O     O_R   0.329910 0.410410 0.170910 -0.434279
O35   O     O_R   0.170090 0.910410 0.829090 -0.422150
O36   O     O_R   0.829910 0.910410 0.170910 -0.434112
O37   O     O_R   0.556450 0.252890 0.823790 -0.445331
O38   O     O_R   0.443550 0.252890 0.176210 -0.446108
O39   O     O_R   0.056450 0.752890 0.823790 -0.445385
O40   O     O_R   0.943550 0.752890 0.176210 -0.446050
C17   C     C_R   0.531000 0.157993 0.852787 0.553733
C18   C     C_R   0.467900 0.156194 0.146579 0.574362
C19   C     C_R   0.031010 0.657986 0.852794 0.553837
C20   C     C_R   0.967927 0.656198 0.146594 0.574154
O41   O     O_R   0.545750 0.051070 0.830560 -0.533530
O42   O     O_R   0.454250 0.051070 0.169440 -0.528819
O43   O     O_R   0.045750 0.551070 0.830560 -0.533572
O44   O     O_R   0.954250 0.551070 0.169440 -0.528884
O45   O     O_R   0.681210 0.959150 0.825320 -0.453645
O46   O     O_R   0.318790 0.959150 0.174680 -0.462961
O47   O     O_R   0.181210 0.459150 0.825320 -0.453616
O48   O     O_R   0.818790 0.459150 0.174680 -0.462821
C21   C     C_R   0.726778 0.024063 0.861411 0.560184
C22   C     C_R   0.273172 0.023815 0.138627 0.560975
C23   C     C_R   0.226779 0.524060 0.861411 0.560148
C24   C     C_R   0.773178 0.523838 0.138629 0.561050
Cr1   Cr    Cr6+3 0.771950 0.169480 0.750100 1.096360
Cr2   Cr    Cr6+3 0.228050 0.169480 0.249900 1.107605
Cr3   Cr    Cr6+3 0.271950 0.669480 0.750100 1.096307
Cr4   Cr    Cr6+3 0.728050 0.669480 0.249900 1.107653
Cr5   Cr    Cr6+3 0.614930 0.323340 0.749170 1.153178
Cr6   Cr    Cr6+3 0.385070 0.323340 0.250830 1.126856
Cr7   Cr    Cr6+3 0.114930 0.823340 0.749170 1.153094
Cr8   Cr    Cr6+3 0.885070 0.823340 0.250830 1.126933
Cr9   Cr    Cr6+3 0.616590 0.010620 0.750610 1.081811
Cr10  Cr    Cr6+3 0.383410 0.010620 0.249390 1.076956
Cr11  Cr    Cr6+3 0.116590 0.510620 0.750610 1.081799
Cr12  Cr    Cr6+3 0.883410 0.510620 0.249390 1.076986
O49   O     O_3   0.667820 0.167810 0.749960 -0.320037
O50   O     O_3   0.332180 0.167810 0.250040 -0.341090
O51   O     O_3   0.167820 0.667810 0.749960 -0.320028
O52   O     O_3   0.832180 0.667810 0.250040 -0.341119
C25   C     C_R   0.444539 0.157121 0.437539 -0.005905
C26   C     C_R   0.488152 0.161346 0.581859 0.037272
C27   C     C_R   0.944538 0.657121 0.437539 -0.005901
C28   C     C_R   0.988152 0.661346 0.581859 0.037269
C29   C     C_R   0.465504 0.264922 0.470765 -0.020855
C30   C     C_R   0.488796 0.266149 0.540883 0.081553
C31   C     C_R   0.965503 0.764923 0.470765 -0.020852
C32   C     C_R   0.988796 0.766149 0.540883 0.081549
C33   C     C_R   0.455442 0.056785 0.552709 -0.141144
C34   C     C_R   0.434850 0.054288 0.480447 -0.148015
C35   C     C_R   0.955442 0.556785 0.552709 -0.141147
C36   C     C_R   0.934850 0.554288 0.480447 -0.148018
C37   C     C_3   0.521038 0.351503 0.448961 -0.206192
C38   C     C_3   0.548171 0.350216 0.525478 -0.216269
C39   C     C_3   0.021038 0.851503 0.448962 -0.206198
C40   C     C_3   0.048170 0.850217 0.525478 -0.216268
H1    H     H_    0.558888 0.311136 0.410183 0.180456
H2    H     H_    0.543088 0.439239 0.553346 0.228766
H3    H     H_    0.058888 0.811137 0.410183 0.180430
H4    H     H_    0.043087 0.939239 0.553346 0.228767
C41   C     C_R   0.691454 0.888370 0.535908 -0.147318
C42   C     C_R   0.293288 0.854598 0.459678 -0.190688
C43   C     C_R   0.191453 0.388372 0.535908 -0.147317
C44   C     C_R   0.793288 0.354598 0.459678 -0.190681
H5    H     H_    0.640202 0.877095 0.560289 0.180566
H6    H     H_    0.329737 0.800961 0.427936 0.157352
H7    H     H_    0.140201 0.377097 0.560289 0.180565
H8    H     H_    0.829737 0.300961 0.427936 0.157360
C45   C     C_R   0.695491 0.882273 0.461922 -0.112234
C46   C     C_R   0.294233 0.842275 0.533474 -0.154111
C47   C     C_R   0.195491 0.382273 0.461922 -0.112239
C48   C     C_R   0.794233 0.342275 0.533474 -0.154111
H9    H     H_    0.648928 0.860452 0.430176 0.195047
H10   H     H_    0.327529 0.772639 0.557305 0.185941
H11   H     H_    0.148928 0.360454 0.430176 0.195041
H12   H     H_    0.827530 0.272639 0.557305 0.185942
C49   C     C_R   0.759623 0.905830 0.429237 -0.024588
C50   C     C_R   0.249792 0.915445 0.575393 -0.023790
C51   C     C_R   0.259623 0.405829 0.429237 -0.024594
C52   C     C_R   0.749792 0.415445 0.575393 -0.023783
C53   C     C_R   0.819508 0.936091 0.470595 -0.123619
C54   C     C_R   0.206694 0.002902 0.543762 -0.121748
C55   C     C_R   0.319508 0.436090 0.470596 -0.123619
C56   C     C_R   0.706694 0.502902 0.543762 -0.121748
H13   H     H_    0.869916 0.954220 0.446198 0.167564
H14   H     H_    0.172366 0.058299 0.576858 0.186866
H15   H     H_    0.369917 0.454217 0.446198 0.167564
H16   H     H_    0.672366 0.558299 0.576858 0.186867
C57   C     C_R   0.817427 0.935576 0.544006 0.189370
C58   C     C_R   0.197773 0.005768 0.470417 0.189070
C59   C     C_R   0.317427 0.435574 0.544006 0.189376
C60   C     C_R   0.697773 0.505768 0.470416 0.189062
C61   C     C_R   0.751911 0.917651 0.577217 0.002034
C62   C     C_R   0.246055 0.936423 0.427271 0.000871
C63   C     C_R   0.251911 0.417651 0.577217 0.002036
C64   C     C_R   0.746055 0.436423 0.427271 0.000876
C65   C     C_R   0.487452 0.058923 0.959006 -0.184549
C66   C     C_R   0.485456 0.054959 0.032062 -0.188382
C67   C     C_R   0.987666 0.558840 0.959076 -0.184671
C68   C     C_R   0.985707 0.554904 0.032132 -0.188458
H17   H     H_    0.482395 0.973696 0.929917 0.177054
H18   H     H_    0.475641 0.967332 0.055980 0.176906
H19   H     H_    0.982683 0.473572 0.930014 0.177087
H20   H     H_    0.975995 0.467255 0.056071 0.176939
C69   C     C_R   0.492807 0.161413 0.073190 -0.017060
C70   C     C_R   0.501159 0.168243 0.924368 -0.016505
C71   C     C_R   0.992912 0.661418 0.073229 -0.017047
C72   C     C_R   0.001229 0.668194 0.924400 -0.016454
C73   C     C_R   0.505950 0.273085 0.039676 0.179184
C74   C     C_R   0.505786 0.277751 0.964459 0.177940
C75   C     C_R   0.005946 0.773100 0.039680 0.179242
C76   C     C_R   0.005779 0.777737 0.964463 0.177825
C77   C     C_R   0.780064 0.061900 0.980995 -0.100095
C78   C     C_R   0.225528 0.070628 0.017553 -0.087982
C79   C     C_R   0.280119 0.561805 0.980970 -0.100245
C80   C     C_R   0.725517 0.570649 0.017550 -0.087886
H21   H     H_    0.816280 0.124386 0.956597 0.164354
H22   H     H_    0.193470 0.141831 0.040950 0.156909
H23   H     H_    0.316374 0.624205 0.956557 0.164399
H24   H     H_    0.693416 0.641785 0.040955 0.156919
C81   C     C_R   0.784630 0.040835 0.054390 0.224937
C82   C     C_R   0.221483 0.047854 0.943883 0.240645
C83   C     C_R   0.284696 0.540753 0.054360 0.224729
C84   C     C_R   0.721486 0.547897 0.943875 0.240899
C85   C     C_R   0.742936 0.947402 0.084421 0.006387
C86   C     C_R   0.258439 0.946508 0.915343 0.011977
C87   C     C_R   0.242956 0.447400 0.084415 0.006376
C88   C     C_R   0.758456 0.446567 0.915329 0.012027
C89   C     C_R   0.685502 0.901900 0.044662 -0.173534
C90   C     C_R   0.311442 0.890928 0.956731 -0.183784
C91   C     C_R   0.185493 0.401961 0.044673 -0.173518
C92   C     C_R   0.811505 0.391078 0.956704 -0.183689
H25   H     H_    0.649259 0.837738 0.067878 0.162282
H26   H     H_    0.344777 0.820402 0.934373 0.156408
H27   H     H_    0.149233 0.337840 0.067901 0.162247
H28   H     H_    0.844863 0.320584 0.934342 0.156443
C93   C     C_R   0.677007 0.933880 0.972922 -0.112182
C94   C     C_R   0.318395 0.919994 0.028952 -0.125995
C95   C     C_R   0.176993 0.433945 0.972934 -0.112139
C96   C     C_R   0.818484 0.420204 0.028919 -0.125824
H29   H     H_    0.631999 0.899536 0.943129 0.205783
H30   H     H_    0.358432 0.874076 0.060387 0.207322
H31   H     H_    0.131963 0.399655 0.943153 0.205690
H32   H     H_    0.858586 0.374427 0.060337 0.207295
C97   C     C_R   0.728546 0.004208 0.939137 -0.027339
C98   C     C_R   0.271441 0.002602 0.060978 -0.022388
C99   C     C_R   0.228555 0.504200 0.939133 -0.027322
C100  C     C_R   0.771469 0.502688 0.060967 -0.022454
H33   H     H_    0.452264 0.973654 0.583235 0.158155
H34   H     H_    0.417057 0.969726 0.456893 0.151474
H35   H     H_    0.952264 0.473653 0.583234 0.158156
H36   H     H_    0.917057 0.469726 0.456893 0.151473
N1    N     N_R   0.831222 0.114682 0.097539 0.100969
O53   O     O_R   0.810872 0.153841 0.159921 -0.303867
O54   O     O_R   0.888915 0.158013 0.070618 -0.309886
N2    N     N_R   0.180176 0.127158 0.898796 0.110011
O55   O     O_R   0.202477 0.155004 0.835394 -0.310682
O56   O     O_R   0.123880 0.180963 0.923180 -0.304965
N3    N     N_R   0.331366 0.614509 0.097475 0.100652
O57   O     O_R   0.311048 0.653850 0.159828 -0.303986
O58   O     O_R   0.389122 0.657571 0.070543 -0.309742
N4    N     N_R   0.680154 0.627173 0.898794 0.110065
O59   O     O_R   0.702443 0.655051 0.835392 -0.310716
O60   O     O_R   0.623817 0.680867 0.923169 -0.304795
H37   H     H_    0.996489 0.939505 0.433357 0.215729
H38   H     H_    0.100818 0.805402 0.531276 0.120821
H39   H     H_    0.496489 0.439505 0.433357 0.215728
H40   H     H_    0.600818 0.305401 0.531276 0.120825
N5    N     N_R   0.881251 0.961090 0.583839 0.076785
O61   O     O_R   0.897091 0.899721 0.641220 -0.310916
O62   O     O_R   0.922822 0.048129 0.563772 -0.364632
N6    N     N_R   0.138239 0.076081 0.442811 0.080764
O63   O     O_R   0.101008 0.036956 0.388509 -0.327408
O64   O     O_R   0.109622 0.160068 0.482612 -0.384259
N7    N     N_R   0.381251 0.461088 0.583839 0.076787
O65   O     O_R   0.397090 0.399718 0.641220 -0.310969
O66   O     O_R   0.422822 0.548127 0.563773 -0.364631
N8    N     N_R   0.638239 0.576080 0.442811 0.080759
O67   O     O_R   0.601008 0.536955 0.388509 -0.327389
O68   O     O_R   0.609622 0.660067 0.482612 -0.384262
N9    N     N_R   0.521136 0.379809 0.081789 0.107817
O69   O     O_R   0.567607 0.374835 0.133637 -0.293775
O70   O     O_R   0.488711 0.481922 0.068874 -0.211133
N10   N     N_R   0.512681 0.392273 0.929399 0.118094
O71   O     O_R   0.465934 0.426512 0.881892 -0.277569
O72   O     O_R   0.565742 0.462483 0.944871 -0.242975
N11   N     N_R   0.020916 0.879938 0.081752 0.107951
O73   O     O_R   0.067537 0.875387 0.133482 -0.293719
O74   O     O_R   0.987875 0.981604 0.069118 -0.211375
N12   N     N_R   0.012469 0.892293 0.929370 0.117764
O75   O     O_R   0.965739 0.926114 0.881738 -0.277675
O76   O     O_R   0.065181 0.963148 0.945108 -0.242499

loop_
_geom_bond_atom_site_label_1
_geom_bond_atom_site_label_2
_geom_bond_distance
_ccdc_geom_bond_type
C18   O42   1.263879 A    
Cr11  O51   1.985401 S    
O4    C12   1.240936 A    
O47   Cr11  1.930113 S    
C29   C30   1.377714 A    
O39   C19   1.277900 A    
O20   Cr12  2.046412 S    
N11   O74   1.298956 A    
N1    O53   1.301700 A    
C79   H23   1.079358 S    
C31   C32   1.377715 A    
C28   C32   1.388177 A    
C42   C46   1.386939 A    
O26   C22   1.301087 A    
C33   C34   1.401436 A    
C73   N9    1.436487 S    
O27   Cr3   2.070231 S    
O7    C3    1.263168 A    
C37   C38   1.513871 S    
C76   N12   1.430920 S    
O24   C12   1.289287 A    
C43   C47   1.387100 A    
C70   C74   1.415983 A    
C84   N4    1.437789 S    
O33   Cr5   2.046523 S    
C65   C66   1.367573 A    
O45   C21   1.300758 A    
C56   H16   1.083535 S    
C91   C95   1.395966 A    
C50   C54   1.387606 A    
C89   C93   1.395953 A    
C96   C100  1.402215 A    
O21   C9    1.270358 A    
O8    Cr4   1.940980 S    
O23   Cr11  1.942425 S    
O32   Cr4   1.950921 S    
O30   C14   1.290393 A    
C42   C62   1.399661 A    
C1    O9    1.266364 A    
O44   Cr12  2.070251 S    
C65   H17   1.083968 S    
C45   H9    1.082548 S    
C92   C96   1.390037 A    
C67   C68   1.367543 A    
C21   C97   1.470701 S    
C66   H18   1.082665 S    
C3    O11   1.266364 A    
C73   C74   1.407259 A    
O11   Cr7   2.077741 S    
C7    O19   1.262632 A    
N7    O65   1.302217 A    
C29   C37   1.483119 S    
O28   Cr4   2.057908 S    
N11   O73   1.301511 A    
O6    Cr2   1.940980 S    
C68   C71   1.402144 A    
C79   C99   1.394204 A    
C27   C36   1.404733 A    
O3    Cr3   2.055830 S    
Cr4   O52   1.967682 S    
C26   C33   1.411012 A    
C82   N2    1.437787 S    
O2    Cr2   2.072387 S    
C41   H5    1.083283 S    
C24   C100  1.468574 S    
C77   C81   1.394552 A    
O2    C10   1.240936 A    
C40   H4    1.109541 S    
O42   Cr10  2.070251 S    
Cr5   O49   1.975733 S    
O18   Cr10  2.046412 S    
C78   H22   1.080296 S    
C86   C90   1.398924 A    
C25   C29   1.391324 A    
N1    O54   1.300218 A    
C57   N5    1.437826 S    
C54   H14   1.083533 S    
C59   C63   1.406889 A    
O8    C4    1.278251 A    
O34   Cr6   2.051207 S    
Cr7   O51   1.975733 S    
N6    O63   1.300229 A    
C31   C39   1.483121 S    
Cr9   O49   1.985401 S    
C26   C30   1.388176 A    
C91   H27   1.082334 S    
C5    C26   1.454442 S    
C37   H1    1.112654 S    
C4    O12   1.255564 A    
O24   Cr12  1.952292 S    
O16   Cr8   1.931692 S    
N12   O76   1.297570 A    
C43   C63   1.408845 A    
O30   Cr2   1.950921 S    
C1    C52   1.445641 S    
O22   C10   1.289287 A    
C41   C45   1.387099 A    
N3    O57   1.301688 A    
O48   Cr12  1.928151 S    
C10   C62   1.456160 S    
C60   C64   1.436932 A    
C80   H24   1.080281 S    
C3    C50   1.445641 S    
C58   C62   1.436933 A    
C13   C88   1.473621 S    
C74   N10   1.430695 S    
C44   C48   1.386939 A    
C34   H34   1.079371 S    
C15   O35   1.263642 A    
C4    C49   1.443861 S    
C81   N1    1.437529 S    
C9    C61   1.445634 S    
N5    O61   1.302215 A    
Cr10  O50   1.976060 S    
C25   C34   1.404731 A    
C71   C75   1.406793 A    
O13   C5    1.281774 A    
C80   C100  1.398543 A    
O40   C20   1.280871 A    
C48   H12   1.083209 S    
O48   C24   1.299704 A    
O12   Cr8   2.062763 S    
C14   C87   1.478899 S    
Cr12  O52   1.976060 S    
C94   H30   1.078002 S    
O15   C7    1.281774 A    
C46   H10   1.083208 S    
O5    C1    1.263168 A    
N9    O69   1.301444 A    
C18   C69   1.457134 S    
C33   H33   1.083109 S    
O46   Cr10  1.928151 S    
O39   Cr7   1.956363 S    
O3    C11   1.264916 A    
C88   C92   1.398954 A    
C23   C99   1.470640 S    
C75   C76   1.407237 A    
C78   C82   1.399164 A    
N9    O70   1.298691 A    
C85   C89   1.400768 A    
C22   C98   1.468444 S    
C49   C53   1.403153 A    
C78   C98   1.398542 A    
C48   C52   1.401866 A    
C13   O33   1.263671 A    
C57   C61   1.406889 A    
C77   C97   1.394250 A    
C93   H29   1.079559 S    
O7    Cr3   1.953966 S    
O29   C13   1.279610 A    
Cr2   O50   1.967682 S    
O15   Cr7   1.928491 S    
C67   C72   1.396132 A    
O35   Cr7   2.046523 S    
Cr1   O49   1.967879 S    
C90   H26   1.081063 S    
C95   H31   1.079563 S    
C53   H13   1.081024 S    
C65   C70   1.396016 A    
C36   H36   1.079371 S    
N4    O60   1.299999 A    
Cr3   O51   1.967879 S    
O14   Cr6   1.931692 S    
N2    O56   1.299977 A    
O21   Cr9   1.942425 S    
N8    O67   1.300227 A    
N8    O68   1.300947 A    
C32   C40   1.489436 S    
O9    Cr5   2.077741 S    
C2    O10   1.255565 A    
O37   Cr5   1.956363 S    
O38   C18   1.280849 A    
O25   C21   1.305270 A    
O23   C11   1.270358 A    
C38   H40   1.112256 S    
C80   C84   1.399198 A    
C56   C60   1.379939 A    
C83   N3    1.437514 S    
C2    C51   1.443862 S    
C54   C58   1.379937 A    
C8    C27   1.458391 S    
C42   H6    1.083617 S    
C44   H8    1.083616 S    
C8    O20   1.300055 A    
C79   C83   1.394462 A    
O31   Cr3   1.936168 S    
C39   H3    1.112654 S    
C16   C85   1.478929 S    
C82   C86   1.416044 A    
O25   Cr1   2.070231 S    
C59   N7    1.437827 S    
C19   O43   1.274264 A    
C5    O17   1.262632 A    
N12   O75   1.301351 A    
C52   C56   1.387605 A    
O37   C17   1.277850 A    
O22   Cr10  1.952292 S    
O28   C24   1.301140 A    
C95   C99   1.405194 A    
N10   O72   1.297351 A    
C7    C28   1.454443 S    
C75   N11   1.436303 S    
C94   C98   1.402195 A    
O5    Cr1   1.953966 S    
C39   H37   1.109982 S    
C68   H20   1.082702 S    
C93   C97   1.405200 A    
O31   C15   1.279564 A    
O17   Cr9   2.047879 S    
O6    C2    1.278250 A    
C87   C91   1.400775 A    
C19   C72   1.461412 S    
N7    O66   1.301323 A    
C17   O41   1.274341 A    
C72   C76   1.415955 A    
C47   H11   1.082550 S    
N5    O62   1.301322 A    
C17   C70   1.461454 S    
C14   O34   1.263887 A    
C55   H15   1.081025 S    
O40   Cr8   1.943670 S    
C35   C36   1.401436 A    
C96   H32   1.077976 S    
N6    O64   1.300947 A    
C20   O44   1.263929 A    
O1    Cr1   2.055830 S    
C44   C64   1.399661 A    
O14   C6    1.308183 A    
C12   C64   1.456160 S    
C20   C71   1.457211 S    
C40   H38   1.112254 S    
Cr8   O52   1.984939 S    
O32   C16   1.290364 A    
O41   Cr9   2.062519 S    
O13   Cr5   1.928491 S    
Cr6   O50   1.984939 S    
O46   C22   1.299666 A    
C66   C69   1.402175 A    
C83   C87   1.420648 A    
C37   H39   1.109983 S    
C35   H35   1.083108 S    
C89   H25   1.082329 S    
C67   H19   1.083976 S    
O19   Cr11  2.047879 S    
N10   O71   1.301285 A    
C58   N6    1.453265 S    
C6    C25   1.458391 S    
O26   Cr2   2.057908 S    
C38   H2    1.109540 S    
O47   C23   1.300753 A    
O10   Cr6   2.062763 S    
C69   C73   1.406774 A    
C51   C55   1.403153 A    
C60   N8    1.453265 S    
O4    Cr4   2.072387 S    
C15   C86   1.473471 S    
C55   C59   1.373304 A    
O1    C9    1.264917 A    
O29   Cr1   1.936168 S    
C90   C94   1.389952 A    
C84   C88   1.416072 A    
C16   O36   1.263934 A    
C53   C57   1.373304 A    
N2    O55   1.301590 A    
C30   C38   1.489435 S    
C27   C31   1.391324 A    
C43   H7    1.083283 S    
N4    O59   1.301590 A    
C6    O18   1.300055 A    
O43   Cr11  2.062519 S    
C39   C40   1.513871 S    
N3    O58   1.300217 A    
C81   C85   1.420621 A    
O45   Cr9   1.930113 S    
C41   C61   1.408845 A    
C46   C50   1.401867 A    
O36   Cr8   2.051207 S    
C45   C49   1.389970 A    
O16   C8    1.308183 A    
C77   H21   1.079380 S    
C92   H28   1.081087 S    
C28   C35   1.411011 A    
C11   C63   1.445633 S    
O38   Cr6   1.943670 S    
O27   C23   1.305256 A    
C47   C51   1.389970 A    
