data_mof_unit_40290.cif
_audit_creation_date              2012-12-11T15:34:54-0500
_audit_creation_method            fapswitch 2.2
_symmetry_space_group_name_H-M    P1
_symmetry_Int_Tables_number       1
_space_group_crystal_system       triclinic
_cell_length_a                    30.618289
_cell_length_b                    7.249546
_cell_length_c                    25.862226
_cell_angle_alpha                 89.981433
_cell_angle_beta                  112.006777
_cell_angle_gamma                 89.971574
_cell_volume                      5322.33999116

loop_
_atom_site_label
_atom_site_type_symbol
_atom_type_description
_atom_site_fract_x
_atom_site_fract_y
_atom_site_fract_z
_atom_type_partial_charge
O1    O     O_R   0.295360 0.592990 0.320420 -0.528047
O2    O     O_R   0.704640 0.407010 0.679580 -0.537936
O3    O     O_R   0.204640 0.092990 0.179580 -0.528045
O4    O     O_R   0.795360 0.907010 0.820420 -0.538022
O5    O     O_R   0.294060 0.265620 0.213230 -0.556164
O6    O     O_R   0.705940 0.734380 0.786770 -0.522574
O7    O     O_R   0.205940 0.765620 0.286770 -0.556239
O8    O     O_R   0.794060 0.234380 0.713230 -0.522574
C1    C     C_R   0.304574 0.432298 0.200147 0.745300
C2    C     C_R   0.695868 0.567687 0.800462 0.742035
C3    C     C_R   0.195405 0.932350 0.299826 0.745161
C4    C     C_R   0.804152 0.067679 0.699568 0.741988
O9    O     O_R   0.300850 0.263360 0.322080 -0.542812
O10   O     O_R   0.699150 0.736640 0.677920 -0.531325
O11   O     O_R   0.199150 0.763360 0.177920 -0.542760
O12   O     O_R   0.800850 0.236640 0.822080 -0.531275
O13   O     O_R   0.211480 0.091820 0.289210 -0.519094
O14   O     O_R   0.788520 0.908180 0.710790 -0.549087
O15   O     O_R   0.288520 0.591820 0.210790 -0.519238
O16   O     O_R   0.711480 0.408180 0.789210 -0.549103
C5    C     C_R   0.313386 0.431608 0.343108 0.686330
C6    C     C_R   0.686675 0.568486 0.656815 0.684665
C7    C     C_R   0.186625 0.931718 0.156892 0.686268
C8    C     C_R   0.813311 0.068369 0.843185 0.684616
O17   O     O_3   0.220670 0.426670 0.239090 -0.379241
O18   O     O_3   0.779330 0.573330 0.760910 -0.380406
O19   O     O_3   0.279330 0.926670 0.260910 -0.379338
O20   O     O_3   0.720670 0.073330 0.739090 -0.380375
V1    V     V_3+5 0.255440 0.152290 0.252020 1.399399
V2    V     V_3+5 0.744560 0.847710 0.747980 1.402475
V3    V     V_3+5 0.244560 0.652290 0.247980 1.399234
V4    V     V_3+5 0.755440 0.347710 0.752020 1.402504
C9    C     C_R   0.850336 0.062009 0.899517 -0.035160
C10   C     C_R   0.149560 0.938754 0.100646 -0.035113
C11   C     C_R   0.649630 0.562514 0.600485 -0.035334
C12   C     C_R   0.350463 0.438320 0.399353 -0.035282
C13   C     C_R   0.872886 0.098187 0.999035 -0.153525
C14   C     C_R   0.127046 0.906284 0.001058 -0.152440
C15   C     C_R   0.626987 0.600764 0.501008 -0.153178
C16   C     C_R   0.373057 0.404088 0.498913 -0.152478
C17   C     C_R   0.838316 0.097053 0.945547 -0.163991
C18   C     C_R   0.161541 0.904424 0.054562 -0.164348
C19   C     C_R   0.661583 0.598969 0.554480 -0.163781
C20   C     C_R   0.338550 0.402611 0.445416 -0.164311
C21   C     C_R   0.897675 0.029376 0.907283 -0.213243
C22   C     C_R   0.102333 0.973862 0.092951 -0.221026
C23   C     C_R   0.602322 0.529209 0.592708 -0.213044
C24   C     C_R   0.397647 0.474354 0.407065 -0.221005
C25   C     C_R   0.933922 0.032152 0.961564 0.085869
C26   C     C_R   0.066153 0.974293 0.038623 0.085091
C27   C     C_R   0.566044 0.532746 0.538447 0.085826
C28   C     C_R   0.433846 0.474295 0.461384 0.085053
C29   C     C_R   0.920310 0.066450 0.007456 0.133020
C30   C     C_R   0.079740 0.940435 0.992677 0.134620
C31   C     C_R   0.579597 0.568379 0.492580 0.132845
C32   C     C_R   0.420317 0.439124 0.507307 0.134635
C33   C     C_R   0.982956 0.002796 0.972007 0.058220
C34   C     C_R   0.017192 0.005800 0.028171 0.055573
C35   C     C_R   0.517034 0.502867 0.527998 0.058261
C36   C     C_R   0.482774 0.506508 0.471847 0.055497
C37   C     C_R   0.001307 0.040062 0.071929 -0.189052
C38   C     C_R   0.998929 0.971393 0.928188 -0.184094
C39   C     C_R   0.498605 0.542079 0.428114 -0.188958
C40   C     C_R   0.501107 0.470368 0.571799 -0.183947
C41   C     C_R   0.953991 0.069904 0.061622 -0.191124
C42   C     C_R   0.046171 0.940375 0.938463 -0.191018
C43   C     C_R   0.545891 0.572539 0.438430 -0.190765
C44   C     C_R   0.453900 0.438637 0.561515 -0.191009
H1    H     H_    0.943621 0.096136 0.096700 0.134050
H2    H     H_    0.056566 0.915866 0.903316 0.133520
H3    H     H_    0.556217 0.599798 0.403372 0.134316
H4    H     H_    0.443544 0.413224 0.596648 0.133499
H5    H     H_    0.095193 0.997931 0.130134 0.107526
H6    H     H_    0.904827 0.004533 0.870165 0.100833
H7    H     H_    0.404744 0.499431 0.369900 0.107649
H8    H     H_    0.595213 0.503311 0.629804 0.100763
H9    H     H_    0.197780 0.876299 0.060070 0.107571
H10   H     H_    0.802008 0.123867 0.939998 0.104564
H11   H     H_    0.302351 0.373738 0.439898 0.107698
H12   H     H_    0.697859 0.626379 0.560035 0.104587
H13   H     H_    0.862513 0.125178 0.034052 0.120583
H14   H     H_    0.137389 0.879892 0.965985 0.121849
H15   H     H_    0.637314 0.628814 0.466012 0.120769
H16   H     H_    0.362761 0.376668 0.533968 0.121841
H17   H     H_    0.024649 0.045298 0.115049 0.134932
H18   H     H_    0.975757 0.970521 0.885007 0.128403
H19   H     H_    0.475239 0.547915 0.385009 0.135009
H20   H     H_    0.524288 0.469209 0.614974 0.128260
C45   C     C_R   0.089033 0.935505 0.477396 0.572755
C46   C     C_R   0.903672 0.028653 0.515082 0.590852
C47   C     C_R   0.410850 0.435315 0.022454 0.572591
C48   C     C_R   0.596473 0.525242 0.985129 0.599783
N1    N     N_R   0.070222 0.951088 0.420258 -0.543449
N2    N     N_R   0.922708 0.007945 0.571982 -0.547078
N3    N     N_R   0.429669 0.449253 0.079622 -0.544154
N4    N     N_R   0.577383 0.507178 0.928145 -0.549788
C49   C     C_R   0.022462 0.970828 0.392519 0.588831
C50   C     C_R   0.969625 0.969403 0.599095 0.587383
C51   C     C_R   0.477459 0.467093 0.107439 0.589311
C52   C     C_R   0.530362 0.470933 0.900904 0.586302
C53   C     C_R   0.992223 0.983101 0.422168 -0.063121
C54   C     C_R   0.999527 0.953521 0.569196 -0.063435
C55   C     C_R   0.507739 0.479484 0.077847 -0.056549
C56   C     C_R   0.500419 0.454782 0.930746 -0.064662
C57   C     C_R   0.010849 0.962290 0.480477 -0.070349
C58   C     C_R   0.980736 0.974419 0.510820 -0.072576
C59   C     C_R   0.489084 0.461071 0.019473 -0.069877
C60   C     C_R   0.519217 0.473863 0.989170 -0.075962
C61   C     C_R   0.059559 0.930117 0.508467 -0.130860
C62   C     C_R   0.932030 0.008614 0.482879 -0.119921
C63   C     C_R   0.440331 0.430352 0.991385 -0.131340
C64   C     C_R   0.567958 0.506848 0.017195 -0.106829
C65   C     C_R   0.943740 0.013890 0.394519 -0.223816
C66   C     C_R   0.047590 0.913753 0.596457 -0.234393
C67   C     C_R   0.556254 0.508898 0.105585 -0.236391
C68   C     C_R   0.452302 0.416410 0.903369 -0.233156
C69   C     C_R   0.913476 0.022397 0.423824 0.431110
C70   C     C_R   0.077204 0.894761 0.566677 0.428749
C71   C     C_R   0.586523 0.519759 0.076197 0.415382
C72   C     C_R   0.422657 0.396843 0.933088 0.428900
O21   O     O_2   0.136219 0.930487 0.504239 -0.510315
O22   O     O_2   0.857654 0.071756 0.490033 -0.509029
O23   O     O_2   0.363659 0.431583 0.995593 -0.510161
O24   O     O_2   0.642769 0.563167 0.010458 -0.502762
O25   O     O_2   0.004021 0.976768 0.336280 -0.536291
O26   O     O_2   0.987296 0.944911 0.654893 -0.536424
O27   O     O_2   0.495871 0.471325 0.163690 -0.535076
O28   O     O_2   0.512628 0.448647 0.845029 -0.536009
H21   H     H_    0.928897 0.032242 0.349705 0.173175
H22   H     H_    0.062493 0.893172 0.641204 0.179420
H23   H     H_    0.571132 0.525402 0.150478 0.174363
H24   H     H_    0.437387 0.397176 0.858574 0.179358
C73   C     C_R   0.901152 0.165081 0.644082 -0.183445
C74   C     C_R   0.098866 0.085296 0.350194 -0.188415
C75   C     C_R   0.599024 0.665175 0.856214 -0.183482
C76   C     C_R   0.401153 0.583878 0.149715 -0.188053
H25   H     H_    0.930793 0.257167 0.651930 0.141242
H26   H     H_    0.072648 0.193120 0.341987 0.146730
H27   H     H_    0.569428 0.757557 0.848475 0.141729
H28   H     H_    0.427487 0.691143 0.157972 0.146470
C77   C     C_R   0.871889 0.185167 0.674864 0.361807
C78   C     C_R   0.129560 0.084415 0.320809 0.365083
C79   C     C_R   0.628237 0.685360 0.825375 0.362005
C80   C     C_R   0.370457 0.583544 0.179097 0.364884
C81   C     C_R   0.834999 0.057585 0.666903 -0.127343
C82   C     C_R   0.162766 0.940373 0.330196 -0.127777
C83   C     C_R   0.665078 0.557520 0.833197 -0.127241
C84   C     C_R   0.337147 0.440064 0.169692 -0.127820
C85   C     C_R   0.827154 0.917753 0.626675 -0.299879
C86   C     C_R   0.164752 0.801685 0.368983 -0.305672
C87   C     C_R   0.672902 0.417201 0.873316 -0.300600
C88   C     C_R   0.335016 0.301508 0.130834 -0.305604
H29   H     H_    0.798778 0.819641 0.619284 0.142102
H30   H     H_    0.190114 0.690570 0.377083 0.139725
H31   H     H_    0.701238 0.318838 0.880597 0.142189
H32   H     H_    0.309573 0.190810 0.122723 0.139780
C89   C     C_R   0.855571 0.902639 0.595368 -0.119549
C90   C     C_R   0.134116 0.803822 0.397676 -0.104390
C91   C     C_R   0.644487 0.401768 0.904616 -0.118271
C92   C     C_R   0.365614 0.303228 0.102090 -0.104363
H33   H     H_    0.848934 0.793198 0.564892 0.135219
H34   H     H_    0.136024 0.693173 0.426579 0.138884
H35   H     H_    0.651079 0.291780 0.934943 0.137424
H36   H     H_    0.363584 0.192764 0.073109 0.138808
C93   C     C_R   0.892824 0.025930 0.603789 0.322396
C94   C     C_R   0.101192 0.946828 0.389245 0.314448
C95   C     C_R   0.607297 0.525428 0.896370 0.319875
C96   C     C_R   0.398681 0.445542 0.110602 0.314651
O29   O     O_3   0.866016 0.052885 0.393987 -0.550293
C97   C     C_3   0.842065 0.881798 0.379807 0.145739
H37   H     H_    0.806828 0.900371 0.382146 0.168041
H38   H     H_    0.859550 0.767346 0.409301 0.101230
C98   C     C_3   0.835140 0.826984 0.320021 -0.359818
H39   H     H_    0.818355 0.942832 0.291234 0.214235
H40   H     H_    0.869821 0.797269 0.317410 0.198484
C99   C     C_3   0.804248 0.655668 0.301397 -0.803421
H41   H     H_    0.820544 0.537457 0.329334 0.251594
H42   H     H_    0.800484 0.618708 0.258278 0.234608
H43   H     H_    0.768667 0.682520 0.301837 0.230636
O30   O     O_3   0.123627 0.844805 0.595897 -0.547235
C100  C     C_3   0.129586 0.654434 0.587703 0.158212
H44   H     H_    0.167263 0.632307 0.594569 0.163025
H45   H     H_    0.108959 0.607289 0.544266 0.098864
C101  C     C_3   0.117556 0.535714 0.629650 -0.406320
H46   H     H_    0.138910 0.581557 0.672761 0.217825
H47   H     H_    0.079686 0.551601 0.622665 0.200056
C102  C     C_3   0.127290 0.332117 0.623465 -0.722375
H48   H     H_    0.106021 0.283990 0.580610 0.234595
H49   H     H_    0.117604 0.249138 0.653659 0.240608
H50   H     H_    0.165245 0.310115 0.631871 0.240587
O31   O     O_3   0.633830 0.554756 0.105438 -0.544776
C103  C     C_3   0.656086 0.389883 0.131250 0.124979
H51   H     H_    0.651644 0.280159 0.099443 0.128882
H52   H     H_    0.641327 0.340765 0.162181 0.105540
C104  C     C_3   0.708671 0.426605 0.161852 -0.269917
H53   H     H_    0.724108 0.473977 0.131493 0.220664
H54   H     H_    0.713503 0.537545 0.193173 0.197886
C105  C     C_3   0.734639 0.253695 0.191424 -0.841637
H55   H     H_    0.720475 0.206286 0.222915 0.239147
H56   H     H_    0.772685 0.284911 0.213032 0.236063
H57   H     H_    0.730797 0.141491 0.160785 0.242342
O32   O     O_3   0.376200 0.347873 0.903741 -0.547324
C106  C     C_3   0.370079 0.157380 0.911593 0.158083
H58   H     H_    0.332357 0.135644 0.904528 0.162963
H59   H     H_    0.390561 0.109299 0.954985 0.099212
C107  C     C_3   0.382191 0.039305 0.869584 -0.406288
H60   H     H_    0.360942 0.085946 0.826506 0.217741
H61   H     H_    0.420092 0.054928 0.876719 0.200094
C108  C     C_3   0.372355 0.835627 0.875465 -0.722734
H62   H     H_    0.393531 0.786666 0.918277 0.234951
H63   H     H_    0.382088 0.753123 0.845223 0.240484
H64   H     H_    0.334373 0.813910 0.866917 0.240397
O33   O     O_3   0.883483 0.311469 0.718098 -0.559583
C109  C     C_3   0.876861 0.494155 0.697063 0.120303
H65   H     H_    0.840057 0.538280 0.688747 0.136722
H66   H     H_    0.883095 0.510753 0.657511 0.065424
C110  C     C_3   0.911177 0.623124 0.740091 -0.298354
H67   H     H_    0.947736 0.571860 0.750712 0.206061
H68   H     H_    0.908901 0.763139 0.721769 0.172587
C111  C     C_3   0.900735 0.637040 0.793241 -0.660979
H69   H     H_    0.865965 0.703181 0.784124 0.226030
H70   H     H_    0.928096 0.722922 0.824247 0.186410
H71   H     H_    0.901004 0.498409 0.811657 0.249999
O34   O     O_3   0.122515 0.205569 0.276903 -0.561174
C112  C     C_3   0.128009 0.391528 0.295048 0.123191
H72   H     H_    0.163247 0.440477 0.298156 0.152637
H73   H     H_    0.126164 0.414102 0.336813 0.050651
C113  C     C_3   0.089833 0.510320 0.252765 -0.312310
H74   H     H_    0.054577 0.455567 0.247760 0.201550
H75   H     H_    0.092372 0.653646 0.268782 0.168278
C114  C     C_3   0.094482 0.514586 0.195986 -0.657625
H76   H     H_    0.129104 0.572967 0.200038 0.229538
H77   H     H_    0.066313 0.602960 0.166891 0.196092
H78   H     H_    0.090943 0.373548 0.178094 0.241720
O35   O     O_3   0.616593 0.811889 0.782161 -0.559478
C115  C     C_3   0.623208 0.994463 0.803213 0.120228
H79   H     H_    0.660009 0.038447 0.811521 0.136562
H80   H     H_    0.616976 0.010931 0.842766 0.064940
C116  C     C_3   0.588881 0.123647 0.760189 -0.298168
H81   H     H_    0.552325 0.072565 0.749593 0.205971
H82   H     H_    0.591161 0.263633 0.778494 0.172624
C117  C     C_3   0.599300 0.137544 0.707022 -0.660766
H83   H     H_    0.634058 0.203584 0.716105 0.225984
H84   H     H_    0.571918 0.223494 0.676010 0.186183
H85   H     H_    0.599043 0.998924 0.688630 0.250057
O36   O     O_3   0.377609 0.704604 0.223015 -0.561228
C118  C     C_3   0.372042 0.890571 0.204815 0.122885
H86   H     H_    0.336742 0.939398 0.201566 0.152219
H87   H     H_    0.374011 0.913199 0.163109 0.051084
C119  C     C_3   0.410089 0.009451 0.247146 -0.311695
H88   H     H_    0.445402 0.954918 0.252246 0.201644
H89   H     H_    0.407482 0.152823 0.231111 0.168356
C120  C     C_3   0.405334 0.013449 0.303868 -0.657463
H90   H     H_    0.370663 0.071684 0.299729 0.229795
H91   H     H_    0.433426 0.101838 0.333001 0.196164
H92   H     H_    0.408920 0.872357 0.321769 0.241447

loop_
_geom_bond_atom_site_label_1
_geom_bond_atom_site_label_2
_ccdc_geom_bond_type
O17   V3    S    
C51   C55   A    
C106  H58   S    
C88   C92   A    
C73   H25   S    
C80   O36   S    
O19   V1    S    
C53   C65   A    
O29   C97   S    
C78   C82   A    
O3    C7    A    
C116  H81   S    
C10   C18   A    
O1    V3    S    
C76   H28   S    
O4    V2    S    
C11   C23   A    
O34   C112  S    
C112  C113  S    
C111  H70   S    
C25   C33   A    
C33   C38   A    
C5    C12   S    
C67   H23   S    
O33   C109  S    
C115  H79   S    
C110  C111  S    
O1    C5    A    
C6    C11   S    
C38   H18   S    
C35   C40   A    
C26   C30   A    
C65   H21   S    
N4    C52   A    
C36   C39   A    
C92   H36   S    
O9    V1    S    
C71   O31   S    
C23   H8    S    
C14   C18   A    
C69   O29   S    
C48   O24   S    
C58   C62   A    
C120  H90   S    
O4    C8    A    
N3    C51   A    
C118  C119  S    
C43   H3    S    
C97   H37   S    
N2    C50   A    
C119  H89   S    
C45   C61   A    
C70   O30   S    
C48   N4    A    
C108  H64   S    
O13   V1    S    
C101  H46   S    
C62   C69   A    
O2    V4    S    
C89   H33   S    
C79   O35   S    
O3    V1    S    
C16   H16   S    
C113  H74   S    
C102  H50   S    
C85   H29   S    
C28   C36   A    
C108  H63   S    
C82   C86   A    
C1    O15   A    
C99   H43   S    
C15   C31   A    
C88   H32   S    
C2    O16   A    
C16   C32   A    
C68   H24   S    
O2    C6    A    
C117  H84   S    
O35   C115  S    
C74   C94   A    
C54   C58   A    
C105  H55   S    
C10   C22   A    
C91   H35   S    
C87   H31   S    
C107  H60   S    
C23   C27   A    
C11   C19   A    
C27   C31   A    
C77   C81   A    
C2    C83   S    
C104  C105  S    
C13   C29   A    
C34   C37   A    
O11   C7    A    
O15   V3    S    
C35   C36   A    
O12   C8    A    
C47   O23   S    
N3    C96   S    
C114  H78   S    
C45   N1    A    
C46   O22   S    
C24   H7    S    
C13   H13   S    
C100  C101  S    
O10   V2    S    
C120  H92   S    
N2    C93   S    
C113  H75   S    
C111  H69   S    
C22   C26   A    
C92   C96   A    
C61   C70   A    
C46   N2    A    
O5    V1    S    
C118  H87   S    
C53   C57   A    
C106  C107  S    
C39   C43   A    
C117  H85   S    
O7    V3    S    
O32   C106  S    
C38   C42   A    
O31   C103  S    
O8    V4    S    
C103  C104  S    
C112  H72   S    
C44   H4    S    
C116  H82   S    
C100  H45   S    
C89   C93   A    
C17   H10   S    
C120  H91   S    
O18   V4    S    
C48   C64   A    
C15   C19   A    
C76   C96   A    
C52   C56   A    
C119  H88   S    
C50   C54   A    
C39   H19   S    
C68   C72   A    
C21   H6    S    
C26   C34   A    
C4    C81   S    
C100  H44   S    
C55   C67   A    
O5    C1    A    
C9    C21   A    
C54   C66   A    
C73   C93   A    
C74   C78   A    
C106  H59   S    
O7    C3    A    
C21   C25   A    
C14   C30   A    
C16   C20   A    
O8    C4    A    
C7    C10   S    
C47   C63   A    
C105  H57   S    
C108  H62   S    
N4    C95   S    
O9    C5    A    
C114  H77   S    
C97   C98   S    
C66   C70   A    
C98   H40   S    
C37   H17   S    
C51   O27   S    
C50   O26   S    
C49   O25   S    
C99   H41   S    
O6    V2    S    
N1    C94   S    
C79   C83   A    
C67   C71   A    
C98   H39   S    
O14   V2    S    
C65   C69   A    
C12   C20   A    
C27   C35   A    
C46   C62   A    
C59   C60   A    
C77   O33   S    
C40   C44   A    
N1    C49   A    
C56   C60   A    
C29   C41   A    
O30   C100  S    
C90   C94   A    
C19   H12   S    
C55   C59   A    
O16   V4    S    
C98   C99   S    
C78   O34   S    
C57   C61   A    
O36   C118  S    
C3    O13   A    
C75   C95   A    
C86   C90   A    
C117  H83   S    
C52   O28   S    
C59   C63   A    
C20   H11   S    
C84   C88   A    
C109  C110  S    
C74   H26   S    
C64   C71   A    
C31   C43   A    
C118  H86   S    
C115  C116  S    
C3    C82   S    
O11   V3    S    
C30   C42   A    
O12   V4    S    
C57   C58   A    
C66   H22   S    
C1    C84   S    
C73   C77   A    
C8    C9    S    
C101  H47   S    
C101  C102  S    
C75   H27   S    
C9    C17   A    
C91   C95   A    
O10   C6    A    
C56   C68   A    
O20   V2    S    
C110  H67   S    
C15   H15   S    
C102  H48   S    
C76   C80   A    
C32   C44   A    
C103  H51   S    
C107  C108  S    
C33   C34   A    
C42   H2    S    
C22   H5    S    
C45   O21   S    
C119  C120  S    
C41   H1    S    
C83   C87   A    
C109  H65   S    
C99   H42   S    
C75   C79   A    
C112  H73   S    
C115  H80   S    
C12   C24   A    
C116  C117  S    
C109  H66   S    
C111  H71   S    
C37   C41   A    
C13   C17   A    
C110  H68   S    
C49   C53   A    
C102  H49   S    
C25   C29   A    
O6    C2    A    
C90   H34   S    
C47   N3    A    
C104  H53   S    
C60   C64   A    
C24   C28   A    
C18   H9    S    
C86   H30   S    
C4    O14   A    
C114  H76   S    
C81   C85   A    
C63   C72   A    
C105  H56   S    
C97   H38   S    
C72   O32   S    
C107  H61   S    
C85   C89   A    
C40   H20   S    
C113  C114  S    
C14   H14   S    
C28   C32   A    
C87   C91   A    
C104  H54   S    
C80   C84   A    
C103  H52   S    
