data_mof_unit_66354.cif
_audit_creation_date              2012-10-26T21:09:51-0400
_audit_creation_method            fapswitch 2.2
_symmetry_space_group_name_H-M    P1
_symmetry_Int_Tables_number       1
_space_group_crystal_system       triclinic
_cell_length_a                    16.007816
_cell_length_b                    14.756691
_cell_length_c                    19.378257
_cell_angle_alpha                 89.999988
_cell_angle_beta                  90.002542
_cell_angle_gamma                 90.0
_cell_volume                      4577.57826133

loop_
_atom_site_label
_atom_site_type_symbol
_atom_type_description
_atom_site_fract_x
_atom_site_fract_y
_atom_site_fract_z
_atom_type_partial_charge
C1    C     C_R   0.340882 0.500000 0.500010 0.555209
C2    C     C_R   0.573609 0.047911 0.513410 -0.098386
C3    C     C_R   0.500000 0.902870 0.500000 -0.000507
C4    C     C_R   0.500000 0.097130 0.500000 -0.000507
C5    C     C_1   0.500000 0.802739 0.500000 0.142024
C6    C     C_1   0.500000 0.197261 0.500000 0.142024
C7    C     C_R   0.499985 0.500000 0.367079 0.544820
C8    C     C_R   0.500014 0.500000 0.632920 0.544821
C9    C     C_R   0.499979 0.582102 0.254644 -0.121152
C10   C     C_R   0.500020 0.417898 0.745356 -0.121152
C11   C     C_R   0.500020 0.582101 0.745356 -0.121150
C12   C     C_R   0.659118 0.500000 0.499990 0.555208
C13   C     C_R   0.499979 0.417898 0.254644 -0.121150
C14   C     C_R   0.499980 0.582115 0.182744 -0.108878
C15   C     C_R   0.500019 0.417885 0.817256 -0.108878
C16   C     C_R   0.500019 0.582115 0.817256 -0.108877
C17   C     C_R   0.499980 0.417885 0.182744 -0.108877
C18   C     C_R   0.499983 0.500000 0.146062 0.034444
C19   C     C_R   0.500017 0.500000 0.853938 0.034444
C20   C     C_R   0.499980 0.500000 0.291205 0.014400
C21   C     C_R   0.500020 0.500000 0.708795 0.014400
C22   C     C_R   0.500010 0.500000 0.930000 0.349640
C23   C     C_1   0.823079 0.500000 0.500000 0.025294
C24   C     C_R   0.499990 0.500000 0.070000 0.349640
C25   C     C_R   0.956084 0.582943 0.500015 0.101904
C26   C     C_R   0.043916 0.417056 0.499984 0.101904
C27   C     C_R   0.043916 0.582943 0.500008 0.101904
C28   C     C_R   0.956084 0.417056 0.499992 0.101904
C29   C     C_R   0.912729 0.500000 0.500004 -0.003568
C30   C     C_R   0.087271 0.500000 0.499996 -0.003568
C31   C     C_1   0.176921 0.500000 0.500000 0.025294
C32   C     C_1   0.251909 0.500000 0.500006 0.030337
C33   C     C_1   0.748091 0.500000 0.499994 0.030337
C34   C     C_R   0.573609 0.952089 0.513410 -0.098386
C35   C     C_R   0.426391 0.047911 0.486590 -0.098386
C36   C     C_R   0.426391 0.952089 0.486590 -0.098386
Cu1   Cu    Cu3+1 0.500000 0.589220 0.500000 1.023463
Cu2   Cu    Cu3+1 0.500000 0.410780 0.500000 1.023463
H1    H     H_    0.499979 0.646440 0.281537 0.143521
H2    H     H_    0.368669 0.916369 0.476071 0.137537
H3    H     H_    0.368669 0.083631 0.476071 0.137538
H4    H     H_    0.631331 0.916369 0.523929 0.137538
H5    H     H_    0.500020 0.353560 0.718463 0.143521
H6    H     H_    0.500020 0.646440 0.718463 0.143523
H7    H     H_    0.499979 0.353560 0.281537 0.143523
H8    H     H_    0.499981 0.646550 0.156017 0.147064
H9    H     H_    0.500019 0.353450 0.843983 0.147064
H10   H     H_    0.500019 0.646550 0.843983 0.147065
H11   H     H_    0.499981 0.353450 0.156017 0.147065
H12   H     H_    0.631331 0.083631 0.523929 0.137537
I1    I     I_    0.112458 0.707580 0.500008 -0.264587
I2    I     I_    0.887542 0.292419 0.499991 -0.264587
I3    I     I_    0.887542 0.707580 0.500051 -0.264589
I4    I     I_    0.112458 0.292419 0.499949 -0.264588
N1    N     N_R   0.499995 0.420870 0.034312 -0.220167
N2    N     N_R   0.500005 0.579130 0.965688 -0.220167
N3    N     N_R   0.500005 0.420870 0.965688 -0.220167
N4    N     N_R   0.499995 0.579130 0.034312 -0.220167
N5    N     N_1   0.500000 0.276710 0.500000 -0.185486
N6    N     N_1   0.500000 0.723290 0.500000 -0.185486
O1    O     O_R   0.380310 0.575320 0.500010 -0.483194
O2    O     O_R   0.619690 0.424680 0.499990 -0.483193
O3    O     O_R   0.619690 0.575320 0.499990 -0.483193
O4    O     O_R   0.380310 0.424680 0.500010 -0.483193
O5    O     O_R   0.499990 0.575370 0.400140 -0.498702
O6    O     O_R   0.500010 0.424630 0.599860 -0.498702
O7    O     O_R   0.500010 0.575370 0.599860 -0.498700
O8    O     O_R   0.499990 0.424630 0.400140 -0.498700

loop_
_geom_bond_atom_site_label_1
_geom_bond_atom_site_label_2
_ccdc_geom_bond_type
Cu1   O1    S    
C9    C14   A    
C8    O6    A    
Cu1   Cu2   S    
C15   H9    S    
C25   C27   A    
C12   O2    A    
C11   C16   A    
C14   C18   A    
C9    C20   A    
C2    C4    A    
C35   C36   A    
C3    C34   A    
C13   C17   A    
C2    C34   A    
C22   N3    A    
C17   C18   A    
C10   H5    S    
C4    C35   A    
C24   N1    A    
C11   H6    S    
C14   H8    S    
C27   C30   A    
C13   H7    S    
C27   I1    S    
C28   I2    S    
C16   H10   S    
C3    C36   A    
C12   C33   S    
C16   C19   A    
C18   C24   S    
C26   I4    S    
C4    C6    S    
C28   C29   A    
Cu1   O3    S    
C25   I3    S    
C8    C21   S    
Cu2   O4    S    
C10   C15   A    
N1    N3    A    
C10   C21   A    
C25   C29   A    
C30   C31   S    
C35   H3    S    
Cu1   N6    S    
C7    O5    A    
Cu2   O8    S    
C17   H11   S    
Cu2   N5    S    
C1    O4    A    
C23   C29   S    
C9    H1    S    
C19   C22   S    
C8    O7    A    
C24   N4    A    
C7    C20   S    
Cu1   O7    S    
C12   O3    A    
Cu2   O6    S    
C36   H2    S    
C22   N2    A    
C2    H12   S    
C5    N6    T    
C3    C5    S    
C7    O8    A    
C15   C19   A    
Cu2   O2    S    
C26   C28   A    
C6    N5    T    
C13   C20   A    
C11   C21   A    
C1    C32   S    
C31   C32   T    
Cu1   O5    S    
N2    N4    A    
C34   H4    S    
C23   C33   T    
C26   C30   A    
C1    O1    A    
