data_mof_unit_7898.cif
_audit_creation_date              2013-03-05T16:32:58-0500
_audit_creation_method            fapswitch 2.2
_symmetry_space_group_name_H-M    P1
_symmetry_Int_Tables_number       1
_space_group_crystal_system       triclinic
_cell_length_a                    15.896415
_cell_length_b                    15.900583
_cell_length_c                    51.46812
_cell_angle_alpha                 90.007138
_cell_angle_beta                  90.004139
_cell_angle_gamma                 90.083502
_cell_volume                      13009.184693

loop_
_atom_site_label
_atom_site_type_symbol
_atom_site_description
_atom_site_fract_x
_atom_site_fract_y
_atom_site_fract_z
_atom_type_partial_charge
Zn1   Zn    Zn3+2 0.900880 0.500000 0.727850 0.967673
Zn2   Zn    Zn3+2 0.099120 0.500000 0.272150 0.964709
Zn3   Zn    Zn3+2 0.500000 0.900880 0.727850 0.984625
Zn4   Zn    Zn3+2 0.500000 0.099120 0.272150 0.969490
Zn5   Zn    Zn3+2 0.099120 0.500000 0.727850 0.972498
Zn6   Zn    Zn3+2 0.900880 0.500000 0.272150 0.981440
Zn7   Zn    Zn3+2 0.500000 0.099120 0.727850 0.948570
Zn8   Zn    Zn3+2 0.500000 0.900880 0.272150 0.986242
Zn9   Zn    Zn3+2 0.400880 0.000000 0.227850 0.963111
Zn10  Zn    Zn3+2 0.599120 0.000000 0.772150 0.964854
Zn11  Zn    Zn3+2 1.000000 0.400880 0.227850 0.980765
Zn12  Zn    Zn3+2 1.000000 0.599120 0.772150 0.965199
Zn13  Zn    Zn3+2 0.599120 0.000000 0.227850 0.979984
Zn14  Zn    Zn3+2 0.400880 0.000000 0.772150 0.985333
Zn15  Zn    Zn3+2 1.000000 0.599120 0.227850 0.957337
Zn16  Zn    Zn3+2 1.000000 0.400880 0.772150 0.989498
C1    C     C_R   0.038179 0.563410 0.637200 0.291887
C2    C     C_R   0.076245 0.478224 0.362976 0.318146
C3    C     C_R   0.446577 0.050757 0.636739 0.309806
C4    C     C_R   0.511741 0.073031 0.363937 0.344837
C5    C     C_R   0.965427 0.427938 0.638096 0.285462
C6    C     C_R   0.924094 0.505499 0.363455 0.330771
C7    C     C_R   0.563234 0.950990 0.638049 0.320013
C8    C     C_R   0.460290 0.928188 0.362279 0.321418
C9    C     C_R   0.525070 0.066683 0.136710 0.294595
C10   C     C_R   0.571036 0.017316 0.863988 0.306255
C11   C     C_R   0.978955 0.568603 0.135663 0.315337
C12   C     C_R   0.033247 0.560216 0.864381 0.344596
C13   C     C_R   0.474181 0.921874 0.138523 0.291535
C14   C     C_R   0.426860 0.964166 0.862531 0.319362
C15   C     C_R   0.035080 0.426091 0.137619 0.328993
C16   C     C_R   0.935164 0.442415 0.860901 0.323438
C17   C     C_R   0.040220 0.560774 0.609876 0.396462
C18   C     C_R   0.077148 0.480772 0.390509 0.365956
C19   C     C_R   0.447656 0.048023 0.609226 0.361681
C20   C     C_R   0.507426 0.070431 0.391500 0.352412
C21   C     C_R   0.966466 0.425140 0.610739 0.394719
C22   C     C_R   0.923967 0.499855 0.390864 0.365584
C23   C     C_R   0.558887 0.942032 0.610980 0.407571
C24   C     C_R   0.466693 0.922480 0.389361 0.379941
C25   C     C_R   0.523670 0.064050 0.109362 0.392292
C26   C     C_R   0.568488 0.015921 0.891326 0.387978
C27   C     C_R   0.974488 0.562813 0.108314 0.369262
C28   C     C_R   0.025909 0.556883 0.891903 0.353933
C29   C     C_R   0.474393 0.917960 0.111211 0.397215
C30   C     C_R   0.425192 0.960614 0.889804 0.391522
C31   C     C_R   0.022937 0.417527 0.110743 0.408160
C32   C     C_R   0.936188 0.432483 0.887952 0.403665
O1    O     O_3   1.000000 0.500000 0.750000 -0.484015
O2    O     O_3   1.000000 0.500000 0.250000 -0.486316
O3    O     O_3   0.500000 0.000000 0.750000 -0.486034
O4    O     O_3   0.500000 0.000000 0.250000 -0.486058
O5    O     O_R   0.000000 0.430630 0.807650 -0.615842
O6    O     O_R   1.000000 0.569370 0.192350 -0.630915
O7    O     O_R   0.569370 0.000000 0.807650 -0.613433
O8    O     O_R   0.430630 0.000000 0.192350 -0.654579
O9    O     O_R   1.000000 0.569370 0.807650 -0.643139
O10   O     O_R   0.000000 0.430630 0.192350 -0.612976
O11   O     O_R   0.430630 0.000000 0.807650 -0.605344
O12   O     O_R   0.569370 0.000000 0.192350 -0.649197
O13   O     O_R   0.500000 0.930630 0.307650 -0.613775
O14   O     O_R   0.500000 0.069370 0.692350 -0.654071
O15   O     O_R   0.069370 0.500000 0.307650 -0.623805
O16   O     O_R   0.930630 0.500000 0.692350 -0.652367
O17   O     O_R   0.500000 0.069370 0.307650 -0.621932
O18   O     O_R   0.500000 0.930630 0.692350 -0.617120
O19   O     O_R   0.930630 0.500000 0.307650 -0.616939
O20   O     O_R   0.069370 0.500000 0.692350 -0.653178
C33   C     C_R   0.003513 0.491937 0.596542 -0.040582
C34   C     C_R   0.000854 0.490130 0.404396 -0.027919
C35   C     C_R   0.503094 0.992122 0.596362 -0.044733
C36   C     C_R   0.488418 0.993539 0.404179 -0.043393
C37   C     C_R   0.498124 0.989344 0.096505 -0.038994
C38   C     C_R   0.495535 0.987485 0.904330 -0.045482
C39   C     C_R   0.995341 0.486346 0.095794 -0.052149
C40   C     C_R   0.980546 0.489887 0.903628 -0.045266
O21   O     O_R   0.902350 0.666510 0.764820 -0.647284
O22   O     O_R   0.097650 0.333490 0.235180 -0.642136
O23   O     O_R   0.333490 0.902350 0.764820 -0.646560
O24   O     O_R   0.666510 0.097650 0.235180 -0.644762
O25   O     O_R   0.097650 0.333490 0.764820 -0.632921
O26   O     O_R   0.902350 0.666510 0.235180 -0.646427
O27   O     O_R   0.666510 0.097650 0.764820 -0.648254
O28   O     O_R   0.333490 0.902350 0.235180 -0.651160
O29   O     O_R   0.902350 0.333490 0.235180 -0.633534
O30   O     O_R   0.097650 0.666510 0.764820 -0.635684
O31   O     O_R   0.333490 0.097650 0.235180 -0.635475
O32   O     O_R   0.666510 0.902350 0.764820 -0.637883
O33   O     O_R   0.097650 0.666510 0.235180 -0.648593
O34   O     O_R   0.902350 0.333490 0.764820 -0.636526
O35   O     O_R   0.666510 0.902350 0.235180 -0.636431
O36   O     O_R   0.333490 0.097650 0.764820 -0.627567
O37   O     O_R   0.402350 0.166510 0.264820 -0.651936
O38   O     O_R   0.597650 0.833490 0.735180 -0.634128
O39   O     O_R   0.833490 0.402350 0.264820 -0.648577
O40   O     O_R   0.166510 0.597650 0.735180 -0.645524
O41   O     O_R   0.597650 0.833490 0.264820 -0.632553
O42   O     O_R   0.402350 0.166510 0.735180 -0.659713
O43   O     O_R   0.166510 0.597650 0.264820 -0.651798
O44   O     O_R   0.833490 0.402350 0.735180 -0.645953
O45   O     O_R   0.402350 0.833490 0.735180 -0.639759
O46   O     O_R   0.597650 0.166510 0.264820 -0.631775
O47   O     O_R   0.833490 0.597650 0.735180 -0.637466
O48   O     O_R   0.166510 0.402350 0.264820 -0.632941
O49   O     O_R   0.597650 0.166510 0.735180 -0.645656
O50   O     O_R   0.402350 0.833490 0.264820 -0.638726
O51   O     O_R   0.166510 0.402350 0.735180 -0.642474
O52   O     O_R   0.833490 0.597650 0.264820 -0.630404
O53   O     O_2   0.398986 0.096951 0.931662 -0.552423
O54   O     O_2   0.612511 0.898188 0.069091 -0.545345
O55   O     O_2   0.838004 0.514375 0.932257 -0.575309
O56   O     O_2   0.137756 0.474303 0.066881 -0.581059
O57   O     O_2   0.586258 0.871811 0.931278 -0.557742
O58   O     O_2   0.377211 0.072836 0.069544 -0.553904
O59   O     O_2   0.121177 0.439346 0.929333 -0.554898
O60   O     O_2   0.844758 0.481903 0.070199 -0.553645
O61   O     O_2   0.955362 0.629633 0.432149 -0.537839
O62   O     O_2   0.098676 0.379687 0.569364 -0.549903
O63   O     O_2   0.347836 0.961199 0.433175 -0.564772
O64   O     O_2   0.635250 0.049101 0.567913 -0.585470
O65   O     O_2   0.048264 0.350807 0.432226 -0.535877
O66   O     O_2   0.906794 0.601372 0.569150 -0.549761
O67   O     O_2   0.637428 0.010044 0.430258 -0.541722
O68   O     O_2   0.371370 0.921215 0.570421 -0.558650
C41   C     C_R   0.999502 0.500171 0.820240 0.936005
C42   C     C_R   0.001137 0.499979 0.179668 0.906310
C43   C     C_R   0.499960 0.998826 0.820320 0.878307
C44   C     C_R   0.499969 0.999643 0.179875 0.979534
C45   C     C_R   0.498668 0.000169 0.320317 0.909266
C46   C     C_R   0.499461 0.000129 0.679829 0.945719
C47   C     C_R   0.000027 0.498802 0.320371 0.929524
C48   C     C_R   0.000055 0.499687 0.679879 0.981635
C49   C     C_R   0.839663 0.660318 0.750003 0.851412
C50   C     C_R   0.160352 0.339697 0.249992 0.846186
C51   C     C_R   0.339712 0.839663 0.750015 0.847899
C52   C     C_R   0.660290 0.160328 0.249990 0.853437
C53   C     C_R   0.160309 0.339652 0.749983 0.861907
C54   C     C_R   0.839669 0.660319 0.249998 0.866389
C55   C     C_R   0.660300 0.160324 0.750013 0.843842
C56   C     C_R   0.339630 0.839755 0.250026 0.826749
C57   C     C_R   0.839692 0.339685 0.250005 0.849276
C58   C     C_R   0.160338 0.660284 0.750012 0.853000
C59   C     C_R   0.339662 0.160318 0.250006 0.851017
C60   C     C_R   0.660351 0.839698 0.749991 0.845438
C61   C     C_R   0.160348 0.660274 0.249985 0.847739
C62   C     C_R   0.839630 0.339749 0.750026 0.836534
C63   C     C_R   0.660318 0.839666 0.249993 0.862839
C64   C     C_R   0.339637 0.160287 0.749978 0.859276
C65   C     C_R   0.000496 0.497358 0.651258 -0.357737
C66   C     C_R   0.000200 0.494730 0.349452 -0.366587
C67   C     C_R   0.503157 0.000721 0.651115 -0.372659
C68   C     C_R   0.490723 0.000463 0.349237 -0.393366
C69   C     C_R   0.499736 0.996080 0.151253 -0.360316
C70   C     C_R   0.499303 0.993925 0.849291 -0.394705
C71   C     C_R   0.005689 0.498834 0.150664 -0.410957
C72   C     C_R   0.990089 0.500559 0.848967 -0.382149
C73   C     C_1   0.776544 0.276663 0.750036 -0.162869
C74   C     C_1   0.223441 0.723362 0.249979 -0.166549
C75   C     C_1   0.723432 0.776614 0.749994 -0.156321
C76   C     C_1   0.276598 0.223420 0.250003 -0.159351
C77   C     C_1   0.223412 0.723381 0.750011 -0.162947
C78   C     C_1   0.776594 0.276604 0.250010 -0.163832
C79   C     C_1   0.276550 0.223361 0.749951 -0.160540
C80   C     C_1   0.723405 0.776582 0.249989 -0.150899
C81   C     C_1   0.776582 0.723397 0.249993 -0.152793
C82   C     C_1   0.223381 0.276550 0.749952 -0.157046
C83   C     C_1   0.723383 0.223406 0.249998 -0.155824
C84   C     C_1   0.276609 0.776591 0.750018 -0.166347
C85   C     C_1   0.223434 0.276615 0.249998 -0.162660
C86   C     C_1   0.776596 0.723418 0.749997 -0.158062
C87   C     C_1   0.276606 0.776606 0.249993 -0.174021
C88   C     C_1   0.723368 0.223433 0.750035 -0.166865
C89   C     C_R   0.441446 0.038624 0.945406 0.548219
C90   C     C_R   0.551376 0.936868 0.055440 0.547398
C91   C     C_R   0.907597 0.490330 0.945237 0.562554
C92   C     C_R   0.063954 0.469382 0.054060 0.559876
C93   C     C_R   0.543517 0.929285 0.945272 0.553220
C94   C     C_R   0.436902 0.033105 0.055579 0.546916
C95   C     C_R   0.054018 0.460245 0.943944 0.573261
C96   C     C_R   0.914965 0.481971 0.055524 0.558392
C97   C     C_R   0.972856 0.559100 0.445647 0.557646
C98   C     C_R   0.048041 0.430886 0.555558 0.546797
C99   C     C_R   0.421766 0.966610 0.445913 0.566127
C100  C     C_R   0.571809 0.012217 0.554763 0.555260
C101  C     C_R   0.031346 0.421653 0.445642 0.563322
C102  C     C_R   0.957978 0.550307 0.555474 0.553024
C103  C     C_R   0.567006 0.001925 0.444643 0.577343
C104  C     C_R   0.433522 0.954772 0.555916 0.564463
N1    N     N_R   0.493246 0.984841 0.932381 -0.318251
N2    N     N_R   0.495266 0.986146 0.068477 -0.323097
N3    N     N_R   0.980528 0.479460 0.931615 -0.302524
N4    N     N_R   0.991038 0.478575 0.067785 -0.311900
N5    N     N_R   0.001614 0.490192 0.432541 -0.323689
N6    N     N_R   0.002963 0.490693 0.568498 -0.324015
N7    N     N_R   0.492604 0.986826 0.432226 -0.312422
N8    N     N_R   0.502901 0.985633 0.568314 -0.312105
C105  C     C_R   0.548505 0.930395 0.972796 -0.088401
C106  C     C_R   0.437652 0.037884 0.028069 -0.088573
C107  C     C_R   0.059056 0.460829 0.971508 -0.104722
C108  C     C_R   0.910134 0.483765 0.027924 -0.093190
C109  C     C_R   0.435235 0.035555 0.972867 -0.090209
C110  C     C_R   0.547530 0.929376 0.028019 -0.090897
C111  C     C_R   0.905973 0.480903 0.972639 -0.085813
C112  C     C_R   0.062520 0.459063 0.026728 -0.083883
C113  C     C_R   0.041363 0.423988 0.472964 -0.091192
C114  C     C_R   0.963060 0.556655 0.528097 -0.088579
C115  C     C_R   0.570416 0.006760 0.472152 -0.093327
C116  C     C_R   0.428047 0.956178 0.528380 -0.091696
C117  C     C_R   0.964358 0.557430 0.473011 -0.089836
C118  C     C_R   0.043681 0.424783 0.528106 -0.092005
C119  C     C_R   0.424941 0.955566 0.473191 -0.086941
C120  C     C_R   0.574849 0.005160 0.527340 -0.083722
C121  C     C_R   0.491933 0.982997 0.986643 -0.098570
C122  C     C_R   0.492278 0.983330 0.014224 -0.098693
C123  C     C_R   0.983405 0.470578 0.985899 -0.091575
C124  C     C_R   0.985261 0.470840 0.013501 -0.097959
C125  C     C_R   0.003026 0.490714 0.486804 -0.097789
C126  C     C_R   0.003271 0.490700 0.514318 -0.098958
C127  C     C_R   0.498767 0.980687 0.486500 -0.098726
C128  C     C_R   0.500619 0.980423 0.514065 -0.097824
C129  C     C_R   0.606552 0.879488 0.986797 0.179701
C130  C     C_R   0.384531 0.093842 0.014105 0.183143
C131  C     C_R   0.136677 0.451481 0.985024 0.172042
C132  C     C_R   0.833023 0.496524 0.014387 0.174500
C133  C     C_R   0.376411 0.085352 0.986879 0.181331
C134  C     C_R   0.598973 0.871920 0.014071 0.183042
C135  C     C_R   0.829972 0.485129 0.987126 0.186610
C136  C     C_R   0.136433 0.440709 0.012295 0.192762
C137  C     C_R   0.086181 0.360870 0.486716 0.186160
C138  C     C_R   0.927528 0.625328 0.514200 0.179686
C139  C     C_R   0.643191 0.035259 0.485607 0.177282
C140  C     C_R   0.353464 0.932715 0.514790 0.174510
C141  C     C_R   0.920793 0.621231 0.486846 0.182386
C142  C     C_R   0.080259 0.356733 0.514119 0.181756
C143  C     C_R   0.355582 0.923480 0.487467 0.190896
C144  C     C_R   0.648433 0.025329 0.512864 0.185867
C145  C     C_3   0.681380 0.838947 0.973370 -0.789761
H1    H     H_    0.733124 0.824092 0.987081 0.216013
H2    H     H_    0.661766 0.780011 0.963499 0.264300
H3    H     H_    0.709976 0.883442 0.959268 0.266861
C146  C     C_3   0.342591 0.167971 0.027482 -0.792861
H4    H     H_    0.283793 0.147455 0.037257 0.264865
H5    H     H_    0.386338 0.197321 0.041667 0.268121
H6    H     H_    0.327275 0.219353 0.013701 0.211622
C147  C     C_3   0.220547 0.460549 0.971123 -0.795011
H7    H     H_    0.273038 0.475140 0.984593 0.216746
H8    H     H_    0.235991 0.401765 0.960517 0.267657
H9    H     H_    0.218753 0.514992 0.957616 0.263650
C148  C     C_3   0.755343 0.529390 0.028256 -0.790296
H10   H     H_    0.709187 0.558061 0.014751 0.213945
H11   H     H_    0.723732 0.477685 0.038991 0.263174
H12   H     H_    0.772785 0.581328 0.041650 0.269932
C149  C     C_3   0.300309 0.123609 0.973512 -0.788444
H13   H     H_    0.317585 0.184152 0.964171 0.263650
H14   H     H_    0.274062 0.079173 0.958961 0.266855
H15   H     H_    0.247715 0.134877 0.987252 0.215772
C150  C     C_3   0.639604 0.797354 0.027597 -0.789934
H16   H     H_    0.700373 0.816339 0.036486 0.262641
H17   H     H_    0.596697 0.771026 0.042565 0.268244
H18   H     H_    0.650953 0.744263 0.014042 0.213464
C151  C     C_3   0.745498 0.469472 0.974190 -0.805481
H19   H     H_    0.751226 0.420813 0.958823 0.266120
H20   H     H_    0.698834 0.443151 0.988033 0.218361
H21   H     H_    0.720456 0.528851 0.965909 0.262251
C152  C     C_3   0.212740 0.401689 0.025327 -0.799481
H22   H     H_    0.193091 0.357226 0.040829 0.268744
H23   H     H_    0.249693 0.362713 0.011564 0.212544
H24   H     H_    0.254082 0.451494 0.033460 0.261382
C153  C     C_3   0.147964 0.303776 0.472727 -0.800253
H25   H     H_    0.114898 0.247635 0.464940 0.266669
H26   H     H_    0.180247 0.338113 0.456799 0.262822
H27   H     H_    0.199670 0.282958 0.485706 0.215488
C154  C     C_3   0.904416 0.706689 0.527929 -0.787033
H28   H     H_    0.840942 0.701347 0.536776 0.262534
H29   H     H_    0.952069 0.722328 0.542960 0.268033
H30   H     H_    0.905036 0.761478 0.514581 0.216428
C155  C     C_3   0.711682 0.084356 0.471641 -0.790658
H31   H     H_    0.748115 0.125159 0.485047 0.215824
H32   H     H_    0.755714 0.040624 0.461783 0.267615
H33   H     H_    0.683513 0.128655 0.457413 0.265084
C156  C     C_3   0.269559 0.924316 0.528708 -0.794543
H34   H     H_    0.265932 0.863177 0.539045 0.260228
H35   H     H_    0.260789 0.977408 0.542459 0.269122
H36   H     H_    0.215141 0.928754 0.515297 0.218014
C157  C     C_3   0.859688 0.679468 0.473031 -0.794900
H37   H     H_    0.893826 0.734068 0.464666 0.267189
H38   H     H_    0.825069 0.645071 0.457578 0.262714
H39   H     H_    0.809809 0.702887 0.486258 0.215199
C158  C     C_3   0.106137 0.276175 0.527833 -0.796041
H40   H     H_    0.168981 0.283960 0.536941 0.260026
H41   H     H_    0.058496 0.258488 0.542645 0.267738
H42   H     H_    0.108381 0.221466 0.514479 0.218059
C159  C     C_3   0.288022 0.871284 0.474158 -0.801821
H43   H     H_    0.315394 0.833137 0.458181 0.263890
H44   H     H_    0.260000 0.824394 0.487608 0.216808
H45   H     H_    0.237492 0.912656 0.466558 0.263725
C160  C     C_3   0.734268 0.029085 0.525808 -0.798745
H46   H     H_    0.740108 0.978830 0.540678 0.268271
H47   H     H_    0.785991 0.016286 0.511883 0.218499
H48   H     H_    0.744580 0.091897 0.534694 0.258890
O69   O     O_3   0.071450 0.629945 0.596529 -0.581925
C161  C     C_3   0.148192 0.609407 0.584084 0.076603
H49   H     H_    0.135656 0.579099 0.565065 0.153322
H50   H     H_    0.187916 0.566367 0.596032 0.116400
C162  C     C_3   0.197443 0.690419 0.578881 -0.308395
H51   H     H_    0.160208 0.731766 0.565811 0.231409
H52   H     H_    0.208082 0.724598 0.597422 0.234525
C163  C     C_3   0.282370 0.672110 0.566260 -0.966712
H53   H     H_    0.320968 0.631354 0.579095 0.262028
H54   H     H_    0.316862 0.731968 0.563020 0.284986
H55   H     H_    0.273256 0.640375 0.547235 0.265572
O70   O     O_3   0.151068 0.464772 0.403898 -0.601314
C164  C     C_3   0.181984 0.540501 0.414887 0.058294
H56   H     H_    0.139227 0.564838 0.430143 0.161352
H57   H     H_    0.189689 0.590074 0.399799 0.132579
C165  C     C_3   0.267435 0.523773 0.427482 -0.332050
H58   H     H_    0.260676 0.473729 0.442420 0.232563
H59   H     H_    0.312700 0.501607 0.412533 0.213462
C166  C     C_3   0.302395 0.603000 0.440319 -0.972204
H60   H     H_    0.308395 0.654432 0.425832 0.267351
H61   H     H_    0.365504 0.589597 0.448576 0.266625
H62   H     H_    0.260226 0.623854 0.456273 0.270923
O71   O     O_3   0.386099 0.090638 0.595441 -0.584555
C167  C     C_3   0.422077 0.159497 0.581998 0.060549
H63   H     H_    0.463289 0.137904 0.565983 0.156952
H64   H     H_    0.459742 0.200124 0.595273 0.107512
C168  C     C_3   0.351413 0.211837 0.570010 -0.308189
H65   H     H_    0.313849 0.171634 0.556651 0.232471
H66   H     H_    0.309078 0.235218 0.585589 0.232292
C169  C     C_3   0.386109 0.286706 0.554848 -0.961650
H67   H     H_    0.422903 0.328521 0.567898 0.265663
H68   H     H_    0.333220 0.323287 0.546453 0.271945
H69   H     H_    0.427093 0.264703 0.538745 0.265653
O72   O     O_3   0.532067 0.140053 0.405845 -0.596903
C170  C     C_3   0.461125 0.175727 0.418339 0.063817
H70   H     H_    0.437680 0.134493 0.434128 0.157297
H71   H     H_    0.408819 0.186746 0.404329 0.134363
C171  C     C_3   0.486479 0.259684 0.430551 -0.337038
H72   H     H_    0.535444 0.248444 0.445577 0.232450
H73   H     H_    0.513505 0.301730 0.415456 0.218882
C172  C     C_3   0.411241 0.303381 0.443085 -0.967948
H74   H     H_    0.362255 0.316940 0.428270 0.271103
H75   H     H_    0.431888 0.363766 0.451873 0.264132
H76   H     H_    0.383847 0.263177 0.458589 0.270655
O73   O     O_3   0.939548 0.352259 0.598440 -0.578395
C173  C     C_3   0.863356 0.366605 0.584913 0.088974
H77   H     H_    0.876673 0.392609 0.565339 0.150728
H78   H     H_    0.820810 0.410894 0.595399 0.114157
C174  C     C_3   0.818008 0.282433 0.581330 -0.321278
H79   H     H_    0.858796 0.239090 0.570008 0.234292
H80   H     H_    0.805856 0.253335 0.600601 0.226182
C175  C     C_3   0.734537 0.293221 0.567075 -0.963973
H81   H     H_    0.692003 0.335002 0.578307 0.262142
H82   H     H_    0.703611 0.230979 0.564787 0.289308
H83   H     H_    0.745257 0.320557 0.547489 0.265520
O74   O     O_3   0.849937 0.514740 0.404373 -0.592626
C176  C     C_3   0.820845 0.439348 0.416025 0.068118
H84   H     H_    0.862468 0.419281 0.432137 0.156043
H85   H     H_    0.817197 0.387205 0.401615 0.134874
C177  C     C_3   0.733292 0.454542 0.427401 -0.329957
H86   H     H_    0.737323 0.503978 0.442633 0.230914
H87   H     H_    0.690097 0.477119 0.411938 0.218815
C178  C     C_3   0.696935 0.374472 0.439327 -0.972691
H88   H     H_    0.690151 0.324873 0.424260 0.275819
H89   H     H_    0.633910 0.388008 0.447622 0.264068
H90   H     H_    0.738433 0.351155 0.455121 0.271307
O75   O     O_3   0.614614 0.888374 0.598657 -0.596623
C179  C     C_3   0.572914 0.813255 0.591315 0.080176
H91   H     H_    0.603488 0.789871 0.573304 0.164154
H92   H     H_    0.505091 0.822109 0.586519 0.147958
C180  C     C_3   0.582024 0.746365 0.612534 -0.300762
H93   H     H_    0.649719 0.737557 0.617199 0.249644
H94   H     H_    0.548928 0.767411 0.630389 0.244602
C181  C     C_3   0.544567 0.662466 0.603904 -0.977867
H95   H     H_    0.476521 0.669718 0.599524 0.268065
H96   H     H_    0.551764 0.615477 0.619703 0.271313
H97   H     H_    0.577589 0.638880 0.586339 0.270139
O76   O     O_3   0.445560 0.847949 0.401567 -0.597396
C182  C     C_3   0.518727 0.798323 0.403881 0.118084
H98   H     H_    0.566356 0.830641 0.416271 0.148868
H99   H     H_    0.546480 0.785223 0.384396 0.166531
C183  C     C_3   0.495396 0.714655 0.416580 -0.343658
H100  H     H_    0.466330 0.726777 0.435868 0.229007
H101  H     H_    0.448726 0.681403 0.404183 0.231560
C184  C     C_3   0.572363 0.658508 0.420149 -0.956528
H102  H     H_    0.601700 0.644439 0.401050 0.273072
H103  H     H_    0.553055 0.598301 0.429334 0.261580
H104  H     H_    0.619351 0.689784 0.432893 0.272609
O77   O     O_3   0.538783 0.138041 0.095819 -0.583848
C185  C     C_3   0.614029 0.132244 0.081225 0.088178
H105  H     H_    0.601047 0.102368 0.062180 0.156088
H106  H     H_    0.663895 0.095707 0.091491 0.120468
C186  C     C_3   0.647110 0.221018 0.075966 -0.316578
H107  H     H_    0.595902 0.260070 0.067573 0.242094
H108  H     H_    0.667429 0.250386 0.094526 0.218387
C187  C     C_3   0.720985 0.220084 0.057003 -0.971262
H109  H     H_    0.771872 0.178561 0.064259 0.267849
H110  H     H_    0.746401 0.284792 0.054772 0.279713
H111  H     H_    0.699986 0.197169 0.037667 0.267470
O78   O     O_3   0.640663 0.037078 0.904989 -0.582938
C188  C     C_3   0.629780 0.115612 0.917514 0.096889
H112  H     H_    0.600300 0.106032 0.936832 0.151834
H113  H     H_    0.589999 0.159947 0.906026 0.118721
C189  C     C_3   0.715938 0.156049 0.921799 -0.339981
H114  H     H_    0.754613 0.114764 0.934477 0.228878
H115  H     H_    0.748651 0.162813 0.902858 0.228223
C190  C     C_3   0.707843 0.242502 0.934460 -0.940088
H116  H     H_    0.673005 0.286044 0.921470 0.271814
H117  H     H_    0.771296 0.269088 0.938098 0.274632
H118  H     H_    0.674268 0.237443 0.953326 0.261459
O79   O     O_3   0.938893 0.629032 0.094695 -0.572641
C191  C     C_3   0.999712 0.669297 0.078935 0.092411
H119  H     H_    0.007667 0.634491 0.060436 0.150157
H120  H     H_    0.062128 0.674609 0.088717 0.108904
C192  C     C_3   0.967999 0.757436 0.072325 -0.305275
H121  H     H_    0.904704 0.752606 0.063238 0.239600
H122  H     H_    0.962204 0.794997 0.090453 0.224162
C193  C     C_3   0.027021 0.802637 0.053562 -0.976437
H123  H     H_    0.089588 0.811903 0.062649 0.271897
H124  H     H_    0.000627 0.865250 0.048636 0.271069
H125  H     H_    0.034251 0.765814 0.035356 0.266377
O80   O     O_3   0.071101 0.612738 0.907230 -0.610681
C194  C     C_3   0.015742 0.666971 0.920967 0.044111
H126  H     H_    0.952232 0.639868 0.924500 0.165730
H127  H     H_    0.005773 0.725458 0.909646 0.140338
C195  C     C_3   0.055376 0.690770 0.947046 -0.329410
H128  H     H_    0.076663 0.633266 0.957314 0.232727
H129  H     H_    0.111133 0.731439 0.943607 0.221764
C196  C     C_3   0.993218 0.737546 0.964398 -0.947091
H130  H     H_    0.970661 0.795476 0.954571 0.268172
H131  H     H_    0.024668 0.755543 0.982847 0.262620
H132  H     H_    0.938590 0.696547 0.969063 0.271456
O81   O     O_3   0.458913 0.841300 0.099305 -0.577859
C197  C     C_3   0.378772 0.841427 0.087347 0.100963
H133  H     H_    0.383830 0.866670 0.067298 0.147316
H134  H     H_    0.331737 0.879823 0.098224 0.115372
C198  C     C_3   0.347266 0.750646 0.085579 -0.308988
H135  H     H_    0.388901 0.714455 0.072320 0.231085
H136  H     H_    0.349886 0.720788 0.105076 0.230588
C199  C     C_3   0.257094 0.746349 0.075542 -1.001065
H137  H     H_    0.214120 0.778846 0.089271 0.255553
H138  H     H_    0.237084 0.679605 0.073902 0.282570
H139  H     H_    0.252523 0.776208 0.056082 0.273936
O82   O     O_3   0.351990 0.933791 0.901935 -0.581657
C200  C     C_3   0.364199 0.853778 0.913442 0.109943
H140  H     H_    0.379530 0.862064 0.934344 0.150698
H141  H     H_    0.415818 0.816776 0.904154 0.124760
C201  C     C_3   0.282549 0.803117 0.911434 -0.349297
H142  H     H_    0.231887 0.835840 0.922342 0.226366
H143  H     H_    0.262973 0.798526 0.890770 0.229025
C202  C     C_3   0.293387 0.714483 0.922323 -0.943010
H144  H     H_    0.344333 0.680906 0.911828 0.271232
H145  H     H_    0.234144 0.678416 0.919779 0.300433
H146  H     H_    0.308837 0.717226 0.943354 0.260713
O83   O     O_3   0.043904 0.342408 0.098803 -0.600336
C203  C     C_3   0.970304 0.293884 0.094580 0.078232
H147  H     H_    0.981381 0.254527 0.077079 0.164615
H148  H     H_    0.913406 0.332512 0.090302 0.152166
C204  C     C_3   0.953323 0.235730 0.117775 -0.295068
H149  H     H_    0.010621 0.198180 0.122023 0.249313
H150  H     H_    0.937720 0.273928 0.135177 0.243477
C205  C     C_3   0.880003 0.176207 0.112411 -1.017132
H151  H     H_    0.821513 0.212675 0.109030 0.270741
H152  H     H_    0.870049 0.134548 0.129454 0.275922
H153  H     H_    0.893516 0.136461 0.095167 0.272557
O84   O     O_3   0.887604 0.370235 0.899257 -0.600057
C206  C     C_3   0.937602 0.298410 0.904235 0.083613
H154  H     H_    0.914843 0.270098 0.922660 0.158026
H155  H     H_    0.005712 0.312672 0.907318 0.145445
C207  C     C_3   0.927346 0.234108 0.882285 -0.318724
H156  H     H_    0.859635 0.226967 0.877440 0.240242
H157  H     H_    0.960847 0.256807 0.864691 0.251592
C208  C     C_3   0.962808 0.148496 0.889905 -0.953275
H158  H     H_    0.030727 0.154023 0.894700 0.278836
H159  H     H_    0.955431 0.103953 0.873439 0.274084
H160  H     H_    0.928381 0.122939 0.906956 0.263897
O85   O     O_3   0.064736 0.635007 0.650174 -0.601009
C209  C     C_3   0.152693 0.631472 0.654009 0.115192
H161  H     H_    0.186211 0.640784 0.635376 0.143136
H162  H     H_    0.172687 0.570199 0.662473 0.149800
C210  C     C_3   0.178589 0.702180 0.672465 -0.321101
H163  H     H_    0.161681 0.763779 0.663701 0.232928
H164  H     H_    0.143884 0.695525 0.691087 0.227679
C211  C     C_3   0.272977 0.700708 0.677879 -0.920064
H165  H     H_    0.290785 0.640887 0.687562 0.272541
H166  H     H_    0.289842 0.753842 0.690878 0.274748
H167  H     H_    0.308905 0.707288 0.659475 0.261261
O86   O     O_3   0.143560 0.445488 0.348867 -0.593207
C212  C     C_3   0.218967 0.492838 0.350853 0.176329
H168  H     H_    0.264936 0.462892 0.337500 0.155583
H169  H     H_    0.248295 0.486916 0.370165 0.166059
C213  C     C_3   0.210470 0.585256 0.342373 -0.427061
H170  H     H_    0.191897 0.588184 0.321619 0.266632
H171  H     H_    0.161929 0.618139 0.354075 0.200896
C214  C     C_3   0.293960 0.631551 0.345552 -0.942996
H172  H     H_    0.311679 0.635145 0.366409 0.261887
H173  H     H_    0.287738 0.696170 0.337784 0.268825
H174  H     H_    0.344546 0.599046 0.334578 0.272123
O87   O     O_3   0.384366 0.094370 0.649998 -0.598352
C215  C     C_3   0.395060 0.182147 0.646912 0.137247
H175  H     H_    0.356831 0.203569 0.630159 0.179316
H176  H     H_    0.462199 0.200824 0.643966 0.099090
C216  C     C_3   0.362603 0.226944 0.671161 -0.318374
H177  H     H_    0.297270 0.206040 0.675418 0.234255
H178  H     H_    0.403237 0.210241 0.687867 0.263862
C217  C     C_3   0.363533 0.322298 0.667774 -0.967213
H179  H     H_    0.428542 0.344746 0.663894 0.263410
H180  H     H_    0.340306 0.352689 0.685825 0.280178
H181  H     H_    0.321986 0.341017 0.651415 0.267534
O88   O     O_3   0.545548 0.142006 0.350975 -0.585193
C218  C     C_3   0.494980 0.215275 0.353008 0.163487
H182  H     H_    0.522678 0.262732 0.339663 0.157045
H183  H     H_    0.500093 0.243840 0.372478 0.156832
C219  C     C_3   0.402226 0.202905 0.344962 -0.427868
H184  H     H_    0.398921 0.180783 0.324541 0.258988
H185  H     H_    0.371120 0.155467 0.357573 0.195950
C220  C     C_3   0.353386 0.285188 0.347210 -0.932201
H186  H     H_    0.354148 0.308130 0.367604 0.261397
H187  H     H_    0.287024 0.274828 0.341260 0.287725
H188  H     H_    0.381387 0.333853 0.334352 0.257623
O89   O     O_3   0.940757 0.357676 0.652082 -0.602473
C221  C     C_3   0.852514 0.358153 0.655323 0.121349
H189  H     H_    0.820255 0.350339 0.636407 0.137934
H190  H     H_    0.830571 0.417752 0.664398 0.154644
C222  C     C_3   0.827594 0.284504 0.672792 -0.320906
H191  H     H_    0.848856 0.224701 0.663752 0.226493
H192  H     H_    0.859245 0.291085 0.691936 0.227207
C223  C     C_3   0.732575 0.280668 0.676901 -0.965962
H193  H     H_    0.710311 0.338635 0.686775 0.280820
H194  H     H_    0.716714 0.225610 0.689242 0.269968
H195  H     H_    0.699658 0.273806 0.657973 0.255095
O90   O     O_3   0.852552 0.530731 0.349973 -0.583338
C224  C     C_3   0.786167 0.470851 0.350776 0.172828
H196  H     H_    0.737893 0.492470 0.336682 0.160792
H197  H     H_    0.753869 0.471833 0.369739 0.154224
C225  C     C_3   0.811324 0.380641 0.342898 -0.444042
H198  H     H_    0.837227 0.380625 0.322885 0.257500
H199  H     H_    0.859949 0.355442 0.356277 0.205298
C226  C     C_3   0.735382 0.321778 0.343697 -0.900269
H200  H     H_    0.708788 0.319248 0.363650 0.262266
H201  H     H_    0.754939 0.257389 0.337958 0.284088
H202  H     H_    0.686071 0.343648 0.329986 0.260116
O91   O     O_3   0.622846 0.904924 0.651559 -0.602816
C227  C     C_3   0.686982 0.958584 0.661239 0.121999
H203  H     H_    0.718265 0.924250 0.677353 0.126972
H204  H     H_    0.662556 0.017404 0.670222 0.101564
C228  C     C_3   0.754240 0.977945 0.640538 -0.344079
H205  H     H_    0.817303 0.977993 0.649886 0.179908
H206  H     H_    0.754674 0.928183 0.625385 0.280064
C229  C     C_3   0.741311 0.063995 0.627898 -0.830048
H207  H     H_    0.678393 0.068487 0.618754 0.282102
H208  H     H_    0.789810 0.074134 0.612688 0.267953
H209  H     H_    0.747420 0.114530 0.642671 0.234333
O92   O     O_3   0.428343 0.859687 0.348876 -0.582029
C230  C     C_3   0.346573 0.878260 0.339412 0.156822
H210  H     H_    0.334330 0.834596 0.322998 0.134253
H211  H     H_    0.341157 0.942358 0.330809 0.090207
C231  C     C_3   0.278394 0.863232 0.360172 -0.397901
H212  H     H_    0.222360 0.834208 0.350830 0.178245
H213  H     H_    0.301387 0.818485 0.375149 0.278791
C232  C     C_3   0.250050 0.944931 0.373120 -0.793226
H214  H     H_    0.303870 0.978562 0.382036 0.272734
H215  H     H_    0.203415 0.930525 0.388554 0.272018
H216  H     H_    0.220018 0.986860 0.358575 0.229488
O93   O     O_3   0.543692 0.141250 0.149354 -0.604212
C233  C     C_3   0.631767 0.147886 0.152544 0.108848
H217  H     H_    0.662051 0.163117 0.133693 0.145119
H218  H     H_    0.659710 0.088600 0.160232 0.147886
C234  C     C_3   0.650586 0.218809 0.171734 -0.325769
H219  H     H_    0.623714 0.278598 0.164252 0.232385
H220  H     H_    0.620421 0.204358 0.190702 0.221315
C235  C     C_3   0.745030 0.230112 0.175820 -0.931201
H221  H     H_    0.773210 0.171406 0.183609 0.275134
H222  H     H_    0.756283 0.281689 0.189946 0.268662
H223  H     H_    0.776134 0.246818 0.157206 0.266820
O94   O     O_3   0.647039 0.033373 0.851871 -0.568801
C236  C     C_3   0.653472 0.119988 0.846236 0.133864
H224  H     H_    0.653650 0.157823 0.864376 0.121954
H225  H     H_    0.600463 0.141249 0.833697 0.115990
C237  C     C_3   0.736230 0.135196 0.831893 -0.298207
H226  H     H_    0.789574 0.115397 0.844449 0.223621
H227  H     H_    0.737595 0.096791 0.813862 0.257226
C238  C     C_3   0.747121 0.227551 0.824811 -0.973140
H228  H     H_    0.695662 0.248359 0.811710 0.254154
H229  H     H_    0.808214 0.236689 0.814729 0.295291
H230  H     H_    0.746599 0.266417 0.842699 0.270659
O95   O     O_3   0.951916 0.641444 0.147747 -0.568394
C239  C     C_3   0.020757 0.697526 0.149860 0.128902
H231  H     H_    0.036104 0.724619 0.130555 0.125436
H232  H     H_    0.077878 0.665702 0.157755 0.120752
C240  C     C_3   0.997085 0.769410 0.168144 -0.277341
H233  H     H_    0.942652 0.804280 0.159942 0.222574
H234  H     H_    0.978375 0.743376 0.187336 0.260054
C241  C     C_3   0.070543 0.830092 0.171975 -0.982882
H235  H     H_    0.124693 0.796939 0.180959 0.265431
H236  H     H_    0.051049 0.882088 0.185046 0.277454
H237  H     H_    0.090317 0.857270 0.153048 0.258797
O96   O     O_3   0.088734 0.614638 0.851938 -0.603417
C242  C     C_3   0.069752 0.700881 0.855923 0.154549
H238  H     H_    0.107563 0.736680 0.841576 0.161494
H239  H     H_    0.092899 0.722536 0.875057 0.164332
C243  C     C_3   0.976774 0.724703 0.851359 -0.432790
H240  H     H_    0.957098 0.704609 0.831623 0.261887
H241  H     H_    0.935480 0.693217 0.865809 0.198637
C244  C     C_3   0.964051 0.819496 0.853749 -0.917489
H242  H     H_    0.982378 0.841342 0.873458 0.258599
H243  H     H_    0.896746 0.834911 0.850522 0.281749
H244  H     H_    0.002388 0.853192 0.838998 0.268017
O97   O     O_3   0.457156 0.850147 0.152865 -0.579624
C245  C     C_3   0.369606 0.844651 0.157552 0.125444
H245  H     H_    0.335584 0.825491 0.139716 0.133096
H246  H     H_    0.342754 0.905650 0.164170 0.116352
C246  C     C_3   0.352852 0.779500 0.178791 -0.321983
H247  H     H_    0.393021 0.793491 0.195929 0.222151
H248  H     H_    0.285977 0.783650 0.184948 0.170024
C247  C     C_3   0.370443 0.690118 0.169425 -0.820913
H249  H     H_    0.328464 0.673860 0.152909 0.231390
H250  H     H_    0.358413 0.645100 0.185497 0.230871
H251  H     H_    0.437051 0.683853 0.163216 0.299365
O98   O     O_3   0.355721 0.939317 0.849033 -0.565563
C248  C     C_3   0.364365 0.853964 0.841790 0.138826
H252  H     H_    0.377473 0.813514 0.858951 0.115738
H253  H     H_    0.416481 0.846137 0.827551 0.115697
C249  C     C_3   0.282489 0.824302 0.829218 -0.319360
H254  H     H_    0.229970 0.831953 0.843257 0.209274
H255  H     H_    0.268764 0.863706 0.811917 0.254095
C250  C     C_3   0.287887 0.732294 0.820938 -0.959777
H256  H     H_    0.340450 0.723230 0.806999 0.257274
H257  H     H_    0.228357 0.713327 0.811283 0.280280
H258  H     H_    0.297820 0.691422 0.838168 0.277840
O99   O     O_3   0.070855 0.359386 0.150944 -0.594873
C251  C     C_3   0.153283 0.380520 0.159292 0.149329
H259  H     H_    0.170031 0.335447 0.174944 0.139836
H260  H     H_    0.157338 0.443785 0.168515 0.092411
C252  C     C_3   0.218565 0.370771 0.137386 -0.363752
H261  H     H_    0.276960 0.342772 0.145522 0.188860
H262  H     H_    0.194805 0.327050 0.122221 0.282560
C253  C     C_3   0.241807 0.455153 0.125061 -0.822697
H263  H     H_    0.185347 0.487517 0.117376 0.271741
H264  H     H_    0.286416 0.444656 0.108785 0.276618
H265  H     H_    0.272552 0.496516 0.139652 0.227896
O100  O     O_3   0.882671 0.391420 0.846282 -0.605731
C254  C     C_3   0.814244 0.439043 0.836466 0.118234
H266  H     H_    0.789897 0.405069 0.819176 0.130678
H267  H     H_    0.832830 0.502179 0.829000 0.099897
C255  C     C_3   0.742213 0.445775 0.856368 -0.386637
H268  H     H_    0.681040 0.438499 0.846130 0.175570
H269  H     H_    0.746570 0.394298 0.870903 0.270516
C256  C     C_3   0.741761 0.530653 0.870305 -0.795502
H270  H     H_    0.802423 0.542326 0.880293 0.274969
H271  H     H_    0.690683 0.531438 0.885016 0.265906
H272  H     H_    0.730370 0.582151 0.856161 0.230853

loop_
_geom_bond_atom_site_label_1
_geom_bond_atom_site_label_2
_geom_bond_distance
_ccdc_geom_bond_type
O57   C93   1.348075 S    
C242  H238  1.108918 S    
C6    C66   1.418847 A    
C253  H263  1.108190 S    
C21   C33   1.416789 A    
O41   C63   1.258665 A    
C214  H172  1.111208 S    
C239  C240  1.527944 S    
C204  H149  1.111540 S    
C254  C255  1.540250 S    
C255  C256  1.528340 S    
C111  C135  1.421436 A    
Zn12  O1    1.945038 S    
Zn13  O12   1.887296 S    
O69   C161  1.416458 S    
C156  H36   1.108971 S    
C109  C133  1.422535 A    
Zn14  O11   1.887296 S    
C231  C232  1.528458 S    
O30   C58   1.258588 A    
C176  H84   1.108059 S    
C54   C81   1.419386 S    
C111  C123  1.417160 A    
C187  H110  1.110786 S    
C63   C80   1.419438 S    
C26   O78   1.386632 S    
C205  H152  1.110444 S    
C252  H262  1.110949 S    
C240  H234  1.111461 S    
C6    C22   1.413585 A    
C154  H30   1.109559 S    
O98   C248  1.414278 S    
C89   C109  1.417633 A    
C222  C223  1.526345 S    
C190  H118  1.110916 S    
C137  C142  1.415063 A    
C10   O94   1.383125 S    
C177  H86   1.111853 S    
C137  C153  1.519754 S    
C251  H260  1.114045 S    
C237  H226  1.111995 S    
C232  H215  1.110289 S    
C50   C85   1.419361 S    
Zn4   O46   1.922357 S    
C51   C84   1.417416 S    
C225  C226  1.527016 S    
C4    O88   1.391133 S    
C139  C144  1.414198 A    
C98   N6    1.365016 A    
C251  C252  1.540375 S    
C17   C33   1.416838 A    
O45   C51   1.258760 A    
C19   C35   1.416805 A    
C246  H248  1.111363 S    
C147  H7    1.109061 S    
Zn13  O35   1.925024 S    
Zn5   O1    1.944888 S    
Zn9   O4    1.944756 S    
Zn10  O3    1.944752 S    
C134  C150  1.519831 S    
C179  H92   1.115157 S    
C53   C82   1.419472 S    
C194  C195  1.529964 S    
C216  H178  1.107920 S    
C27   C39   1.415789 A    
C163  H53   1.110875 S    
C256  H272  1.110791 S    
C169  H67   1.110882 S    
O71   C167  1.415279 S    
Zn15  O6    1.887304 S    
O12   C44   1.276429 A    
Zn16  O1    1.945270 S    
C45   C68   1.493848 S    
C110  C134  1.421565 A    
C9    C25   1.408320 A    
C220  H187  1.110499 S    
C102  C114  1.414997 A    
O96   C242  1.419429 S    
C234  C235  1.526313 S    
C185  H106  1.116416 S    
C120  C128  1.418578 A    
C253  H265  1.110964 S    
C217  H179  1.110937 S    
C198  H135  1.111730 S    
C12   C28   1.422255 A    
C13   C29   1.407071 A    
C165  H58   1.111647 S    
C208  H160  1.111012 S    
C49   C86   1.419391 S    
C143  C159  1.519392 S    
Zn7   O14   1.887304 S    
C220  H188  1.110844 S    
O6    C42   1.282045 A    
O17   C45   1.279199 A    
O32   C60   1.258585 A    
Zn2   O48   1.924979 S    
C250  H258  1.110936 S    
C175  H81   1.110855 S    
C167  C168  1.529009 S    
C225  H198  1.109289 S    
O22   C50   1.258557 A    
O19   C47   1.282950 A    
C116  C140  1.425668 A    
C206  H155  1.117181 S    
C176  C177  1.529477 S    
C245  H246  1.113600 S    
C224  H197  1.102939 S    
C138  C154  1.519575 S    
O77   C185  1.415581 S    
C254  H266  1.110271 S    
C106  C122  1.420008 A    
C243  C244  1.526013 S    
C149  H14   1.110487 S    
Zn5   O51   1.925024 S    
C198  C199  1.525069 S    
C231  H212  1.111876 S    
C95   C107  1.420990 A    
C207  H156  1.110495 S    
C238  H230  1.108808 S    
C213  C214  1.525501 S    
C13   O97   1.384976 S    
C245  C246  1.529252 S    
C186  H107  1.111886 S    
C29   O81   1.385931 S    
C117  C125  1.417436 A    
O94   C236  1.411040 S    
O100  C254  1.419246 S    
C156  H34   1.109697 S    
O38   C60   1.258522 A    
C157  H38   1.110648 S    
C3    C19   1.416774 A    
C248  H252  1.112523 S    
C227  H203  1.110855 S    
C152  H24   1.110243 S    
C237  C238  1.522743 S    
C191  H120  1.115681 S    
O86   C212  1.418271 S    
C119  C143  1.419270 A    
O53   C89   1.348339 S    
O8    C44   1.275678 A    
C200  H140  1.110833 S    
Zn7   O3    1.945271 S    
C170  H70   1.108426 S    
C222  H192  1.111181 S    
C14   C70   1.418828 A    
C95   N3    1.364427 A    
O90   C224  1.420900 S    
O26   C54   1.258560 A    
O84   C206  1.415752 S    
C147  H9    1.110725 S    
C103  C115  1.418935 A    
C20   O72   1.386574 S    
C23   C35   1.410358 A    
C150  H17   1.110534 S    
O76   C182  1.411496 S    
C2    C66   1.419700 A    
C179  C180  1.531511 S    
C184  H103  1.110593 S    
O52   C54   1.258758 A    
C166  H61   1.110422 S    
C147  H8    1.110164 S    
C174  H79   1.111856 S    
C75   C86   1.196561 T    
O14   C46   1.275640 A    
C113  C137  1.420550 A    
C210  C211  1.526293 S    
C58   C77   1.417370 S    
O35   C63   1.258690 A    
C188  H112  1.109645 S    
C164  H56   1.108618 S    
C59   C76   1.419387 S    
C28   O80   1.387474 S    
C196  H130  1.110827 S    
C213  H170  1.109188 S    
O33   C61   1.258566 A    
C204  H150  1.110365 S    
Zn10  O32   1.924979 S    
C148  H10   1.109182 S    
O48   C50   1.258561 A    
C165  C166  1.526455 S    
C107  C123  1.421077 A    
C235  H222  1.110230 S    
C191  H119  1.108576 S    
C239  H232  1.116705 S    
C105  C129  1.424121 A    
C34   N5    1.448610 S    
O9    C41   1.277022 A    
C149  H13   1.110259 S    
O66   C102  1.348549 S    
O11   C43   1.280689 A    
C250  H256  1.110865 S    
C175  H83   1.110898 S    
C98   C118  1.417908 A    
C215  H175  1.108790 S    
C146  H4    1.110134 S    
C142  C158  1.519825 S    
C28   C40   1.420219 A    
C181  H95   1.111075 S    
Zn2   O2    1.944752 S    
C16   C72   1.411462 A    
C206  H154  1.110147 S    
C6    O90   1.391774 S    
C203  H147  1.110930 S    
C162  H52   1.110945 S    
C3    C67   1.411217 A    
C192  H122  1.111634 S    
C5    C65   1.409290 A    
C140  C156  1.519733 S    
C213  H171  1.110281 S    
Zn11  O10   1.887418 S    
Zn1   O47   1.924979 S    
C37   N2    1.444132 S    
O13   C45   1.283726 A    
C202  H146  1.110807 S    
Zn3   O45   1.922357 S    
O43   C61   1.258805 A    
C218  C219  1.543771 S    
C57   C78   1.417460 S    
C93   C105  1.418926 A    
C155  H31   1.109568 S    
C226  H202  1.110922 S    
C160  H47   1.109768 S    
C2    C18   1.417686 A    
C43   C70   1.493133 S    
C249  H254  1.110981 S    
C120  C144  1.423116 A    
C77   C84   1.195347 T    
C163  H54   1.110327 S    
C158  H40   1.110234 S    
Zn15  O26   1.924825 S    
C193  H124  1.110308 S    
C172  H75   1.110464 S    
C186  C187  1.527129 S    
C161  H50   1.116507 S    
C139  C155  1.519639 S    
C227  C228  1.540239 S    
C228  C229  1.529243 S    
C189  H114  1.111697 S    
C229  H209  1.110311 S    
C248  C249  1.527475 S    
O29   C57   1.258718 A    
C168  H66   1.111221 S    
O72   C170  1.417363 S    
C167  H63   1.107753 S    
C182  C183  1.527562 S    
C255  H269  1.111166 S    
C130  C133  1.413600 A    
C236  H225  1.114285 S    
C125  C126  1.416099 A    
C223  H193  1.110838 S    
O82   C200  1.417008 S    
C181  H97   1.110863 S    
C200  C201  1.530072 S    
C18   O70   1.386056 S    
C159  H43   1.110895 S    
C96   C108  1.422896 A    
Zn15  O33   1.922261 S    
C193  H125  1.110948 S    
C17   O69   1.388063 S    
C173  H78   1.116220 S    
O91   C227  1.418779 S    
C178  H88   1.111122 S    
C180  C181  1.526109 S    
C15   O99   1.385856 S    
Zn12  O21   1.924834 S    
C210  H163  1.111701 S    
C35   N8    1.447210 S    
Zn9   O8    1.887363 S    
O63   C99   1.348316 S    
Zn14  O23   1.922428 S    
Zn6   O2    1.944887 S    
Zn10  O7    1.887363 S    
C152  H23   1.109922 S    
O5    C41   1.281593 A    
Zn12  O9    1.887418 S    
C133  C149  1.519526 S    
Zn6   O19   1.887296 S    
O56   C92   1.348171 S    
O7    C43   1.281827 A    
Zn2   O43   1.922534 S    
C241  H235  1.110844 S    
C56   C87   1.417383 S    
C171  H73   1.111067 S    
O80   C194  1.421286 S    
C178  H90   1.110916 S    
C222  H191  1.111655 S    
C242  C243  1.544287 S    
C218  H182  1.110957 S    
Zn1   O16   1.887363 S    
O79   C191  1.414551 S    
C188  C189  1.528137 S    
Zn2   O15   1.887363 S    
C10   C26   1.407777 A    
C173  C174  1.530369 S    
C196  H132  1.111359 S    
C233  H217  1.109754 S    
C148  H12   1.110543 S    
C253  H264  1.110316 S    
C24   C36   1.405763 A    
C14   O98   1.384244 S    
C201  C202  1.526699 S    
C102  N6    1.364275 A    
C191  C192  1.528448 S    
O78   C188  1.416080 S    
C254  H267  1.114452 S    
C207  C208  1.525454 S    
O81   C197  1.414793 S    
C151  H21   1.110281 S    
C216  H177  1.111815 S    
C163  H55   1.110890 S    
O10   C42   1.281574 A    
C52   C83   1.417367 S    
C156  H35   1.110487 S    
C171  C172  1.527023 S    
C119  C127  1.415806 A    
C112  C124  1.416845 A    
C215  C216  1.527139 S    
C3    O87   1.388019 S    
C150  H18   1.110028 S    
C171  H72   1.111862 S    
C155  H32   1.110072 S    
C219  H184  1.109506 S    
C31   C39   1.408334 A    
Zn9   O31   1.924979 S    
C205  H153  1.110650 S    
O54   C90   1.348404 S    
Zn11  O29   1.922357 S    
C203  C204  1.533820 S    
Zn16  O25   1.924825 S    
C108  C124  1.421379 A    
C214  H174  1.110855 S    
C190  H117  1.109016 S    
C209  H161  1.106994 S    
C230  C231  1.540400 S    
C221  H189  1.107261 S    
C25   C37   1.418537 A    
Zn4   O37   1.924834 S    
C237  H227  1.111122 S    
C232  H214  1.107720 S    
C155  H33   1.110817 S    
C226  H200  1.111270 S    
C247  H251  1.110635 S    
C224  H196  1.110870 S    
C249  C250  1.526275 S    
C20   C36   1.418144 A    
C233  C234  1.528205 S    
C22   C34   1.415377 A    
Zn16  O34   1.922261 S    
C183  H100  1.111939 S    
O36   C64   1.258952 A    
C92   C112  1.416376 A    
C228  H205  1.111916 S    
C189  C190  1.526820 S    
C247  H250  1.110427 S    
C197  H133  1.110082 S    
C182  H98   1.114734 S    
C194  H127  1.109090 S    
C121  C122  1.419567 A    
C131  C147  1.519795 S    
O25   C53   1.258854 A    
C256  H271  1.110305 S    
C244  H242  1.110869 S    
C169  H68   1.110529 S    
C80   C81   1.196576 T    
C32   O84   1.382993 S    
C159  H45   1.110183 S    
C220  H186  1.111248 S    
C94   N2    1.364183 A    
C234  H220  1.111596 S    
C114  C138  1.422976 A    
C195  H128  1.109424 S    
C217  H180  1.110604 S    
C180  H93   1.111609 S    
Zn10  O27   1.922534 S    
C90   C110  1.417577 A    
C158  H42   1.109210 S    
C199  H137  1.110826 S    
C165  H59   1.111138 S    
O20   C48   1.275132 A    
C32   C40   1.406813 A    
C179  H91   1.110998 S    
C104  N8    1.364773 A    
C7    C67   1.411287 A    
C8    C68   1.415598 A    
O68   C104  1.347909 S    
C141  C157  1.519604 S    
O16   C48   1.276742 A    
C250  H257  1.110148 S    
C169  H69   1.111025 S    
C175  H82   1.110662 S    
C99   N7    1.366284 A    
C76   C85   1.196550 T    
Zn7   O49   1.922261 S    
C16   O100  1.384807 S    
O15   C47   1.282242 A    
C97   N5    1.365947 A    
C18   C34   1.415813 A    
C41   C72   1.486066 S    
C42   C71   1.494644 S    
C217  H181  1.110965 S    
O62   C98   1.348166 S    
Zn13  O24   1.922428 S    
O83   C203  1.417283 S    
C176  H85   1.113785 S    
C15   C31   1.403255 A    
C153  H25   1.110092 S    
C48   C65   1.473542 S    
C16   C32   1.401317 A    
C1    C17   1.407317 A    
C36   N7    1.449018 S    
Zn5   O20   1.887296 S    
C211  H167  1.111025 S    
Zn1   O44   1.922534 S    
C177  H87   1.111053 S    
C130  C146  1.519872 S    
C14   C30   1.405047 A    
O97   C245  1.415081 S    
C198  H136  1.110975 S    
C11   C71   1.417379 A    
C231  H213  1.111253 S    
C26   C38   1.412783 A    
C1    O85   1.385102 S    
C9    C69   1.407708 A    
C79   C82   1.196549 T    
C187  H109  1.109652 S    
C145  H3    1.110477 S    
C127  C128  1.419008 A    
C238  H229  1.110486 S    
Zn3   O3    1.945043 S    
C205  H151  1.110219 S    
C252  C253  1.529022 S    
C183  C184  1.526731 S    
C30   O82   1.387273 S    
O93   C233  1.413451 S    
C129  C134  1.414067 A    
C4    C68   1.419161 A    
C235  H221  1.110873 S    
C201  H143  1.110473 S    
O51   C53   1.258552 A    
O95   C239  1.414800 S    
O85   C209  1.413261 S    
C240  C241  1.526460 S    
C38   N1    1.444814 S    
C62   C73   1.417380 S    
O50   C56   1.258551 A    
Zn14  O3    1.944887 S    
C232  H216  1.110764 S    
C113  C125  1.416399 A    
O70   C164  1.417564 S    
C55   C88   1.417439 S    
C60   C75   1.419373 S    
C109  C121  1.419749 A    
C255  H268  1.111885 S    
C44   C69   1.474217 S    
C90   N2    1.364452 A    
Zn4   O4    1.945038 S    
O39   C57   1.258592 A    
C246  C247  1.526918 S    
C241  H236  1.110296 S    
C242  H239  1.105976 S    
Zn3   O18   1.887418 S    
C107  C131  1.424412 A    
O92   C230  1.419549 S    
C132  C135  1.415489 A    
Zn5   O40   1.922428 S    
C105  C121  1.420676 A    
C135  C151  1.518993 S    
C170  H71   1.114625 S    
C184  H102  1.110930 S    
C216  C217  1.526255 S    
C208  H159  1.110502 S    
C104  C116  1.420080 A    
C106  C130  1.422501 A    
C225  H199  1.110442 S    
Zn8   O50   1.922261 S    
C170  C171  1.528983 S    
C15   C71   1.417148 A    
O99   C251  1.418815 S    
C167  H64   1.114166 S    
C185  H105  1.108447 S    
C241  H237  1.110994 S    
O23   C51   1.258573 A    
O24   C52   1.258639 A    
C199  H139  1.110867 S    
C146  H6    1.109300 S    
C149  H15   1.109798 S    
C23   O75   1.384596 S    
C91   C111  1.418497 A    
C168  H65   1.112058 S    
Zn11  O2    1.945043 S    
C100  N8    1.365231 A    
C144  C160  1.519466 S    
C229  H208  1.110375 S    
C61   C74   1.417490 S    
C243  H240  1.109664 S    
C151  H19   1.110188 S    
O42   C64   1.258371 A    
C33   N6    1.443526 S    
C215  H176  1.117750 S    
C207  H157  1.110582 S    
C118  C142  1.424354 A    
C123  C124  1.420912 A    
C174  C175  1.526068 S    
O46   C52   1.258612 A    
C164  H57   1.113226 S    
Zn9   O28   1.922534 S    
C166  H60   1.110741 S    
C4    C20   1.420876 A    
C11   C27   1.412357 A    
C206  C207  1.532172 S    
C5    C21   1.408768 A    
C203  H148  1.115987 S    
C245  H245  1.107860 S    
C153  H27   1.110050 S    
C244  H244  1.110906 S    
C46   C67   1.479094 S    
O64   C100  1.348026 S    
C158  H41   1.110542 S    
C47   C66   1.498130 S    
C227  H204  1.113661 S    
C202  H145  1.109635 S    
C116  C128  1.421690 A    
Zn12  O30   1.922357 S    
C218  H183  1.103114 S    
Zn7   O42   1.924825 S    
C226  H201  1.110415 S    
C8    O92   1.385052 S    
C160  H46   1.110533 S    
O75   C179  1.416479 S    
C187  H111  1.110912 S    
C19   O71   1.386375 S    
C230  H210  1.110416 S    
C31   O83   1.384348 S    
C185  C186  1.529792 S    
C211  H166  1.110158 S    
C173  H77   1.109340 S    
C252  H261  1.111959 S    
C212  H169  1.101945 S    
C172  H74   1.111199 S    
C114  C126  1.418870 A    
C186  H108  1.110995 S    
C161  C162  1.530074 S    
C157  H37   1.110106 S    
C162  H51   1.111873 S    
C235  H223  1.110226 S    
O55   C91   1.348166 S    
C29   C37   1.415125 A    
C228  H206  1.110961 S    
C182  H99   1.115361 S    
C9    O93   1.384054 S    
C150  H16   1.110259 S    
C157  H39   1.109788 S    
C136  C152  1.519338 S    
C248  H253  1.113218 S    
C73   C88   1.195347 T    
C91   N3    1.366069 A    
Zn4   O17   1.887418 S    
O61   C97   1.348649 S    
C74   C87   1.195366 T    
C92   N4    1.365465 A    
O49   C55   1.258771 A    
C99   C119  1.415795 A    
O87   C215  1.414733 S    
Zn13  O4    1.944888 S    
C201  H142  1.111626 S    
C78   C83   1.195379 T    
C138  C141  1.413439 A    
C97   C117  1.415120 A    
Zn15  O2    1.945271 S    
C200  H141  1.117770 S    
Zn16  O5    1.887304 S    
C154  H29   1.110619 S    
C243  H241  1.110777 S    
C129  C145  1.519943 S    
O44   C62   1.258832 A    
C180  H94   1.110755 S    
C190  H116  1.110940 S    
C112  C136  1.420771 A    
C24   O76   1.382393 S    
O89   C221  1.412676 S    
O37   C59   1.258441 A    
C22   O74   1.387524 S    
Zn8   O13   1.887304 S    
C159  H44   1.110287 S    
C184  H104  1.110952 S    
C236  C237  1.527530 S    
C94   C106  1.418027 A    
C166  H62   1.110958 S    
C244  H243  1.110459 S    
C178  H89   1.110404 S    
O21   C49   1.258493 A    
C11   O95   1.383602 S    
C188  H113  1.117053 S    
C100  C120  1.416699 A    
C196  H131  1.110321 S    
C204  C205  1.525475 S    
C233  H218  1.115261 S    
C148  H11   1.110245 S    
C93   N1    1.364284 A    
C247  H249  1.110873 S    
C108  C132  1.424692 A    
C101  C113  1.415647 A    
C239  H231  1.110013 S    
C96   N4    1.365161 A    
C194  H126  1.112115 S    
C151  H20   1.110088 S    
C131  C136  1.414021 A    
C164  C165  1.528746 S    
C209  C210  1.527764 S    
O58   C94   1.348257 S    
C208  H158  1.110855 S    
O65   C101  1.348654 S    
C140  C143  1.414346 A    
C110  C122  1.419084 A    
C202  H144  1.110830 S    
C146  H5    1.110530 S    
C7    O91   1.385664 S    
C219  H185  1.110769 S    
Zn8   O41   1.924825 S    
O88   C218  1.420250 S    
Zn11  O22   1.924834 S    
C192  H121  1.112073 S    
C162  C163  1.526602 S    
C25   O77   1.388203 S    
C154  H28   1.110174 S    
C192  C193  1.525692 S    
C214  H173  1.107144 S    
C223  H195  1.111037 S    
C209  H162  1.113995 S    
C230  H211  1.114727 S    
Zn14  O36   1.925024 S    
C221  H190  1.112988 S    
C132  C148  1.519649 S    
C223  H194  1.110395 S    
Zn6   O39   1.922428 S    
C145  H2    1.110180 S    
C12   O96   1.391040 S    
O27   C55   1.258619 A    
C160  H48   1.110380 S    
C10   C70   1.417537 A    
C219  C220  1.526713 S    
C30   C38   1.410796 A    
C251  H259  1.110927 S    
C13   C69   1.408843 A    
C193  H123  1.108645 S    
C152  H22   1.110623 S    
C172  H76   1.111015 S    
O60   C96   1.347632 S    
Zn8   O4    1.945270 S    
C161  H49   1.108954 S    
C183  H101  1.111665 S    
C103  N7    1.365244 A    
C64   C79   1.419327 S    
C1    C65   1.408471 A    
C101  N5    1.366512 A    
C221  C222  1.528268 S    
C168  C169  1.526025 S    
C197  H134  1.116456 S    
C229  H207  1.107720 S    
C21   O73   1.387463 S    
C256  H270  1.108135 S    
C115  C127  1.418914 A    
C118  C126  1.420176 A    
C246  H247  1.111155 S    
C5    O89   1.385302 S    
C249  H255  1.110642 S    
C212  H168  1.110863 S    
C189  H115  1.110101 S    
C153  H26   1.110358 S    
C39   N4    1.448409 S    
O47   C49   1.258626 A    
C211  H165  1.110902 S    
C238  H228  1.110864 S    
O34   C62   1.258522 A    
C40   N3    1.449974 S    
C115  C139  1.421816 A    
C234  H219  1.111669 S    
C224  C225  1.543811 S    
C195  H129  1.110624 S    
C27   O79   1.386364 S    
C89   N1    1.364092 A    
O74   C176  1.417465 S    
C210  H164  1.110928 S    
C181  H96   1.110370 S    
C199  H138  1.110674 S    
Zn3   O38   1.924834 S    
C177  C178  1.526379 S    
O67   C103  1.348211 S    
C212  C213  1.539118 S    
C117  C141  1.420447 A    
C8    C24   1.400502 A    
C197  C198  1.529897 S    
O40   C58   1.258714 A    
C240  H233  1.111659 S    
O28   C56   1.258749 A    
C174  H80   1.111312 S    
C236  H224  1.110583 S    
C12   C72   1.413408 A    
Zn6   O52   1.925024 S    
C2    O86   1.394624 S    
O31   C59   1.258695 A    
O73   C173  1.415775 S    
C145  H1    1.109467 S    
Zn1   O1    1.944756 S    
C7    C23   1.402124 A    
O59   C95   1.347875 S    
O18   C46   1.279349 A    
C195  C196  1.526172 S    
