data_mof_unit_29893.cif
_audit_creation_date              2012-12-10T18:13:30-0500
_audit_creation_method            fapswitch 2.2
_symmetry_space_group_name_H-M    P1
_symmetry_Int_Tables_number       1
_space_group_crystal_system       triclinic
_cell_length_a                    12.595735
_cell_length_b                    13.12676
_cell_length_c                    16.903282
_cell_angle_alpha                 91.13879
_cell_angle_beta                  97.848984
_cell_angle_gamma                 97.356044
_cell_volume                      2743.852929

loop_
_atom_site_label
_atom_site_type_symbol
_atom_type_description
_atom_site_fract_x
_atom_site_fract_y
_atom_site_fract_z
_atom_type_partial_charge
C1    C     C_R   0.560416 0.691273 0.506249 0.852887
C2    C     C_R   0.623672 0.493382 0.239364 -0.190818
C3    C     C_R   0.592494 0.609619 0.857121 -0.136007
C4    C     C_R   0.588938 0.578848 0.777987 -0.200168
C5    C     C_R   0.394337 0.530951 0.767368 -0.202251
C6    C     C_R   0.398317 0.560323 0.847211 -0.156367
C7    C     C_R   0.498011 0.595732 0.892523 0.195259
C8    C     C_2   0.554369 0.522517 0.019725 -0.033107
C9    C     C_2   0.506157 0.595073 0.978870 -0.315074
C10   C     C_R   0.490401 0.536422 0.733580 -0.021567
C11   C     C_R   0.308511 0.065187 0.380522 0.013000
C12   C     C_R   0.513633 0.497147 0.349595 0.850267
C13   C     C_R   0.406065 0.200175 0.471837 -0.075830
C14   C     C_R   0.693108 0.838215 0.561855 -0.190812
C15   C     C_R   0.719896 0.943076 0.578043 -0.144504
C16   C     C_R   0.649653 0.010451 0.546805 -0.186978
C17   C     C_R   0.553045 0.973625 0.495302 0.098624
C18   C     C_R   0.535898 0.869749 0.469213 0.096712
C19   C     C_R   0.472840 0.036249 0.468974 0.070663
C20   C     C_R   0.386420 0.000133 0.407467 0.120107
C21   C     C_R   0.381537 0.901018 0.373873 -0.243366
C22   C     C_R   0.455300 0.836924 0.404253 -0.208495
C23   C     C_R   0.440059 0.308707 0.490015 0.875663
C24   C     C_R   0.475571 0.133452 0.503847 -0.252408
C25   C     C_R   0.320293 0.165886 0.411948 -0.235274
C26   C     C_R   0.599317 0.800888 0.509545 -0.115610
C27   C     C_R   0.900895 0.348355 0.610189 -0.305110
C28   C     C_R   0.209110 0.627062 0.405004 0.024622
C29   C     C_R   0.106560 0.655193 0.385598 -0.244827
C30   C     C_R   0.021753 0.607395 0.421897 -0.193410
C31   C     C_R   0.039522 0.530438 0.477815 0.015589
C32   C     C_R   0.145724 0.504685 0.495471 0.235216
C33   C     C_R   0.956669 0.478017 0.516550 -0.012831
C34   C     C_R   0.488115 0.507533 0.650236 0.850751
C35   C     C_R   0.981513 0.401115 0.571669 0.195422
C36   C     C_R   0.086405 0.377245 0.587604 -0.290593
C37   C     C_R   0.167165 0.428252 0.549861 -0.211877
C38   C     C_R   0.849296 0.498275 0.502815 -0.054672
C39   C     C_R   0.796394 0.372009 0.593801 0.013642
C40   C     C_R   0.522824 0.498089 0.264904 -0.032513
C41   C     C_R   0.431640 0.506319 0.209122 -0.202317
C42   C     C_R   0.441717 0.512486 0.128823 -0.168297
C43   C     C_R   0.543191 0.511385 0.103750 0.150254
C44   C     C_R   0.633702 0.499862 0.158949 -0.163693
H1    H     H_    0.352844 0.508779 0.227417 0.157943
H2    H     H_    0.325237 0.548974 0.874915 0.132643
H3    H     H_    0.266102 0.218669 0.387144 0.165793
H4    H     H_    0.319821 0.871639 0.324929 0.152624
H5    H     H_    0.534474 0.161302 0.554608 0.144084
H6    H     H_    0.743897 0.786190 0.592119 0.157470
H7    H     H_    0.674350 0.090914 0.562312 0.131409
H8    H     H_    0.793002 0.971939 0.617667 0.142815
H9    H     H_    0.449583 0.761536 0.375743 0.153839
H10   H     H_    0.732545 0.331917 0.622651 0.130629
H11   H     H_    0.663289 0.587427 0.751798 0.156994
H12   H     H_    0.106188 0.318571 0.629346 0.155068
H13   H     H_    0.918487 0.289436 0.652222 0.142837
H14   H     H_    0.822387 0.554801 0.462194 0.125611
H15   H     H_    0.275179 0.663306 0.376647 0.128916
H16   H     H_    0.943784 0.632019 0.404749 0.138208
H17   H     H_    0.092822 0.713750 0.342547 0.155279
H18   H     H_    0.245710 0.405770 0.564207 0.213581
H19   H     H_    0.317340 0.500762 0.732970 0.152609
H20   H     H_    0.460687 0.645978 0.008133 0.156624
H21   H     H_    0.712294 0.498372 0.140021 0.135772
H22   H     H_    0.669707 0.637204 0.892333 0.137829
H23   H     H_    0.695211 0.486764 0.281465 0.158345
H24   H     H_    0.370446 0.518526 0.086264 0.133009
N1    N     N_R   0.774070 0.445420 0.541180 -0.102445
N2    N     N_R   0.226730 0.554050 0.459240 -0.129538
O1    O     O_R   0.631480 0.627510 0.519670 -0.619050
O2    O     O_R   0.455770 0.662400 0.493360 -0.607143
O3    O     O_R   0.598240 0.480510 0.398910 -0.617193
O4    O     O_R   0.422540 0.515400 0.372600 -0.631202
O5    O     O_R   0.544230 0.337600 0.506640 -0.608458
O6    O     O_R   0.368520 0.372490 0.480330 -0.636943
O7    O     O_R   0.577460 0.484600 0.627400 -0.619275
O8    O     O_R   0.401760 0.519490 0.601090 -0.630555
Zn1   Zn    Zn3+2 0.617320 0.476700 0.517570 0.939586
Zn2   Zn    Zn3+2 0.382680 0.523300 0.482430 0.931635
C45   C     C_1   0.218799 0.032484 0.318676 0.133767
N3    N     N_1   0.146930 0.006311 0.269189 -0.209452
C46   C     C_1   0.610816 0.449286 0.981975 0.188530
N4    N     N_1   0.655753 0.390898 0.951955 -0.212095

loop_
_geom_bond_atom_site_label_1
_geom_bond_atom_site_label_2
_ccdc_geom_bond_type
C12   O4    A    
C8    C46   S    
C41   C42   A    
C35   C36   A    
C18   C26   A    
C16   H7    S    
C23   O6    A    
O1    Zn1   S    
C37   H18   S    
C11   C45   S    
C13   C23   S    
C1    O1    A    
C46   N4    T    
C5    C6    A    
C36   C37   A    
C3    C7    A    
C34   O7    A    
C30   C31   A    
O8    Zn2   S    
C39   H10   S    
C11   C25   A    
C15   C16   A    
C9    H20   S    
C5    H19   S    
C17   C19   A    
C38   H14   S    
C19   C20   A    
C2    C44   A    
C16   C17   A    
C30   H16   S    
C8    C43   S    
C25   H3    S    
C21   H4    S    
C38   N1    A    
O4    Zn2   S    
C21   C22   A    
C42   H24   S    
C13   C25   A    
C44   H21   S    
C45   N3    T    
C22   H9    S    
O7    Zn1   S    
O3    Zn1   S    
C29   H17   S    
C11   C20   A    
C1    O2    A    
N2    Zn2   S    
C2    H23   S    
C27   H13   S    
C27   C39   A    
C8    C9    D    
C32   N2    A    
C27   C35   A    
C32   C37   A    
C13   C24   A    
C12   C40   S    
C43   C44   A    
C29   C30   A    
C36   H12   S    
C31   C32   A    
C31   C33   A    
C17   C18   A    
C39   N1    A    
C10   C34   S    
C15   H8    S    
C14   C26   A    
C40   C41   A    
C4    H11   S    
C1    C26   S    
N1    Zn1   S    
C3    H22   S    
C42   C43   A    
C4    C10   A    
C3    C4    A    
C28   H15   S    
C24   H5    S    
C7    C9    S    
C28   C29   A    
C6    H2    S    
C18   C22   A    
C28   N2    A    
O6    Zn2   S    
C23   O5    A    
C6    C7    A    
C33   C38   A    
C19   C24   A    
C5    C10   A    
O2    Zn2   S    
C34   O8    A    
C14   H6    S    
C33   C35   A    
C2    C40   A    
C20   C21   A    
C41   H1    S    
C14   C15   A    
C12   O3    A    
O5    Zn1   S    
