data_mof_unit_45259.cif
_audit_creation_date              2012-12-11T16:30:33-0500
_audit_creation_method            fapswitch 2.2
_symmetry_space_group_name_H-M    P1
_symmetry_Int_Tables_number       1
_space_group_crystal_system       triclinic
_cell_length_a                    6.931959
_cell_length_b                    14.416563
_cell_length_c                    16.055949
_cell_angle_alpha                 90.000543
_cell_angle_beta                  89.918272
_cell_angle_gamma                 89.999809
_cell_volume                      1604.55001037

loop_
_atom_site_label
_atom_site_type_symbol
_atom_type_description
_atom_site_fract_x
_atom_site_fract_y
_atom_site_fract_z
_atom_type_partial_charge
O1    O     O_R   0.611670 0.415650 0.164070 -0.539285
O2    O     O_R   0.388330 0.915650 0.835930 -0.539239
O3    O     O_R   0.940950 0.405490 0.337780 -0.543528
O4    O     O_R   0.059050 0.905490 0.662220 -0.543507
O5    O     O_R   0.111350 0.584350 0.338470 -0.538538
O6    O     O_R   0.888650 0.084350 0.661530 -0.538521
C1    C     C_R   0.771788 0.383840 0.367641 0.648477
C2    C     C_R   0.228206 0.883871 0.632335 0.648434
O7    O     O_R   0.941380 0.404630 0.164680 -0.543874
O8    O     O_R   0.058620 0.904630 0.835320 -0.543844
O9    O     O_R   0.111780 0.583470 0.164130 -0.537120
O10   O     O_R   0.888220 0.083470 0.835870 -0.537074
C3    C     C_R   0.773004 0.383258 0.135512 0.694693
C4    C     C_R   0.227004 0.883255 0.864487 0.694796
O11   O     O_R   0.611240 0.416530 0.338400 -0.540462
O12   O     O_R   0.388760 0.916530 0.661600 -0.540491
O13   O     O_3   0.778020 0.558680 0.251290 -0.359045
O14   O     O_3   0.221980 0.058680 0.748710 -0.359032
V1    V     V_3+5 0.052840 0.489110 0.251260 1.395291
V2    V     V_3+5 0.947160 0.989110 0.748740 1.395450
O15   O     O_R   0.441500 0.594510 0.164760 -0.536451
O16   O     O_R   0.558500 0.094510 0.835240 -0.536477
C5    C     C_R   0.273220 0.613078 0.133426 0.719061
C6    C     C_R   0.726769 0.113088 0.866571 0.719024
O17   O     O_R   0.441080 0.595370 0.337860 -0.540131
O18   O     O_R   0.558920 0.095370 0.662140 -0.540122
C7    C     C_R   0.272183 0.619679 0.365530 0.649002
C8    C     C_R   0.727813 0.119662 0.634450 0.648955
V3    V     V_3+5 0.552850 0.510890 0.251270 1.415495
V4    V     V_3+5 0.447150 0.010890 0.748730 1.415485
O19   O     O_3   0.277800 0.441320 0.251250 -0.367260
O20   O     O_3   0.722200 0.941320 0.748750 -0.367270
C9    C     C_3   0.195848 0.644690 0.517294 -0.341405
C10   C     C_3   0.804633 0.144703 0.482725 -0.341483
H1    H     H_    0.051510 0.612403 0.508256 0.138809
H2    H     H_    0.948998 0.112509 0.491885 0.138801
H3    H     H_    0.297401 0.587890 0.534052 0.124555
H4    H     H_    0.703320 0.087847 0.465882 0.124635
C11   C     C_3   0.184660 0.715608 0.590062 -0.333565
C12   C     C_3   0.815978 0.215628 0.409965 -0.333604
H5    H     H_    0.285195 0.693472 0.640038 0.127336
H6    H     H_    0.715928 0.193370 0.359838 0.127421
H7    H     H_    0.036305 0.715973 0.616627 0.138804
H8    H     H_    0.964515 0.216150 0.383593 0.138760
H9    H     H_    0.969707 0.739600 0.405646 0.159826
H10   H     H_    0.029993 0.239837 0.594464 0.160039
H11   H     H_    0.952920 0.846359 0.510642 0.143133
H12   H     H_    0.046629 0.346701 0.489565 0.143162
C13   C     C_3   0.115167 0.770245 0.415480 -0.303437
C14   C     C_3   0.884440 0.270342 0.584571 -0.303412
C15   C     C_3   0.464449 0.738031 0.452553 -0.121179
C16   C     C_3   0.535447 0.237817 0.547262 -0.121124
C17   C     C_3   0.263129 0.692028 0.435262 0.063346
C18   C     C_3   0.736861 0.191993 0.564702 0.063302
H13   H     H_    0.567904 0.682830 0.471405 0.094324
H14   H     H_    0.432237 0.182523 0.528409 0.094257
C19   C     C_3   0.240752 0.814354 0.560525 0.101775
C20   C     C_3   0.759234 0.314307 0.439434 0.101777
C21   C     C_3   0.104360 0.841972 0.487822 -0.321429
C22   C     C_3   0.895122 0.342094 0.512254 -0.321528
C23   C     C_3   0.449683 0.809283 0.524970 -0.336585
C24   C     C_3   0.550161 0.308991 0.474793 -0.336471
H15   H     H_    0.551586 0.788165 0.575065 0.134175
H16   H     H_    0.448663 0.287671 0.424614 0.134148
H17   H     H_    0.495007 0.879944 0.504590 0.128423
H18   H     H_    0.504279 0.379607 0.495062 0.128484
H19   H     H_    0.155058 0.806179 0.356759 0.129896
H20   H     H_    0.844263 0.306232 0.643278 0.129901
H21   H     H_    0.144359 0.911913 0.464066 0.120703
H22   H     H_    0.854570 0.411963 0.535993 0.120768
H23   H     H_    0.208883 0.576203 0.742161 0.127968
H24   H     H_    0.795435 0.076223 0.257627 0.127922
C25   C     C_R   0.235617 0.937696 0.036890 -0.149301
C26   C     C_R   0.763621 0.437740 0.963111 -0.149220
C27   C     C_R   0.244797 0.966978 0.119380 -0.100449
C28   C     C_R   0.754379 0.467019 0.880621 -0.100221
C29   C     C_R   0.260294 0.902278 0.183016 -0.115545
C30   C     C_R   0.738836 0.402309 0.816994 -0.115727
C31   C     C_R   0.266574 0.807859 0.164551 -0.107704
C32   C     C_R   0.732679 0.307884 0.835462 -0.107940
C33   C     C_R   0.258383 0.775708 0.081130 0.058587
C34   C     C_R   0.741164 0.275732 0.918873 0.058618
C35   C     C_R   0.243759 0.842262 0.016189 0.051703
C36   C     C_R   0.755777 0.342291 0.983813 0.051696
C37   C     C_R   0.263360 0.679171 0.062485 -0.177750
C38   C     C_R   0.736547 0.179191 0.937512 -0.177807
C39   C     C_R   0.252401 0.648254 0.977288 0.040128
C40   C     C_R   0.748040 0.148283 0.022690 0.040283
C41   C     C_R   0.236536 0.717044 0.912997 0.053372
C42   C     C_R   0.764366 0.217066 0.086958 0.053449
C43   C     C_R   0.235765 0.813047 0.932360 -0.170962
C44   C     C_R   0.764308 0.313065 0.067628 -0.171035
C45   C     C_R   0.256945 0.551999 0.951834 0.125582
C46   C     C_R   0.743627 0.052041 0.048142 0.125556
C47   C     C_R   0.241463 0.528790 0.867172 -0.073747
C48   C     C_R   0.760460 0.028819 0.132735 -0.073633
C49   C     C_R   0.222327 0.596248 0.806850 -0.195052
C50   C     C_R   0.780674 0.096264 0.193001 -0.195231
C51   C     C_R   0.220832 0.688934 0.828977 -0.152558
C52   C     C_R   0.781486 0.188950 0.170908 -0.152793
H25   H     H_    0.222243 0.990804 0.989613 0.103319
H26   H     H_    0.776941 0.490856 0.010385 0.103271
H27   H     H_    0.239272 0.040256 0.133956 0.128763
H28   H     H_    0.759812 0.540305 0.866040 0.128642
H29   H     H_    0.267057 0.925356 0.247098 0.120328
H30   H     H_    0.731931 0.425387 0.752915 0.120369
H31   H     H_    0.277886 0.760583 0.216562 0.101642
H32   H     H_    0.721298 0.260604 0.783457 0.101752
H33   H     H_    0.243292 0.457043 0.846989 0.145560
H34   H     H_    0.758992 0.957073 0.152894 0.145544
H35   H     H_    0.205888 0.738619 0.779032 0.100549
H36   H     H_    0.797132 0.238624 0.220819 0.100810
C53   C     C_3   0.278914 0.470593 0.009927 -0.748942
H37   H     H_    0.288536 0.403276 0.976434 0.201377
H38   H     H_    0.413924 0.477273 0.045644 0.213954
H39   H     H_    0.151802 0.465515 0.051007 0.218207
C54   C     C_3   0.720203 0.970698 0.990128 -0.749242
H40   H     H_    0.710102 0.903443 0.023667 0.201511
H41   H     H_    0.584984 0.977749 0.954657 0.213890
H42   H     H_    0.846799 0.965268 0.948820 0.218249
C55   C     C_1   0.546590 0.783183 0.377755 0.267200
N1    N     N_1   0.611721 0.818499 0.319413 -0.390119
C56   C     C_1   0.452977 0.282995 0.621975 0.267285
N2    N     N_1   0.387605 0.318333 0.680260 -0.390338

loop_
_geom_bond_atom_site_label_1
_geom_bond_atom_site_label_2
_ccdc_geom_bond_type
C28   H28   S    
C20   C24   S    
O13   V3    S    
C15   C23   S    
O4    C2    A    
V1    O19   S    
C56   N2    T    
C11   H5    S    
H24   C50   S    
H23   C49   S    
O9    V1    S    
C9    C11   S    
C26   C28   A    
C41   C51   A    
C10   C12   S    
C28   C30   A    
O3    C1    A    
C54   H41   S    
C46   C54   S    
C30   C32   A    
C19   C21   S    
C20   C22   S    
C11   C19   S    
O17   V3    S    
C6    C38   S    
O10   C6    A    
C23   H15   S    
O7    C3    A    
C24   H16   S    
C14   H20   S    
C33   C35   A    
O5    C7    A    
O7    V1    S    
O6    C8    A    
O8    V2    S    
C48   C50   A    
O3    V1    S    
O14   V4    S    
H9    C13   S    
C41   C43   A    
C13   H19   S    
C1    C20   S    
O14   V2    S    
C26   H26   S    
H12   C22   S    
C29   C31   A    
C45   C47   A    
C7    C17   S    
C27   H27   S    
C25   C27   A    
C42   C52   A    
C49   C51   A    
C16   C18   S    
O11   V3    S    
C37   C39   A    
C9    C17   S    
C40   C46   A    
C12   C20   S    
C24   H18   S    
C38   C40   A    
C32   C34   A    
C47   H33   S    
C54   H42   S    
C31   C33   A    
C8    C18   S    
O13   V1    S    
C11   H7    S    
C1    O11   A    
C34   C38   A    
C48   H34   S    
C9    H3    S    
C15   C17   S    
C2    C19   S    
C42   C44   A    
C22   H22   S    
C51   H35   S    
O10   V2    S    
O1    V3    S    
C31   H31   S    
C16   C56   S    
C14   C18   S    
C46   C48   A    
C27   C29   A    
C55   N1    T    
C21   H21   S    
C40   C42   A    
C52   H36   S    
C34   C36   A    
O15   C5    A    
C3    C44   S    
O8    C4    A    
C15   C55   S    
O16   C6    A    
O1    C3    A    
O6    V2    S    
C53   H37   S    
V2    O20   S    
C32   H32   S    
C25   H25   S    
O16   V4    S    
C10   H4    S    
C26   C36   A    
C12   H6    S    
C47   C49   A    
C19   C23   S    
O5    V1    S    
O17   C7    A    
C35   C43   A    
H10   C14   S    
O18   C8    A    
C13   C21   S    
O2    V4    S    
C30   H30   S    
C14   C22   S    
C53   H39   S    
C29   H29   S    
V3    O19   S    
C16   C24   S    
C54   H40   S    
V4    O20   S    
C10   C18   S    
O15   V3    S    
C13   C17   S    
C39   C45   A    
O9    C5    A    
C9    H1    S    
C10   H2    S    
C45   C53   S    
C15   H13   S    
O2    C4    A    
C50   C52   A    
C4    C43   S    
H11   C21   S    
O4    V2    S    
C23   H17   S    
C12   H8    S    
C2    O12   A    
C5    C37   S    
C39   C41   A    
C36   C44   A    
O12   V4    S    
C25   C35   A    
C33   C37   A    
C16   H14   S    
C53   H38   S    
O18   V4    S    
