data_mof_unit_17369.cif
_audit_creation_date              2013-03-05T15:45:11-0500
_audit_creation_method            fapswitch 2.2
_symmetry_space_group_name_H-M    P1
_symmetry_Int_Tables_number       1
_space_group_crystal_system       triclinic
_cell_length_a                    11.56429
_cell_length_b                    11.498098
_cell_length_c                    19.560943
_cell_angle_alpha                 90.578971
_cell_angle_beta                  89.972676
_cell_angle_gamma                 59.996399
_cell_volume                      2252.26044999

loop_
_atom_site_label
_atom_site_type_symbol
_atom_site_description
_atom_site_fract_x
_atom_site_fract_y
_atom_site_fract_z
_atom_type_partial_charge
O1    O     O_R   0.267740 0.231990 0.575440 -0.499858
O2    O     O_R   0.527280 0.186680 0.570530 -0.493486
C1    C     C_R   0.640216 0.117694 0.599260 0.547346
O3    O     O_R   0.728090 0.003480 0.576380 -0.498092
O4    O     O_R   0.682970 0.789220 0.570490 -0.490600
C2    C     C_R   0.612140 0.746321 0.598680 0.547628
O5    O     O_R   0.499290 0.771920 0.575530 -0.499434
O6    O     O_R   0.285330 0.030900 0.569730 -0.488408
C3    C     C_R   0.240702 0.145536 0.598174 0.551438
O7    O     O_R   0.270980 0.227040 0.423900 -0.453498
O8    O     O_R   0.530280 0.182090 0.430050 -0.461563
C4    C     C_R   0.644661 0.108632 0.400717 0.531644
O9    O     O_R   0.731330 0.998530 0.424830 -0.527748
O10   O     O_R   0.685970 0.784630 0.430010 -0.525884
C5    C     C_R   0.615966 0.739902 0.402319 0.531127
O11   O     O_R   0.502530 0.766960 0.423990 -0.507414
O12   O     O_R   0.288330 0.026310 0.429250 -0.507885
C6    C     C_R   0.295317 0.119151 0.393371 0.549677
Cr1   Cr    Cr6+3 0.404720 0.198220 0.499960 1.085959
Cr2   Cr    Cr6+3 0.698290 0.897110 0.500380 1.036040
Cr3   Cr    Cr6+3 0.396970 0.904720 0.499610 1.050266
O13   O     O_3   0.499990 0.000020 0.499980 -0.286853
C7    C     C_1   0.670688 0.646421 0.860072 0.006238
C8    C     C_1   0.654458 0.683902 0.728418 -0.029322
C9    C     C_1   0.663524 0.666713 0.799657 -0.029168
C10   C     C_1   0.640742 0.704225 0.668021 0.005912
C11   C     C_1   0.126870 0.198430 0.859267 0.005602
C12   C     C_1   0.171394 0.170390 0.727691 -0.029196
C13   C     C_1   0.150204 0.182059 0.798906 -0.028875
C14   C     C_1   0.195073 0.161224 0.667369 0.004497
C15   C     C_1   0.679129 0.190829 0.860762 0.007060
C16   C     C_1   0.658225 0.167583 0.729053 -0.029128
C17   C     C_1   0.665922 0.180714 0.800349 -0.028696
C18   C     C_1   0.652386 0.150316 0.668655 0.005508
C19   C     C_R   0.528614 0.766057 0.288264 -0.083394
H1    H     H_    0.429497 0.829007 0.308271 0.140125
C20   C     C_R   0.544431 0.747730 0.218937 -0.092666
H2    H     H_    0.457461 0.792656 0.186220 0.140138
C21   C     C_R   0.671193 0.663289 0.192886 0.065522
C22   C     C_R   0.783757 0.603739 0.235779 -0.072847
H3    H     H_    0.882913 0.535966 0.215815 0.154728
C23   C     C_R   0.767498 0.624135 0.305620 -0.154823
H4    H     H_    0.853417 0.578276 0.338963 0.122473
C24   C     C_R   0.639139 0.703180 0.331671 0.029369
C25   C     C_R   0.240252 0.255909 0.284704 -0.007506
C26   C     C_R   0.204799 0.268929 0.216742 -0.159851
H5    H     H_    0.200104 0.351862 0.188355 0.164347
C27   C     C_R   0.161024 0.187972 0.186915 -0.000480
C28   C     C_R   0.166293 0.081198 0.223229 -0.135083
H6    H     H_    0.130224 0.018642 0.201057 0.171669
C29   C     C_R   0.210562 0.059582 0.290363 -0.166339
H7    H     H_    0.208817 0.979568 0.318198 0.160953
C30   C     C_R   0.249011 0.144827 0.322264 0.010277
C31   C     C_R   0.737119 0.025392 0.282342 -0.004380
C32   C     C_R   0.720339 0.050447 0.211837 -0.020263
C33   C     C_R   0.657659 0.184439 0.189894 -0.052439
C34   C     C_R   0.585007 0.291417 0.236785 0.184858
C35   C     C_R   0.594829 0.264630 0.306244 -0.098584
H8    H     H_    0.544239 0.346730 0.342553 0.207069
C36   C     C_R   0.665727 0.133626 0.329641 -0.063670
O14   O     O_R   0.821500 0.119550 0.952820 -0.507718
O15   O     O_R   0.037130 0.162750 0.957360 -0.495339
C37   C     C_R   0.082050 0.230984 0.928582 0.543261
O16   O     O_R   0.056440 0.344950 0.951330 -0.500533
O17   O     O_R   0.797900 0.560570 0.957460 -0.494907
C38   C     C_R   0.684060 0.604410 0.929435 0.536419
O18   O     O_R   0.596140 0.579600 0.952720 -0.505847
O19   O     O_R   0.639070 0.321380 0.958660 -0.495054
C39   C     C_R   0.708611 0.206602 0.930088 0.536135
O20   O     O_R   0.821240 0.124490 0.104360 -0.516306
O21   O     O_R   0.036900 0.167320 0.097830 -0.499023
C40   C     C_R   0.086317 0.234077 0.123888 0.543062
O22   O     O_R   0.056190 0.349890 0.102870 -0.514213
O23   O     O_R   0.797670 0.565150 0.097930 -0.495472
C41   C     C_R   0.683795 0.612065 0.125040 0.544575
O24   O     O_R   0.595880 0.584540 0.104260 -0.474473
O25   O     O_R   0.638830 0.325960 0.099140 -0.439506
C42   C     C_R   0.704551 0.210666 0.125453 0.529855
Cr4   Cr    Cr6+3 0.926180 0.152240 0.028110 1.051298
Cr5   Cr    Cr6+3 0.921340 0.452070 0.027460 1.064701
Cr6   Cr    Cr6+3 0.626260 0.447120 0.028700 1.098891
O26   O     O_3   0.824590 0.350480 0.028090 -0.272829
C43   C     C_2   0.760379 0.940641 0.159294 0.264759
H9    H     H_    0.723350 0.966233 0.107454 0.106788
O27   O     O_2   0.832393 0.822148 0.172319 -0.484182
N1    N     N_R   0.496328 0.426313 0.214829 0.102681
O28   O     O_R   0.410514 0.447350 0.166731 -0.324091
O29   O     O_R   0.478561 0.527322 0.252968 -0.339878
C44   C     C_2   0.245254 0.374801 0.312295 0.270450
H10   H     H_    0.177223 0.473477 0.291955 0.142500
O30   O     O_2   0.327004 0.366307 0.353865 -0.475505
C45   C     C_2   0.835342 0.888773 0.305374 0.330883
H11   H     H_    0.803945 0.831182 0.335233 0.134357
O31   O     O_2   0.953521 0.840416 0.291135 -0.455773

loop_
_geom_bond_atom_site_label_1
_geom_bond_atom_site_label_2
_geom_bond_distance
_ccdc_geom_bond_type
C32   C33   1.407147 A    
O11   Cr3   2.050437 S    
O20   C42   1.275520 A    
C19   H1    1.074702 S    
O21   Cr4   1.936057 S    
Cr6   O26   1.986480 S    
O4    Cr2   1.924847 S    
C31   C36   1.426467 A    
O25   C42   1.267461 A    
C33   C34   1.415307 A    
O8    Cr1   1.932992 S    
C20   H2    1.084260 S    
O19   Cr6   1.932565 S    
C7    C38   1.427202 S    
C12   C13   1.407692 S    
C19   C20   1.368329 A    
C8    C10   1.201759 T    
C5    C24   1.426368 S    
O4    C2    1.275713 A    
N1    O29   1.300524 A    
C11   C13   1.202803 T    
C35   C36   1.389164 A    
C5    O11   1.259355 A    
C33   C42   1.464411 S    
C34   N1    1.437002 S    
C28   H6    1.083218 S    
C6    C30   1.469508 S    
C26   H5    1.086068 S    
O19   C39   1.274361 A    
C28   C29   1.388645 A    
C15   C17   1.203525 T    
C21   C41   1.423933 S    
C44   O30   1.214284 D    
C25   C44   1.492511 S    
C22   C23   1.380550 A    
C38   O18   1.270771 A    
O2    Cr1   1.936344 S    
C25   C30   1.439105 A    
O17   Cr5   1.929853 S    
O23   Cr5   1.933449 S    
Cr3   O13   1.981293 S    
O16   Cr5   2.052260 S    
C23   C24   1.389163 A    
C27   C40   1.450359 S    
O6    Cr3   1.933346 S    
O7    C6    1.269027 A    
C26   C27   1.386987 A    
O1    Cr1   2.052081 S    
O23   C41   1.260749 A    
C29   H7    1.082573 S    
O10   Cr2   1.932923 S    
O15   Cr4   1.932066 S    
Cr1   O13   1.973900 S    
O1    C3    1.266228 A    
C8    C9    1.406018 S    
Cr5   O26   1.980843 S    
C21   C22   1.410155 A    
N1    O28   1.301511 A    
O6    C3    1.271951 A    
C1    C18   1.430320 S    
C35   H8    1.082388 S    
O5    Cr3   2.043925 S    
O12   Cr3   1.926418 S    
C29   C30   1.404130 A    
O3    Cr2   2.051819 S    
C41   O24   1.272250 A    
C31   C45   1.480234 S    
O15   C37   1.272203 A    
C43   H9    1.085655 S    
O25   Cr6   1.922725 S    
O7    Cr1   2.053038 S    
C45   O31   1.221081 D    
O12   C6    1.319089 A    
C19   C24   1.402347 A    
C11   C37   1.429053 S    
C3    C14   1.429045 S    
C27   C28   1.399434 A    
C43   O27   1.219497 D    
Cr2   O13   1.986299 S    
O18   Cr6   2.041122 S    
C23   H4    1.083628 S    
C32   C43   1.501150 S    
C1    O3    1.269093 A    
O14   C39   1.267501 A    
C31   C32   1.405366 A    
C22   H3    1.083682 S    
O9    Cr2   2.041996 S    
O20   Cr4   2.048003 S    
C40   O22   1.269194 A    
O24   Cr6   2.049815 S    
Cr4   O26   1.974246 S    
O8    C4    1.290112 A    
C2    O5    1.270390 A    
C16   C17   1.408892 S    
C12   C14   1.202800 T    
O2    C1    1.274498 A    
O21   C40   1.267535 A    
C20   C21   1.384591 A    
C34   C35   1.388315 A    
C2    C10   1.427237 S    
O14   Cr4   2.054573 S    
C45   H11   1.076808 S    
O22   Cr5   2.047670 S    
C7    C9    1.201749 T    
C37   O16   1.266015 A    
C4    C36   1.467206 S    
C25   C26   1.378760 A    
C15   C39   1.430190 S    
C4    O9    1.254281 A    
O17   C38   1.276837 A    
O10   C5    1.274525 A    
C44   H10   1.086846 S    
C16   C18   1.203560 T    
