data_mof_unit_48113.cif
_audit_creation_date              2013-03-05T15:50:50-0500
_audit_creation_method            fapswitch 2.2
_symmetry_space_group_name_H-M    P1
_symmetry_Int_Tables_number       1
_space_group_crystal_system       triclinic
_cell_length_a                    9.604315
_cell_length_b                    10.868772
_cell_length_c                    15.433981
_cell_angle_alpha                 85.658168
_cell_angle_beta                  73.883272
_cell_angle_gamma                 91.115555
_cell_volume                      1541.96825971

loop_
_atom_site_label
_atom_site_type_symbol
_atom_site_description
_atom_site_fract_x
_atom_site_fract_y
_atom_site_fract_z
_atom_type_partial_charge
O1    O     O_R   0.118810 0.319640 0.500010 -0.572821
O2    O     O_R   0.881240 0.319660 0.500000 -0.585041
C1    C     C_R   0.002060 0.263752 0.493193 0.814957
O3    O     O_R   0.055570 0.499980 0.629840 -0.530744
O4    O     O_R   0.818000 0.500010 0.629830 -0.517331
C2    C     C_R   0.918025 0.503943 0.672301 0.909301
Cu1   Cu    Cu3+1 0.140660 0.499990 0.500010 1.079036
Cu2   Cu    Cu3+1 0.859340 0.500010 0.499990 1.068402
O5    O     O_R   0.118760 0.680340 0.500000 -0.536110
O6    O     O_R   0.881190 0.680360 0.499990 -0.556831
O7    O     O_R   0.182000 0.499990 0.370170 -0.533838
O8    O     O_R   0.944430 0.500020 0.370160 -0.572875
C3    C     C_R   0.000587 0.737784 0.503898 0.895859
C4    C     C_R   0.081605 0.493144 0.328385 0.902039
C5    C     C_R   0.874321 0.516012 0.771194 -0.299487
C6    C     C_R   0.126910 0.460314 0.234040 -0.246226
C7    C     C_R   0.923019 0.586372 0.906825 0.261669
C8    C     C_R   0.968837 0.572228 0.813523 0.184889
C9    C     C_R   0.735313 0.472817 0.823064 0.550040
C10   C     C_R   0.688424 0.482520 0.917488 -0.095511
C11   C     C_R   0.779528 0.548352 0.958641 -0.206771
C12   C     C_R   0.548721 0.435197 0.970890 0.115016
C13   C     C_R   0.487366 0.478995 0.056864 0.035460
C14   C     C_R   0.578975 0.543374 0.096389 -0.151646
C15   C     C_R   0.722297 0.576628 0.049591 0.379243
C16   C     C_R   0.471646 0.340298 0.943565 -0.045109
C17   C     C_R   0.332905 0.299892 0.994573 -0.113184
C18   C     C_R   0.264920 0.354285 0.073520 0.022936
C19   C     C_R   0.339108 0.448514 0.103655 -0.010935
C20   C     C_R   0.124621 0.312994 0.123794 -0.176947
C21   C     C_R   0.056480 0.362233 0.205316 0.271805
C22   C     C_R   0.262027 0.508225 0.179525 0.561001
H1    H     H_    0.278537 0.225495 0.971988 0.178308
H2    H     H_    0.543910 0.563967 0.166240 0.206198
H3    H     H_    0.520397 0.289553 0.886090 0.211499
H4    H     H_    0.069542 0.238905 0.101335 0.197746
H5    H     H_    0.771436 0.105687 0.532645 0.207222
C23   C     C_R   0.270615 0.135598 0.412743 -0.169525
H6    H     H_    0.273455 0.227013 0.379108 0.157568
C24   C     C_R   0.402480 0.083016 0.409918 -0.128933
H7    H     H_    0.503331 0.134819 0.377540 0.189251
C25   C     C_R   0.403660 0.966731 0.453469 0.663670
C26   C     C_R   0.274027 0.897197 0.490184 -0.105311
H8    H     H_    0.282340 0.810231 0.526249 0.209469
C27   C     C_R   0.139399 0.944438 0.485260 -0.028981
C28   C     C_R   0.138107 0.071468 0.459468 0.095131
C29   C     C_R   0.005129 0.131078 0.484217 -0.151346
C30   C     C_R   0.874452 0.061442 0.513993 -0.186956
C31   C     C_R   0.874226 0.933950 0.522043 0.642759
C32   C     C_R   0.005684 0.872966 0.506836 -0.218670
H9    H     H_    0.580847 0.358211 0.604065 0.182499
C33   C     C_R   0.708369 0.662295 0.376449 -0.100698
H10   H     H_    0.819919 0.668990 0.372563 0.227561
C34   C     C_R   0.671913 0.742519 0.313666 -0.243290
H11   H     H_    0.754023 0.803989 0.267374 0.246983
C35   C     C_R   0.531135 0.745135 0.310506 0.613599
C36   C     C_R   0.423984 0.669415 0.371500 0.535909
C37   C     C_R   0.455898 0.582154 0.437927 -0.089839
C38   C     C_R   0.605391 0.580605 0.438793 0.165165
N1    N     N_R   0.648320 0.501210 0.499140 -0.199015
C39   C     C_R   0.547145 0.422136 0.557280 -0.009817
C40   C     C_R   0.399370 0.421460 0.557532 0.431825
N2    N     N_R   0.352470 0.501290 0.499110 -0.234378
N3    N     N_R   0.802916 0.648642 0.094295 0.145888
O9    O     O_R   0.806315 0.768516 0.082017 -0.270319
O10   O     O_R   0.848869 0.596460 0.159219 -0.328743
F1    F     F_    0.530943 0.920521 0.459492 -0.627571
F2    F     F_    0.744035 0.870706 0.549626 -0.575235
F3    F     F_    0.312681 0.616969 0.199202 -0.589974
F4    F     F_    0.496205 0.825888 0.249076 -0.555477
F5    F     F_    0.292775 0.692926 0.362286 -0.581438
N4    N     N_R   0.300149 0.334138 0.619044 0.135560
O11   O     O_R   0.302506 0.218921 0.601480 -0.356166
O12   O     O_R   0.244455 0.360459 0.702039 -0.294700
N5    N     N_R   0.920789 0.306455 0.259993 0.130403
O13   O     O_R   0.906454 0.186896 0.275660 -0.352048
O14   O     O_R   0.805208 0.371075 0.278243 -0.316668
N6    N     N_R   0.024021 0.640822 0.947409 0.196327
O15   O     O_R   0.087784 0.570801 0.995556 -0.293833
O16   O     O_R   0.069767 0.755308 0.924258 -0.226863
N7    N     N_R   0.108106 0.624380 0.761158 0.184949
O17   O     O_R   0.115618 0.716416 0.700793 -0.349303
O18   O     O_R   0.225135 0.592583 0.782420 -0.225348
F6    F     F_    0.641205 0.432344 0.778986 -0.645291

loop_
_geom_bond_atom_site_label_1
_geom_bond_atom_site_label_2
_geom_bond_distance
_ccdc_geom_bond_type
C5    C8    1.411473 A    
C31   F2    1.357915 S    
C9    C10   1.413701 A    
H9    C39   1.082339 S    
N5    O13   1.301151 A    
N7    O17   1.301002 A    
Cu1   Cu2   2.701975 S    
C27   C28   1.408906 A    
C17   H1    1.084109 S    
C6    C21   1.414381 A    
C5    C9    1.403220 A    
C16   C17   1.389492 A    
O4    C2    1.306389 A    
C13   C19   1.425945 A    
C18   C19   1.414421 A    
C19   C22   1.411711 A    
C20   C21   1.398661 A    
O7    C4    1.304178 A    
N6    O16   1.301262 A    
C8    N7    1.436858 S    
C35   C36   1.390836 A    
O5    C3    1.294973 A    
C2    C5    1.483179 S    
C34   H11   1.083109 S    
C13   C14   1.405179 A    
C24   C25   1.387616 A    
C38   N1    1.373856 A    
O3    Cu1   1.942643 S    
N7    O18   1.301228 A    
C33   C34   1.376284 A    
C34   C35   1.367191 A    
C14   C15   1.391486 A    
O3    C2    1.304712 A    
N6    O15   1.300616 A    
C37   C38   1.439960 A    
C14   H2    1.078730 S    
N1    C39   1.361870 A    
O1    C1    1.298465 A    
C15   N3    1.429320 S    
N3    O10   1.299893 A    
Cu1   O7    1.931764 S    
C26   H8    1.075906 S    
C40   N2    1.375133 A    
C33   C38   1.414375 A    
C26   C27   1.419778 A    
C21   N5    1.434999 S    
C29   C30   1.396184 A    
Cu2   O8    1.942643 S    
C7    C8    1.405431 A    
C40   N4    1.426982 S    
C36   F5    1.334196 S    
H5    C30   1.083695 S    
N5    O14   1.300621 A    
Cu1   N2    2.030244 S    
N4    O12   1.299929 A    
C30   C31   1.381738 A    
O8    C4    1.302518 A    
C35   F4    1.357875 S    
C25   F1    1.354702 S    
C4    C6    1.473050 S    
C25   C26   1.396143 A    
C9    F6    1.358095 S    
C33   H10   1.057041 S    
C37   N2    1.403734 A    
Cu1   O5    1.975496 S    
C11   C15   1.417935 A    
C28   C29   1.412679 A    
C24   H7    1.082758 S    
O1    Cu1   1.967318 S    
O2    Cu2   1.975496 S    
C10   C12   1.427978 A    
N4    O11   1.300482 A    
O6    C3    1.313167 A    
O4    Cu2   1.931764 S    
C22   F3    1.356392 S    
C6    C22   1.401528 A    
C20   H4    1.084394 S    
N3    O9    1.300777 A    
C18   C20   1.400862 A    
O2    C1    1.302393 A    
Cu2   N1    2.030672 S    
C23   C24   1.390599 A    
C36   C37   1.443299 A    
C23   H6    1.081854 S    
C27   C32   1.431141 A    
C1    C29   1.459135 S    
C7    N6    1.433424 S    
C39   C40   1.418079 A    
C7    C11   1.423191 A    
C23   C28   1.416105 A    
C3    C32   1.473660 S    
C16   H3    1.078826 S    
C10   C11   1.426172 A    
Cu2   O6    1.967318 S    
C31   C32   1.407167 A    
C12   C16   1.413907 A    
C17   C18   1.393874 A    
C12   C13   1.416694 A    
