data_mof_unit_39236.cif
_audit_creation_date              2012-12-10T17:48:55-0500
_audit_creation_method            fapswitch 2.2
_symmetry_space_group_name_H-M    P1
_symmetry_Int_Tables_number       1
_space_group_crystal_system       triclinic
_cell_length_a                    10.745873
_cell_length_b                    14.698853
_cell_length_c                    14.885072
_cell_angle_alpha                 64.140313
_cell_angle_beta                  104.572429
_cell_angle_gamma                 103.050212
_cell_volume                      2029.37125939

loop_
_atom_site_label
_atom_site_type_symbol
_atom_type_description
_atom_site_fract_x
_atom_site_fract_y
_atom_site_fract_z
_atom_type_partial_charge
C1    C     C_R   0.477240 0.120162 0.312370 0.817017
C2    C     C_R   0.427470 0.358217 0.073010 0.044209
C3    C     C_R   0.407847 0.318179 0.998463 0.026094
C4    C     C_R   0.259911 0.999857 0.499914 0.781782
C5    C     C_R   0.423965 0.463941 0.042817 0.067116
C6    C     C_R   0.418953 0.530712 0.938744 0.019253
C7    C     C_R   0.384791 0.487052 0.865659 0.117862
C8    C     C_R   0.382407 0.382986 0.896218 -0.164369
C9    C     C_R   0.422923 0.505000 0.112865 -0.172093
C10   C     C_R   0.431052 0.609494 0.083516 -0.179781
C11   C     C_R   0.448527 0.676567 0.985417 0.145838
C12   C     C_3   0.877128 0.001449 0.496310 -0.019941
C13   C     C_R   0.446968 0.637601 0.913233 0.092963
C14   C     C_R   0.471351 0.782257 0.959237 -0.146308
C15   C     C_R   0.496736 0.849555 0.862857 -0.163468
C16   C     C_R   0.517075 0.879754 0.687569 0.866733
C17   C     C_R   0.485124 0.706097 0.821087 -0.150915
C18   C     C_R   0.761671 0.318273 0.603246 -0.271991
C19   C     C_R   0.709131 0.221470 0.606825 0.099439
C20   C     C_R   0.506199 0.279270 0.516570 0.029902
C21   C     C_R   0.552739 0.379045 0.512923 -0.004692
C22   C     C_R   0.685429 0.397902 0.553640 0.144402
C23   C     C_3   0.957977 0.979768 0.605204 0.195244
C24   C     C_R   0.475228 0.461245 0.468678 0.043438
C25   C     C_R   0.531749 0.557671 0.471663 0.078278
C26   C     C_R   0.667803 0.576512 0.494020 -0.161913
C27   C     C_R   0.742726 0.497228 0.539245 -0.141903
C28   C     C_R   0.739395 0.001638 0.497156 0.859166
C29   C     C_R   0.345228 0.452064 0.419927 -0.250331
C30   C     C_R   0.273569 0.534360 0.376138 0.169828
C31   C     C_R   0.325476 0.625889 0.389303 0.082360
C32   C     C_R   0.451936 0.634831 0.445026 -0.075712
C33   C     C_R   0.252939 0.707610 0.350820 -0.247786
C34   C     C_3   0.936043 0.107161 0.424275 -0.431997
C35   C     C_R   0.301453 0.792898 0.373650 0.078424
C36   C     C_R   0.488953 0.716720 0.478099 0.316518
C37   C     C_3   0.032991 0.913142 0.468509 0.002681
C38   C     C_3   0.889676 0.919609 0.459662 -0.024423
C39   C     C_3   0.102737 0.982444 0.605509 -0.367594
C40   C     C_3   0.077613 0.103500 0.421356 -0.428043
C41   C     C_3   0.121409 0.999042 0.499397 0.007269
C42   C     C_R   0.456190 0.187942 0.204385 -0.122217
C43   C     C_R   0.504345 0.811545 0.793178 -0.067007
C44   C     C_R   0.410346 0.213190 0.027917 0.391940
C45   C     C_R   0.433480 0.149051 0.130302 -0.195125
C46   C     C_R   0.454858 0.291775 0.175596 -0.231400
Cl1   Cl    Cl    0.385733 0.157865 0.939687 -0.619038
Cl2   Cl    Cl    0.898190 0.861815 0.699520 -0.579267
Cu1   Cu    Cu3+1 0.465900 0.918260 0.475680 1.012778
Cu2   Cu    Cu3+1 0.534100 0.081740 0.524320 0.957751
H1    H     H_    0.934707 0.166509 0.451372 0.192251
H2    H     H_    0.051033 0.923699 0.394003 0.155885
H3    H     H_    0.411809 0.457890 0.190494 0.144676
H4    H     H_    0.469709 0.812734 0.013327 0.161970
H5    H     H_    0.846402 0.514030 0.561934 0.180583
H6    H     H_    0.244841 0.855440 0.342702 0.141553
H7    H     H_    0.862843 0.331769 0.635490 0.160981
H8    H     H_    0.770338 0.161624 0.640008 0.137045
H9    H     H_    0.410007 0.261023 0.479849 0.118322
H10   H     H_    0.717475 0.653286 0.476976 0.180479
H11   H     H_    0.297784 0.382600 0.411629 0.147783
H12   H     H_    0.160748 0.045943 0.625822 0.165529
H13   H     H_    0.158409 0.706439 0.303763 0.189113
H14   H     H_    0.843127 0.844577 0.507858 0.216707
H15   H     H_    0.140308 0.911372 0.664306 0.225419
H16   H     H_    0.141724 0.167255 0.438002 0.191850
H17   H     H_    0.085383 0.115418 0.343708 0.189735
H18   H     H_    0.877962 0.130724 0.346473 0.215312
H19   H     H_    0.950295 0.040415 0.628541 0.129961
H20   H     H_    0.357308 0.352857 0.838441 0.219110
H21   H     H_    0.504754 0.677639 0.771636 0.200896
H22   H     H_    0.509957 0.930898 0.842911 0.181774
H23   H     H_    0.429727 0.637987 0.139264 0.155920
H24   H     H_    0.434519 0.068628 0.151815 0.198154
H25   H     H_    0.478068 0.319527 0.234726 0.162684
I1    I     I_    0.071457 0.759262 0.570045 -0.274950
I2    I     I_    0.297893 0.558807 0.710655 -0.301824
I3    I     I_    0.633726 0.698395 0.611814 -0.255364
I4    I     I_    0.082547 0.509332 0.298220 -0.378472
I5    I     I_    0.787324 0.943156 0.306916 -0.390300
N1    N     N_R   0.585360 0.204570 0.560800 -0.185814
N2    N     N_R   0.414550 0.795430 0.439160 -0.188884
O1    O     O_R   0.455060 0.022100 0.338110 -0.584597
O2    O     O_R   0.512640 0.160150 0.379180 -0.589124
O3    O     O_R   0.288900 0.930980 0.479450 -0.575762
O4    O     O_R   0.346480 0.069030 0.520520 -0.599082
O5    O     O_R   0.487360 0.839850 0.620820 -0.539625
O6    O     O_R   0.544940 0.977900 0.661890 -0.580652
O7    O     O_R   0.653520 0.930970 0.479480 -0.543967
O8    O     O_R   0.711100 0.069020 0.520550 -0.606247

loop_
_geom_bond_atom_site_label_1
_geom_bond_atom_site_label_2
_ccdc_geom_bond_type
C23   H19   S    
Cu2   O2    S    
C7    C8    A    
C39   C41   S    
C2    C46   A    
C1    O2    A    
C15   H22   S    
C12   C23   S    
C34   H1    S    
C29   C30   A    
C12   C28   S    
C34   C40   S    
C32   C36   A    
C5    C6    A    
C10   H23   S    
C27   H5    S    
C4    O4    A    
C4    C41   S    
C19   N1    A    
C18   C19   A    
C42   C46   A    
Cu1   O5    S    
C24   C29   A    
Cu2   O8    S    
C36   N2    A    
C40   H17   S    
C16   O5    A    
C31   C33   A    
C28   O7    A    
C9    C10   A    
C44   Cl1   S    
Cu2   O6    S    
C7    I2    S    
C25   C32   A    
C40   H16   S    
C20   N1    A    
C37   C41   S    
C39   H15   S    
C46   H25   S    
C35   N2    A    
C38   H14   S    
C19   H8    S    
C29   H11   S    
C3    C44   A    
Cu1   O3    S    
C24   C25   A    
C3    C8    A    
C34   H18   S    
C11   C14   A    
C37   H2    S    
C4    O3    A    
C25   C26   A    
C45   H24   S    
C42   C45   A    
Cu1   N2    S    
C17   C43   A    
C5    C9    A    
C37   C38   S    
C18   H7    S    
C31   C32   A    
C33   H13   S    
C26   C27   A    
C20   H9    S    
C16   C43   S    
C30   I4    S    
C40   C41   S    
C14   H4    S    
C37   I1    S    
C17   H21   S    
C22   C27   A    
C2    C5    A    
C9    H3    S    
C12   C34   S    
C44   C45   A    
C39   H12   S    
C23   Cl2   S    
C35   H6    S    
C18   C22   A    
Cu1   O7    S    
C6    C7    A    
C1    O1    A    
C8    H20   S    
C13   C17   A    
Cu1   O1    S    
C2    C3    A    
C15   C43   A    
C36   I3    S    
C6    C13   A    
C11   C13   A    
C30   C31   A    
C38   I5    S    
C23   C39   S    
C33   C35   A    
C12   C38   S    
C10   C11   A    
Cu2   O4    S    
C1    C42   S    
C20   C21   A    
Cu1   Cu2   S    
C21   C24   A    
C16   O6    A    
C14   C15   A    
C28   O8    A    
C21   C22   A    
C26   H10   S    
Cu2   N1    S    
