data_mof_unit_64083.cif
_audit_creation_date              2012-12-10T18:39:27-0500
_audit_creation_method            fapswitch 2.2
_symmetry_space_group_name_H-M    P1
_symmetry_Int_Tables_number       1
_space_group_crystal_system       triclinic
_cell_length_a                    15.813652
_cell_length_b                    11.571304
_cell_length_c                    10.785014
_cell_angle_alpha                 90.000781
_cell_angle_beta                  89.957783
_cell_angle_gamma                 90.002303
_cell_volume                      1973.49066181

loop_
_atom_site_label
_atom_site_type_symbol
_atom_type_description
_atom_site_fract_x
_atom_site_fract_y
_atom_site_fract_z
_atom_type_partial_charge
C1    C     C_R   0.499999 0.281181 0.499999 0.917155
C2    C     C_1   0.750387 0.503998 0.499850 -0.042213
C3    C     C_1   0.249636 0.504952 0.500342 -0.029963
C4    C     C_3   0.083217 0.515518 0.501619 -0.290088
C5    C     C_3   0.916783 0.513744 0.500104 -0.316072
C6    C     C_3   0.948324 0.646556 0.511810 -0.301440
C7    C     C_3   0.050209 0.648001 0.488801 -0.269773
C8    C     C_1   0.825229 0.508469 0.499877 0.179851
C9    C     C_1   0.174803 0.510245 0.501047 0.216117
C10   C     C_R   0.337904 0.500080 0.500059 0.894140
C11   C     C_R   0.662095 0.499997 0.499954 0.895481
C12   C     C_1   0.499997 0.059155 0.500001 0.057841
C13   C     C_1   0.499998 0.161054 0.499999 -0.120701
C14   C     C_1   0.500000 0.500012 0.069778 0.113550
C15   C     C_1   0.500000 0.500012 0.930222 0.121541
C16   C     C_R   0.499998 0.718817 0.500001 0.906765
C17   C     C_3   0.049650 0.459121 0.628062 0.544058
C18   C     C_3   0.049961 0.440975 0.385574 0.494964
C19   C     C_3   0.950747 0.440117 0.616394 0.510407
C20   C     C_3   0.950876 0.457520 0.373896 0.547232
C21   C     C_1   0.499996 0.940839 0.500004 0.054291
C22   C     C_1   0.499997 0.838942 0.500003 -0.128495
N1    N     N_1   0.500000 0.500010 0.180630 -0.063551
N2    N     N_1   0.500000 0.500010 0.819370 -0.061118
O1    O     O_R   0.500000 0.334450 0.602530 -0.603388
O2    O     O_R   0.500000 0.334450 0.397470 -0.601276
O3    O     O_R   0.377140 0.500000 0.602580 -0.585974
O4    O     O_R   0.377140 0.500000 0.397420 -0.606080
O5    O     O_R   0.622860 0.500000 0.602580 -0.586928
O6    O     O_R   0.622860 0.500000 0.397420 -0.603854
O7    O     O_R   0.500000 0.665550 0.602530 -0.600117
O8    O     O_R   0.500000 0.665550 0.397470 -0.610587
Zn1   Zn    Zn3+2 0.500000 0.500000 0.636920 1.068324
Zn2   Zn    Zn3+2 0.500000 0.500000 0.363080 1.048725
C23   C     C_2   0.093163 0.735611 0.575102 0.444344
H1    H     H_    0.061876 0.817225 0.594312 0.127822
O9    O     O_2   0.165156 0.722835 0.613681 -0.515520
C24   C     C_2   0.081609 0.696204 0.363940 0.585454
H2    H     H_    0.149407 0.698432 0.347199 0.088479
O10   O     O_2   0.036039 0.733445 0.282095 -0.433635
C25   C     C_2   0.922312 0.693913 0.639897 0.526570
H3    H     H_    0.967413 0.710498 0.712806 0.145786
O11   O     O_2   0.847967 0.712406 0.664625 -0.508670
C26   C     C_2   0.900727 0.730024 0.426335 0.679747
H4    H     H_    0.845829 0.702411 0.374105 0.094074
O12   O     O_2   0.918878 0.832768 0.424104 -0.486814
Cl1   Cl    Cl    0.923641 0.289050 0.603574 -0.330865
Cl2   Cl    Cl    0.896793 0.325304 0.331155 -0.327877
Cl3   Cl    Cl    0.105162 0.328255 0.671690 -0.339322
Cl4   Cl    Cl    0.078914 0.290527 0.398694 -0.340782
Cl5   Cl    Cl    0.104918 0.473107 0.242115 -0.393330
Cl6   Cl    Cl    0.077847 0.545099 0.761165 -0.399715
Cl7   Cl    Cl    0.921732 0.541640 0.239917 -0.402137
Cl8   Cl    Cl    0.895434 0.470690 0.759848 -0.362433

loop_
_geom_bond_atom_site_label_1
_geom_bond_atom_site_label_2
_ccdc_geom_bond_type
C10   O3    A    
C14   N1    T    
C5    C8    S    
C24   O10   D    
O7    Zn1   S    
C6    C7    S    
C5    C19   S    
C16   O8    A    
C25   H3    S    
N2    Zn1   S    
N1    Zn2   S    
C4    C18   S    
O4    Zn2   S    
C5    C20   S    
C6    C26   S    
C21   C22   T    
O3    Zn1   S    
C16   O7    A    
C1    O1    A    
C25   O11   D    
C18   Cl4   S    
C20   Cl2   S    
C4    C7    S    
C3    C9    T    
C2    C11   S    
C17   Cl6   S    
C15   N2    T    
C23   O9    D    
C7    C24   S    
C26   O12   D    
C18   Cl5   S    
C18   C20   S    
C5    C6    S    
C19   Cl1   S    
C1    O2    A    
C1    C13   S    
C4    C17   S    
C17   Cl3   S    
O5    Zn1   S    
C24   H2    S    
C12   C13   T    
C11   O5    A    
C10   O4    A    
C3    C10   S    
O6    Zn2   S    
C14   C15   S    
C19   Cl8   S    
C16   C22   S    
C17   C19   S    
C4    C9    S    
C7    C23   S    
C12   C21   S    
O2    Zn2   S    
C2    C8    T    
C26   H4    S    
C23   H1    S    
C11   O6    A    
O1    Zn1   S    
C20   Cl7   S    
C6    C25   S    
O8    Zn2   S    
