data_mof_unit_65818.cif
_audit_creation_date              2012-12-10T17:52:10-0500
_audit_creation_method            fapswitch 2.2
_symmetry_space_group_name_H-M    P1
_symmetry_Int_Tables_number       1
_space_group_crystal_system       triclinic
_cell_length_a                    27.779522
_cell_length_b                    27.789187
_cell_length_c                    22.78534
_cell_angle_alpha                 90.000071
_cell_angle_beta                  127.523618
_cell_angle_gamma                 90.000027
_cell_volume                      13950.357954

loop_
_atom_site_label
_atom_site_type_symbol
_atom_type_description
_atom_site_fract_x
_atom_site_fract_y
_atom_site_fract_z
_atom_type_partial_charge
C1    C     C_R   0.400128 0.749996 0.300176 0.823473
C2    C     C_3   0.238550 0.288986 0.024307 0.090681
C3    C     C_1   0.639469 0.249965 0.779078 -0.143562
C4    C     C_1   0.139469 0.250038 0.779078 -0.143573
C5    C     C_1   0.860532 0.749963 0.220922 -0.143567
C6    C     C_1   0.860531 0.250035 0.220922 -0.143561
C7    C     C_1   0.139468 0.749964 0.779078 -0.143568
C8    C     C_3   0.623024 0.734300 0.997062 0.097996
C9    C     C_3   0.559388 0.747001 0.970473 -0.817963
C10   C     C_3   0.376785 0.267254 0.002964 0.098399
C11   C     C_3   0.440571 0.255169 0.029547 -0.818653
C12   C     C_3   0.376979 0.734324 0.002938 0.097989
C13   C     C_3   0.239035 0.710722 0.024303 0.090650
C14   C     C_3   0.440611 0.747038 0.029525 -0.817954
C15   C     C_3   0.622764 0.263411 0.997075 0.097580
C16   C     C_3   0.559358 0.249810 0.970467 -0.817236
C17   C     C_3   0.123214 0.232746 0.997036 0.098399
C18   C     C_3   0.059429 0.244831 0.970453 -0.818654
C19   C     C_3   0.876976 0.765700 0.002937 0.097995
C20   C     C_3   0.940607 0.752991 0.029518 -0.817963
C21   C     C_3   0.877236 0.236590 0.002924 0.097579
C22   C     C_3   0.940638 0.250199 0.029526 -0.817236
C23   C     C_3   0.123020 0.765676 0.997062 0.097989
C24   C     C_3   0.760260 0.289687 0.975702 0.090636
C25   C     C_3   0.059387 0.752965 0.970472 -0.817954
C26   C     C_3   0.227504 0.333247 0.054485 -0.391980
C27   C     C_3   0.176960 0.364820 0.992287 -0.805066
C28   C     C_3   0.771469 0.666143 0.945523 -0.392028
C29   C     C_3   0.821631 0.634340 0.007725 -0.805150
C30   C     C_3   0.769947 0.334729 0.945537 -0.392076
C31   C     C_3   0.819542 0.366863 0.007743 -0.805267
C32   C     C_3   0.228545 0.666134 0.054475 -0.392018
C33   C     C_3   0.178385 0.634330 0.992273 -0.805148
C34   C     C_3   0.728531 0.833857 0.054476 -0.392033
C35   C     C_3   0.261450 0.211014 0.975693 0.090680
C36   C     C_3   0.678367 0.865659 0.992275 -0.805150
C37   C     C_3   0.272496 0.166753 0.945515 -0.391981
C38   C     C_3   0.323039 0.135179 0.007713 -0.805065
C39   C     C_3   0.271455 0.833866 0.945525 -0.392018
C40   C     C_3   0.321615 0.865670 0.007727 -0.805149
C41   C     C_3   0.730053 0.165271 0.054463 -0.392080
C42   C     C_3   0.680457 0.133137 0.992257 -0.805267
C43   C     C_3   0.739029 0.789274 0.024303 0.090661
C44   C     C_3   0.739740 0.210313 0.024297 0.090635
C45   C     C_3   0.260964 0.789278 0.975697 0.090650
C46   C     C_3   0.713563 0.750114 0.926677 -0.010858
C47   C     C_3   0.286436 0.249879 0.073323 -0.010832
C48   C     C_3   0.286436 0.750113 0.073323 -0.010856
C49   C     C_R   0.599872 0.250004 0.699824 0.823422
C50   C     C_3   0.713565 0.249895 0.926678 -0.010878
C51   C     C_3   0.213564 0.250121 0.926677 -0.010832
C52   C     C_3   0.786437 0.749886 0.073323 -0.010859
C53   C     C_3   0.786435 0.250105 0.073322 -0.010878
C54   C     C_3   0.213563 0.749887 0.926677 -0.010856
C55   C     C_1   0.672808 0.750089 0.845680 0.005449
C56   C     C_1   0.327190 0.249907 0.154319 0.005439
C57   C     C_1   0.327191 0.750088 0.154319 0.005446
C58   C     C_1   0.672810 0.249915 0.845681 0.005459
C59   C     C_1   0.172810 0.250092 0.845680 0.005439
C60   C     C_R   0.599872 0.749996 0.699824 0.823474
C61   C     C_1   0.827192 0.749911 0.154319 0.005447
C62   C     C_1   0.827190 0.250085 0.154319 0.005458
C63   C     C_1   0.172809 0.749912 0.845680 0.005446
C64   C     C_1   0.318906 0.750026 0.500015 -0.146270
C65   C     C_1   0.681094 0.249974 0.499985 -0.146273
C66   C     C_1   0.681094 0.750026 0.499985 -0.146269
C67   C     C_1   0.318906 0.249974 0.500015 -0.146271
C68   C     C_1   0.818906 0.250026 0.500015 -0.146273
C69   C     C_1   0.181094 0.749974 0.499985 -0.146270
C70   C     C_1   0.181094 0.250026 0.499985 -0.146271
C71   C     C_R   0.400128 0.250003 0.300176 0.823508
C72   C     C_1   0.818906 0.749974 0.500015 -0.146269
C73   C     C_1   0.275456 0.750012 0.500008 0.000731
C74   C     C_1   0.724544 0.249988 0.499992 0.000741
C75   C     C_1   0.724544 0.750012 0.499992 0.000734
C76   C     C_1   0.275456 0.249988 0.500008 0.000717
C77   C     C_1   0.775456 0.250012 0.500008 0.000741
C78   C     C_1   0.224544 0.749988 0.499992 0.000731
C79   C     C_1   0.224544 0.250012 0.499992 0.000717
C80   C     C_1   0.775456 0.749988 0.500008 0.000734
C81   C     C_1   0.500000 0.931116 0.500000 -0.146504
C82   C     C_R   0.900128 0.249996 0.300176 0.823421
C83   C     C_1   0.500000 0.068884 0.500000 -0.146499
C84   C     C_1   0.000000 0.431116 0.500000 -0.146499
C85   C     C_1   0.000000 0.568884 0.500000 -0.146504
C86   C     C_1   0.500000 0.974553 0.500000 0.000248
C87   C     C_1   0.500000 0.025447 0.500000 0.000250
C88   C     C_1   0.000000 0.474553 0.500000 0.000250
C89   C     C_1   0.000000 0.525447 0.500000 0.000248
C90   C     C_R   0.629361 0.750022 0.500002 0.821464
C91   C     C_R   0.370639 0.249978 0.499997 0.821411
C92   C     C_R   0.370638 0.750022 0.499997 0.821457
C93   C     C_R   0.099872 0.750004 0.699824 0.823473
C94   C     C_R   0.629361 0.249978 0.500002 0.821505
C95   C     C_R   0.129361 0.250022 0.500002 0.821411
C96   C     C_R   0.870638 0.749978 0.499997 0.821464
C97   C     C_R   0.870638 0.250022 0.499997 0.821505
C98   C     C_R   0.129361 0.749978 0.500002 0.821457
C99   C     C_R   0.500000 0.879384 0.500000 0.819426
C100  C     C_R   0.500000 0.120616 0.500000 0.819429
C101  C     C_R   1.000000 0.379384 0.500000 0.819429
C102  C     C_R   0.000000 0.620616 0.500000 0.819426
C103  C     C_R   0.500000 0.620642 0.500000 0.822882
C104  C     C_R   0.099872 0.249996 0.699824 0.823509
C105  C     C_R   0.500000 0.379357 0.500000 0.822875
C106  C     C_R   1.000000 0.120642 0.500000 0.822875
C107  C     C_R   0.000000 0.879358 0.500000 0.822882
C108  C     C_1   0.500000 0.568897 0.500000 -0.147736
C109  C     C_1   0.500000 0.431102 0.500000 -0.147740
C110  C     C_1   1.000000 0.068898 0.500000 -0.147740
C111  C     C_1   0.000000 0.931102 0.500000 -0.147737
C112  C     C_1   0.500000 0.525453 0.500000 0.000361
C113  C     C_1   0.500000 0.474547 0.500000 0.000359
C114  C     C_1   1.000000 0.025453 0.500000 0.000359
C115  C     C_R   0.900128 0.750004 0.300176 0.823473
C116  C     C_1   0.000000 0.974547 0.500000 0.000361
C117  C     C_3   0.240284 0.209295 0.024883 -0.402224
C118  C     C_3   0.760209 0.790428 0.975110 -0.402200
C119  C     C_3   0.760933 0.209989 0.975104 -0.402181
C120  C     C_3   0.239784 0.790424 0.024890 -0.402202
C121  C     C_3   0.739791 0.709572 0.024890 -0.402197
C122  C     C_3   0.259716 0.290704 0.975117 -0.402223
C123  C     C_3   0.260216 0.709576 0.975110 -0.402201
C124  C     C_3   0.739067 0.290011 0.024896 -0.402181
C125  C     C_3   0.692877 0.749407 0.975675 0.542571
C126  C     C_3   0.760971 0.710726 0.975697 0.090662
C127  C     C_3   0.307113 0.251143 0.024328 0.542497
C128  C     C_3   0.307123 0.749415 0.024325 0.542580
C129  C     C_3   0.692873 0.249783 0.975676 0.542651
C130  C     C_3   0.192887 0.248857 0.975672 0.542498
C131  C     C_3   0.807123 0.750593 0.024325 0.542572
C132  C     C_3   0.807127 0.250217 0.024324 0.542651
C133  C     C_3   0.192877 0.750585 0.975675 0.542578
C134  C     C_1   0.639468 0.750037 0.779078 -0.143567
C135  C     C_1   0.360530 0.249962 0.220922 -0.143573
C136  C     C_1   0.360531 0.750036 0.220922 -0.143568
H1    H     H_    0.233121 0.176295 0.046117 0.157652
H2    H     H_    0.628281 0.694521 0.002787 0.142940
H3    H     H_    0.525111 0.729774 0.916103 0.260159
H4    H     H_    0.552665 0.734020 0.011111 0.203908
H5    H     H_    0.552968 0.786638 0.964716 0.256129
H6    H     H_    0.371055 0.307003 0.997279 0.142941
H7    H     H_    0.344021 0.250201 0.947759 0.131419
H8    H     H_    0.447446 0.215574 0.035197 0.256068
H9    H     H_    0.447163 0.268544 0.988963 0.203654
H10   H     H_    0.474639 0.272421 0.083969 0.260279
H11   H     H_    0.344006 0.751334 0.947751 0.131500
H12   H     H_    0.767774 0.823207 0.953871 0.157652
H13   H     H_    0.371731 0.694545 0.997212 0.142939
H14   H     H_    0.474893 0.729812 0.083895 0.260161
H15   H     H_    0.447337 0.734064 0.988887 0.203912
H16   H     H_    0.447023 0.786675 0.035284 0.256126
H17   H     H_    0.627321 0.303224 0.002849 0.142931
H18   H     H_    0.656029 0.246473 0.052242 0.131601
H19   H     H_    0.553616 0.210121 0.964586 0.256165
H20   H     H_    0.552428 0.262228 0.011154 0.204197
H21   H     H_    0.524779 0.266972 0.916153 0.260064
H22   H     H_    0.155978 0.249799 0.052241 0.131419
H23   H     H_    0.769085 0.177546 0.953861 0.157638
H24   H     H_    0.128944 0.192997 0.002720 0.142941
H25   H     H_    0.025360 0.227579 0.916031 0.260278
H26   H     H_    0.052836 0.231456 0.011037 0.203654
H27   H     H_    0.052554 0.284426 0.964802 0.256068
H28   H     H_    0.871727 0.805479 0.997221 0.142944
H29   H     H_    0.844001 0.748695 0.947747 0.131496
H30   H     H_    0.947019 0.713353 0.035268 0.256130
H31   H     H_    0.947330 0.765971 0.988880 0.203909
H32   H     H_    0.974890 0.770212 0.083891 0.260158
H33   H     H_    0.843966 0.253523 0.947755 0.131596
H34   H     H_    0.232214 0.823200 0.046130 0.157645
H35   H     H_    0.872687 0.196776 0.997156 0.142936
H36   H     H_    0.975222 0.233042 0.083843 0.260066
H37   H     H_    0.947568 0.237781 0.988839 0.204197
H38   H     H_    0.946371 0.289888 0.035399 0.256162
H39   H     H_    0.128270 0.805455 0.002789 0.142938
H40   H     H_    0.155992 0.748666 0.052248 0.131501
H41   H     H_    0.052973 0.713328 0.964712 0.256128
H42   H     H_    0.052661 0.765939 0.011111 0.203911
H43   H     H_    0.025107 0.770192 0.916103 0.260160
H44   H     H_    0.188410 0.376870 0.955656 0.255060
H45   H     H_    0.732227 0.676793 0.046129 0.157652
H46   H     H_    0.133363 0.344827 0.959020 0.288164
H47   H     H_    0.171266 0.397059 0.016304 0.238087
H48   H     H_    0.215456 0.321674 0.090677 0.198315
H49   H     H_    0.270087 0.354555 0.088457 0.212051
H50   H     H_    0.865470 0.654004 0.040981 0.288169
H51   H     H_    0.810044 0.622660 0.044367 0.255047
H52   H     H_    0.826927 0.601884 0.983713 0.238054
H53   H     H_    0.728628 0.645148 0.911565 0.211997
H54   H     H_    0.783646 0.677340 0.909320 0.198330
H55   H     H_    0.807762 0.377993 0.044401 0.255015
H56   H     H_    0.266879 0.323705 0.953883 0.157652
H57   H     H_    0.863730 0.347690 0.040981 0.288168
H58   H     H_    0.824246 0.399631 0.983737 0.238042
H59   H     H_    0.782308 0.324088 0.909317 0.198348
H60   H     H_    0.726733 0.355258 0.911595 0.211934
H61   H     H_    0.134543 0.653990 0.959024 0.288159
H62   H     H_    0.189969 0.622658 0.955625 0.255041
H63   H     H_    0.173097 0.601869 0.016285 0.238081
H64   H     H_    0.271389 0.645142 0.088429 0.212010
H65   H     H_    0.216370 0.677325 0.090683 0.198328
H66   H     H_    0.689952 0.877338 0.955631 0.255049
H67   H     H_    0.267786 0.676801 0.953870 0.157645
H68   H     H_    0.634529 0.845995 0.959022 0.288168
H69   H     H_    0.673073 0.898116 0.016287 0.238055
H70   H     H_    0.716356 0.822660 0.090683 0.198328
H71   H     H_    0.771372 0.854853 0.088433 0.211999
H72   H     H_    0.366637 0.155173 0.040981 0.288164
H73   H     H_    0.311589 0.123129 0.044344 0.255061
H74   H     H_    0.328733 0.102941 0.983696 0.238087
H75   H     H_    0.229912 0.145445 0.911543 0.212052
H76   H     H_    0.284543 0.178326 0.909323 0.198315
H77   H     H_    0.310031 0.877342 0.044375 0.255041
H78   H     H_    0.730915 0.322454 0.046140 0.157637
H79   H     H_    0.365456 0.846010 0.040976 0.288160
H80   H     H_    0.326903 0.898131 0.983715 0.238080
H81   H     H_    0.283629 0.822675 0.909317 0.198329
H82   H     H_    0.228610 0.854858 0.911571 0.212011
H83   H     H_    0.636270 0.152310 0.959020 0.288168
H84   H     H_    0.692236 0.122007 0.955598 0.255016
H85   H     H_    0.675754 0.100369 0.016263 0.238043
H86   H     H_    0.773267 0.144741 0.088404 0.211935
H87   H     H_    0.717693 0.175912 0.090684 0.198347
H88   H     H_    0.655993 0.751311 0.052249 0.131502
O1    O     O_3   0.500000 0.750010 0.500000 -0.480939
O2    O     O_R   0.110060 0.777860 0.664410 -0.641383
O3    O     O_R   0.110060 0.222140 0.664410 -0.641340
O4    O     O_R   0.889940 0.777860 0.335590 -0.641387
O5    O     O_R   0.584730 0.777880 0.456910 -0.631857
O6    O     O_R   0.415270 0.222120 0.543090 -0.631858
O7    O     O_R   0.415270 0.777880 0.543090 -0.631858
O8    O     O_R   0.584730 0.222120 0.456910 -0.631858
O9    O     O_R   0.084730 0.277880 0.456910 -0.631858
O10   O     O_R   0.915270 0.722120 0.543090 -0.631857
O11   O     O_R   0.915270 0.277880 0.543090 -0.631858
O12   O     O_3   0.500000 0.249990 0.500000 -0.480940
O13   O     O_R   0.084730 0.722120 0.456910 -0.631858
O14   O     O_R   0.506320 0.856290 0.456920 -0.634159
O15   O     O_R   0.493680 0.143710 0.543080 -0.634112
O16   O     O_R   0.493680 0.856290 0.543080 -0.634148
O17   O     O_R   0.506320 0.143710 0.456920 -0.634187
O18   O     O_R   0.006320 0.356290 0.456920 -0.634112
O19   O     O_R   0.993680 0.643710 0.543080 -0.634159
O20   O     O_R   0.993680 0.356290 0.543080 -0.634187
O21   O     O_R   0.006320 0.643710 0.456920 -0.634148
O22   O     O_R   0.450590 0.643730 0.456890 -0.633784
O23   O     O_3   0.000000 0.250010 0.500000 -0.480940
O24   O     O_R   0.549410 0.356270 0.543110 -0.633813
O25   O     O_R   0.549410 0.643730 0.543110 -0.633791
O26   O     O_R   0.450590 0.356270 0.456890 -0.633768
O27   O     O_R   0.950590 0.143730 0.456890 -0.633813
O28   O     O_R   0.049410 0.856270 0.543110 -0.633784
O29   O     O_R   0.049410 0.143730 0.543110 -0.633768
O30   O     O_R   0.950590 0.856270 0.456890 -0.633791
O31   O     O_R   0.627830 0.722150 0.543110 -0.635296
O32   O     O_R   0.372170 0.277850 0.456890 -0.635307
O33   O     O_R   0.372170 0.722150 0.456890 -0.635297
O34   O     O_3   0.000000 0.749990 0.500000 -0.480939
O35   O     O_R   0.627830 0.277850 0.543110 -0.635286
O36   O     O_R   0.127830 0.222150 0.543110 -0.635307
O37   O     O_R   0.872170 0.777850 0.456890 -0.635296
O38   O     O_R   0.872170 0.222150 0.456890 -0.635286
O39   O     O_R   0.127830 0.777850 0.543110 -0.635297
O40   O     O_R   0.445670 0.777870 0.335600 -0.628463
O41   O     O_R   0.554330 0.222130 0.664400 -0.628350
O42   O     O_R   0.554330 0.777870 0.664400 -0.628457
O43   O     O_R   0.445670 0.222130 0.335600 -0.628539
O44   O     O_R   0.945670 0.277870 0.335600 -0.628351
O45   O     O_R   0.389940 0.722140 0.335590 -0.641382
O46   O     O_R   0.054330 0.722130 0.664400 -0.628463
O47   O     O_R   0.054330 0.277870 0.664400 -0.628539
O48   O     O_R   0.945670 0.722130 0.335600 -0.628457
O49   O     O_3   0.630757 0.750535 0.944646 -0.602788
O50   O     O_3   0.369244 0.250579 0.055360 -0.602838
O51   O     O_3   0.369243 0.750551 0.055354 -0.602788
O52   O     O_3   0.630780 0.247821 0.944644 -0.602726
O53   O     O_3   0.130756 0.249421 0.944640 -0.602838
O54   O     O_3   0.869243 0.749465 0.055353 -0.602789
O55   O     O_3   0.869220 0.252179 0.055356 -0.602726
O56   O     O_R   0.610060 0.277860 0.664410 -0.641447
O57   O     O_3   0.130757 0.749449 0.944645 -0.602787
O58   O     O_R   0.610060 0.722140 0.664410 -0.641388
O59   O     O_R   0.389940 0.277860 0.335590 -0.641340
O60   O     O_R   0.889940 0.222140 0.335590 -0.641446
Zn1   Zn    Zn3+2 0.570600 0.710200 0.561580 0.979199
Zn2   Zn    Zn3+2 0.490980 0.210180 0.561570 0.986520
Zn3   Zn    Zn3+2 0.490980 0.789820 0.561570 0.986463
Zn4   Zn    Zn3+2 0.509020 0.210180 0.438430 0.986418
Zn5   Zn    Zn3+2 0.009020 0.289820 0.438430 0.986520
Zn6   Zn    Zn3+2 0.990980 0.710180 0.561570 0.986455
Zn7   Zn    Zn3+2 0.990980 0.289820 0.561570 0.986418
Zn8   Zn    Zn3+2 0.009020 0.710180 0.438430 0.986463
Zn9   Zn    Zn3+2 0.429400 0.289800 0.438420 0.979214
Zn10  Zn    Zn3+2 0.429400 0.710200 0.438420 0.979203
Zn11  Zn    Zn3+2 0.570600 0.289800 0.561580 0.979166
Zn12  Zn    Zn3+2 0.070600 0.210200 0.561580 0.979214
Zn13  Zn    Zn3+2 0.929400 0.789800 0.438420 0.979199
Zn14  Zn    Zn3+2 0.929400 0.210200 0.438420 0.979166
Zn15  Zn    Zn3+2 0.070600 0.789800 0.561580 0.979203
Zn16  Zn    Zn3+2 0.509020 0.789820 0.438430 0.986455

loop_
_geom_bond_atom_site_label_1
_geom_bond_atom_site_label_2
_ccdc_geom_bond_type
C39   H82   S    
C19   C20   S    
C76   C79   S    
C48   C120  S    
C125  O49   S    
O1    Zn3   S    
C42   H84   S    
C52   C61   S    
O32   Zn9   S    
C26   H49   S    
C54   C63   S    
C33   H63   S    
C97   O11   A    
O56   Zn11  S    
C29   H50   S    
C100  O15   A    
C8    H2    S    
C120  C133  S    
C32   H65   S    
C17   H24   S    
C37   H75   S    
C15   H18   S    
C118  C131  S    
O42   Zn3   S    
C46   C55   S    
C90   O5    A    
C42   H85   S    
C81   C86   T    
C69   C98   S    
C21   C22   S    
C106  O29   A    
O47   Zn7   S    
C7    C93   S    
C91   O6    A    
C27   H44   S    
C25   H42   S    
O18   Zn5   S    
C23   H40   S    
C81   C99   S    
C49   O56   A    
O22   Zn10  S    
C107  O30   A    
C105  O24   A    
C37   C38   S    
C18   H27   S    
C30   H59   S    
C16   H19   S    
C2    C26   S    
C53   C132  S    
C35   C127  S    
O33   Zn10  S    
C99   O16   A    
C45   C120  S    
C83   C100  S    
C35   C51   S    
C2    C47   S    
C60   C134  S    
C68   C77   T    
O37   Zn13  S    
C70   C79   T    
C13   C133  S    
C84   C88   T    
C34   H71   S    
C29   H52   S    
C123  H67   S    
C104  O47   A    
O30   Zn13  S    
C4    C104  S    
C27   H47   S    
C43   C118  S    
C72   C96   S    
C19   O54   S    
C88   C89   S    
C119  H23   S    
C129  O52   S    
O34   Zn13  S    
C54   C123  S    
C18   H26   S    
C13   C32   S    
C82   O60   A    
C28   H53   S    
C43   C125  S    
C92   O33   A    
C94   O8    A    
C48   C57   S    
C98   O13   A    
C107  O28   A    
O11   Zn7   S    
C105  O26   A    
C21   O55   S    
C18   H25   S    
C43   C52   S    
C1    O45   A    
O1    Zn10  S    
C122  C127  S    
C131  O54   S    
C99   O14   A    
C74   C77   S    
C64   C73   T    
C110  C114  T    
C41   H86   S    
C39   C45   S    
O26   Zn9   S    
C5    C115  S    
C44   C53   S    
C12   O51   S    
C24   C50   S    
C95   O36   A    
O27   Zn14  S    
C103  O25   A    
O29   Zn12  S    
C39   C40   S    
C31   H57   S    
O23   Zn12  S    
C65   C74   T    
O24   Zn11  S    
C14   H15   S    
C128  O51   S    
C121  C125  S    
C17   H22   S    
C50   C129  S    
O20   Zn7   S    
O34   Zn15  S    
C40   H80   S    
C17   C18   S    
C5    C61   T    
C38   H74   S    
C101  O18   A    
C7    C63   T    
C9    H4    S    
O9    Zn5   S    
C1    C136  S    
C22   H37   S    
O34   Zn8   S    
C20   H31   S    
C105  C109  S    
C107  C111  S    
C39   H81   S    
C34   C43   S    
O40   Zn16  S    
C60   O42   A    
C53   C124  S    
C45   C54   S    
C114  C116  S    
C11   H10   S    
C47   C127  S    
C19   H29   S    
C71   O59   A    
C130  O53   S    
C72   C80   T    
C33   H62   S    
O59   Zn9   S    
C21   H33   S    
O60   Zn14  S    
C34   C36   S    
C15   H17   S    
C10   C11   S    
O58   Zn1   S    
O38   Zn14  S    
O23   Zn7   S    
C82   O44   A    
O44   Zn5   S    
C17   O53   S    
C85   C102  S    
C47   C56   S    
C31   H58   S    
C83   C87   T    
C41   C42   S    
C46   C125  S    
C66   C90   S    
C102  O21   A    
C26   C27   S    
O1    Zn16  S    
C12   H11   S    
C28   C29   S    
C10   O50   S    
C106  C110  S    
C30   C31   S    
C13   C123  S    
C25   H41   S    
C23   H39   S    
C45   C128  S    
C31   H55   S    
C46   C118  S    
O5    Zn16  S    
O3    Zn12  S    
C10   H6    S    
C101  O20   A    
C30   H60   S    
O36   Zn12  S    
C16   H20   S    
C111  C116  T    
O39   Zn15  S    
C8    O49   S    
C8    H88   S    
O34   Zn6   S    
C23   O57   S    
O35   Zn11  S    
O7    Zn3   S    
O28   Zn15  S    
O8    Zn4   S    
C28   C126  S    
C2    C122  S    
O23   Zn14  S    
C50   C58   S    
C42   H83   S    
C85   C89   T    
C86   C87   S    
C92   O7    A    
C44   C129  S    
C21   H35   S    
C54   C133  S    
C108  C112  T    
C106  O27   A    
O12   Zn9   S    
C37   H76   S    
C48   C128  S    
C1    O40   A    
C52   C121  S    
C24   C132  S    
O23   Zn5   S    
C67   C91   S    
C122  H56   S    
O45   Zn10  S    
C97   O38   A    
C41   C44   S    
C60   O58   A    
O12   Zn2   S    
C64   C92   S    
C104  O3    A    
C121  H45   S    
C71   O43   A    
C16   H21   S    
C52   C131  S    
C12   H13   S    
C28   H54   S    
O46   Zn6   S    
C25   H43   S    
C49   O41   A    
C55   C134  T    
C20   H30   S    
O31   Zn1   S    
C44   C119  S    
C32   C33   S    
C6    C62   T    
C118  H12   S    
C115  O4    A    
C32   H64   S    
C9    H3    S    
C120  H34   S    
C66   C75   T    
C2    C130  S    
C124  C129  S    
C36   H69   S    
O10   Zn6   S    
C15   O52   S    
C3    C58   T    
C29   H51   S    
C51   C122  S    
C96   O10   A    
C102  O19   A    
C100  O17   A    
O14   Zn16  S    
C90   O31   A    
C96   O37   A    
C6    C82   S    
O16   Zn3   S    
C3    C49   S    
C124  H78   S    
C34   H70   S    
C38   H72   S    
O2    Zn15  S    
C35   C37   S    
O12   Zn11  S    
C71   C135  S    
C91   O32   A    
C15   C16   S    
C24   C124  S    
C40   H79   S    
C68   C97   S    
C98   O39   A    
C93   O46   A    
C8    C9    S    
C40   H77   S    
C73   C78   S    
C57   C136  T    
C103  C108  S    
O12   Zn4   S    
C75   C80   S    
C109  C113  T    
C10   H7    S    
O19   Zn6   S    
C38   H73   S    
O25   Zn1   S    
C84   C101  S    
C14   H14   S    
C69   C78   T    
C36   H66   S    
C93   O2    A    
C112  C113  S    
C22   H38   S    
C51   C130  S    
O21   Zn8   S    
C20   H32   S    
C103  O22   A    
C50   C119  S    
C9    H5    S    
C115  O48   A    
C11   H9    S    
O1    Zn1   S    
C53   C62   S    
C94   O35   A    
C33   H61   S    
O6    Zn2   S    
C119  C132  S    
C117  C130  S    
C41   H87   S    
O41   Zn2   S    
C65   C94   S    
O15   Zn2   S    
C12   C14   S    
O43   Zn4   S    
C35   C117  S    
C51   C59   S    
C127  O50   S    
C14   H16   S    
C56   C135  T    
C11   H8    S    
C132  O55   S    
O4    Zn13  S    
C46   C126  S    
C117  H1    S    
O13   Zn8   S    
C13   C48   S    
C36   H68   S    
C70   C95   S    
C27   H46   S    
C121  C126  S    
O48   Zn8   S    
C123  C128  S    
C126  C131  S    
C133  O57   S    
C4    C59   T    
C19   H28   S    
C23   C25   S    
O17   Zn4   S    
C24   C30   S    
C47   C117  S    
C67   C76   T    
C95   O9    A    
C22   H36   S    
C26   H48   S    
