data_mof_unit_37080.cif
_audit_creation_date              2012-10-26T19:25:22-0400
_audit_creation_method            fapswitch 2.2
_symmetry_space_group_name_H-M    P1
_symmetry_Int_Tables_number       1
_space_group_crystal_system       triclinic
_cell_length_a                    12.37864
_cell_length_b                    13.165319
_cell_length_c                    19.261849
_cell_angle_alpha                 78.546278
_cell_angle_beta                  100.594472
_cell_angle_gamma                 116.699944
_cell_volume                      2732.41709462

loop_
_atom_site_label
_atom_site_type_symbol
_atom_type_description
_atom_site_fract_x
_atom_site_fract_y
_atom_site_fract_z
_atom_type_partial_charge
C1    C     C_R   0.854360 0.286476 0.506837 0.568731
C2    C     C_R   0.001911 0.507868 0.145550 -0.019035
C3    C     C_R   0.266583 0.030883 0.427113 0.019424
C4    C     C_R   0.998528 0.499169 0.631927 0.595324
C5    C     C_R   0.226563 0.835901 0.481569 -0.029254
C6    C     C_R   0.806998 0.086917 0.562164 -0.138243
C7    C     C_R   0.722764 0.983795 0.594472 0.037692
C8    C     C_R   0.597920 0.961052 0.583788 0.038622
C9    C     C_R   0.556774 0.023044 0.523769 -0.004663
C10   C     C_R   0.643481 0.127204 0.491383 0.028613
C11   C     C_R   0.432176 0.986603 0.495693 0.012303
C12   C     C_R   0.994520 0.497184 0.707543 0.013888
C13   C     C_R   0.392616 0.063711 0.448085 0.026187
C14   C     C_R   0.480499 0.166485 0.417683 -0.113499
C15   C     C_R   0.602966 0.193275 0.435357 -0.070521
C16   C     C_R   0.144916 0.713383 0.490630 0.528876
C17   C     C_R   0.348875 0.871615 0.507505 -0.118399
C18   C     C_R   0.184657 0.916351 0.444617 -0.094676
C19   C     C_R   0.768520 0.164003 0.516674 0.011809
C20   C     C_R   0.370783 0.366425 0.627931 -0.072582
C21   C     C_R   0.736931 0.599829 0.389157 0.064128
C22   C     C_R   0.622348 0.586918 0.356841 -0.125857
C23   C     C_R   0.999480 0.510340 0.068643 0.348971
C24   C     C_R   0.525031 0.538510 0.397349 -0.094321
C25   C     C_R   0.544355 0.515450 0.471949 0.003580
C26   C     C_R   0.663129 0.528837 0.502352 0.125886
C27   C     C_R   0.449665 0.475668 0.517461 -0.027124
C28   C     C_R   0.001477 0.500907 0.368100 0.486356
C29   C     C_R   0.468522 0.421926 0.586880 -0.008753
C30   C     C_R   0.588093 0.435688 0.615361 0.028307
C31   C     C_R   0.684873 0.514392 0.576619 0.025201
C32   C     C_R   0.340734 0.492134 0.498528 0.140216
C33   C     C_R   0.258718 0.370325 0.603452 0.130541
C34   C     C_R   0.995171 0.509017 0.927866 0.380517
C35   C     C_R   0.961895 0.394506 0.755543 0.020091
C36   C     C_R   0.967622 0.399721 0.828917 -0.030180
C37   C     C_R   0.993142 0.505049 0.851892 0.012513
C38   C     C_R   0.020394 0.606135 0.802256 0.020733
C39   C     C_R   0.024577 0.600996 0.731244 -0.142891
C40   C     C_2   0.912461 0.281402 0.728935 0.250105
C41   C     C_2   0.218534 0.113928 0.387618 0.237207
C42   C     C_2   0.518777 0.897206 0.642795 0.278447
C43   C     C_2   0.769907 0.904752 0.640274 0.310262
C44   C     C_2   0.158754 0.304397 0.649493 0.256736
C45   C     C_R   0.917007 0.412901 0.184171 -0.067776
C46   C     C_2   0.618035 0.373759 0.684160 0.295293
C47   C     C_2   0.947467 0.295883 0.882093 0.237740
C48   C     C_2   0.340567 0.585400 0.441765 0.297947
C49   C     C_2   0.781936 0.613871 0.610159 0.275754
C50   C     C_2   0.042793 0.718937 0.820796 0.306139
C51   C     C_2   0.831114 0.302847 0.297514 0.252960
C52   C     C_2   0.179764 0.700434 0.288321 0.247347
C53   C     C_R   0.918129 0.407964 0.257545 0.000484
C54   C     C_R   0.004188 0.502152 0.292293 -0.048679
C55   C     C_R   0.090215 0.598821 0.253596 -0.022855
C56   C     C_R   0.088889 0.599586 0.180518 -0.067844
Cu1   Cu    Cu3+1 0.098280 0.475420 0.516260 0.971970
Cu2   Cu    Cu3+1 0.901720 0.524580 0.483740 0.939845
H1    H     H_    0.456252 0.223015 0.375791 0.111346
H2    H     H_    0.665129 0.266911 0.403994 0.144511
H3    H     H_    0.065732 0.283384 0.629459 0.171820
H4    H     H_    0.708069 0.410106 0.712887 0.166616
H5    H     H_    0.884302 0.270309 0.921268 0.155150
H6    H     H_    0.284710 0.566706 0.391675 0.104802
H7    H     H_    0.810280 0.634534 0.356101 0.153196
H8    H     H_    0.435461 0.517997 0.369264 0.101757
H9    H     H_    0.608061 0.609661 0.299841 0.136660
H10   H     H_    0.848557 0.683202 0.578162 0.129949
H11   H     H_    0.083634 0.796155 0.783829 0.116818
H12   H     H_    0.381477 0.323389 0.680714 0.222864
H13   H     H_    0.048054 0.678448 0.693124 0.106399
H14   H     H_    0.840817 0.290826 0.355195 0.099508
H15   H     H_    0.178498 0.704409 0.343808 0.125140
H16   H     H_    0.153893 0.673161 0.150224 0.199360
H17   H     H_    0.088613 0.888768 0.426868 0.178939
H18   H     H_    0.851399 0.341080 0.157161 0.195772
H19   H     H_    0.925328 0.209572 0.761146 0.193554
H20   H     H_    0.274285 0.205562 0.384912 0.096782
H21   H     H_    0.380103 0.807850 0.534514 0.176167
H22   H     H_    0.903292 0.110580 0.576721 0.109383
H23   H     H_    0.429167 0.894616 0.639015 0.096450
H24   H     H_    0.864383 0.937290 0.663005 0.105350
N1    N     N_R   0.099796 0.572299 0.966216 -0.149056
N2    N     N_R   0.101787 0.573243 0.035419 -0.188670
N3    N     N_R   0.894856 0.447803 0.029940 -0.196595
N4    N     N_R   0.892610 0.447521 0.960723 -0.205917
N5    N     N_R   0.246290 0.438200 0.540910 -0.281473
N6    N     N_R   0.754310 0.561190 0.459520 -0.261734
O1    O     O_R   0.972510 0.318130 0.520450 -0.524661
O2    O     O_2   0.114360 0.080814 0.358602 -0.478572
O3    O     O_2   0.554654 0.853777 0.698613 -0.407917
O4    O     O_2   0.705914 0.801757 0.649801 -0.395419
O5    O     O_2   0.179446 0.270316 0.712021 -0.494769
O6    O     O_2   0.547038 0.277378 0.706584 -0.490877
O7    O     O_2   0.005211 0.240504 0.884201 -0.449299
O8    O     O_2   0.411264 0.684667 0.448723 -0.491123
O9    O     O_2   0.786609 0.621770 0.672845 -0.491381
O10   O     O_2   0.012454 0.727398 0.875411 -0.426931
O11   O     O_2   0.747952 0.227593 0.266451 -0.469417
O12   O     O_R   0.806530 0.359650 0.492990 -0.489092
O13   O     O_2   0.256486 0.781650 0.255202 -0.454512
O14   O     O_R   0.083010 0.479220 0.613590 -0.493949
O15   O     O_R   0.917030 0.520740 0.586130 -0.506576
O16   O     O_R   0.193470 0.640350 0.507010 -0.476098
O17   O     O_R   0.027490 0.681870 0.479550 -0.521817
O18   O     O_R   0.082970 0.479260 0.413870 -0.531474
O19   O     O_R   0.916990 0.520780 0.386410 -0.521082
O20   O     O_2   0.851783 0.265652 0.671195 -0.529482

loop_
_geom_bond_atom_site_label_1
_geom_bond_atom_site_label_2
_ccdc_geom_bond_type
C55   C56   A    
C18   H17   S    
C49   H10   S    
C27   C29   A    
C34   C37   S    
C15   H2    S    
C35   C36   A    
C7    C8    A    
C53   C54   A    
C6    C19   A    
C29   C30   A    
Cu1   O1    S    
C46   H4    S    
C45   H18   S    
C36   C37   A    
C50   H11   S    
C8    C42   S    
Cu2   O19   S    
C10   C15   A    
C47   H5    S    
C38   C39   A    
C48   H6    S    
C5    C17   A    
C28   O19   A    
C4    O15   A    
C17   H21   S    
C36   C47   S    
C42   O3    D    
C34   N4    A    
C1    C19   S    
C5    C16   S    
C44   O5    D    
C16   O16   A    
C11   C17   A    
C28   O18   A    
C8    C9    A    
C4    O14   A    
C7    C43   S    
C4    C12   S    
C9    C10   A    
C3    C13   A    
C52   C55   S    
C24   H8    S    
C40   O20   D    
Cu1   O18   S    
C21   N6    A    
C45   C53   A    
C26   C31   A    
C39   H13   S    
C13   C14   A    
C32   C48   S    
C20   H12   S    
C42   H23   S    
C31   C49   S    
C1    O12   A    
C3    C18   A    
C20   C29   A    
C2    C45   A    
C51   O11   D    
C52   O13   D    
C50   O10   D    
C56   H16   S    
C23   N2    A    
Cu2   O12   S    
C24   C25   A    
C52   H15   S    
C41   H20   S    
C28   C54   S    
C5    C18   A    
C25   C26   A    
N3    N4    A    
C32   N5    A    
Cu1   N5    S    
C51   C53   S    
C37   C38   A    
C14   H1    S    
C6    H22   S    
N1    N2    A    
C46   O6    D    
C10   C19   A    
C12   C35   A    
C9    C11   A    
Cu1   O14   S    
C16   O17   A    
C20   C33   A    
C22   C24   A    
C34   N1    A    
C51   H14   S    
Cu1   O16   S    
C54   C55   A    
C3    C41   S    
C1    O1    A    
C48   O8    D    
C21   H7    S    
C27   C32   A    
C40   H19   S    
C33   C44   S    
C30   C46   S    
Cu2   N6    S    
C6    C7    A    
C38   C50   S    
C44   H3    S    
C25   C27   A    
C43   O4    D    
Cu2   O17   S    
C12   C39   A    
C35   C40   S    
C33   N5    A    
C2    C56   A    
C11   C13   A    
Cu1   Cu2   S    
C30   C31   A    
C41   O2    D    
C22   H9    S    
C49   O9    D    
C26   N6    A    
C23   N3    A    
C2    C23   S    
C43   H24   S    
C47   O7    D    
C14   C15   A    
Cu2   O15   S    
C21   C22   A    
