data_mof_unit_11265.cif
_audit_creation_date              2012-12-11T15:55:45-0500
_audit_creation_method            fapswitch 2.2
_symmetry_space_group_name_H-M    P1
_symmetry_Int_Tables_number       1
_space_group_crystal_system       triclinic
_cell_length_a                    6.928544
_cell_length_b                    14.54485
_cell_length_c                    16.091101
_cell_angle_alpha                 89.933735
_cell_angle_beta                  89.753341
_cell_angle_gamma                 89.925466
_cell_volume                      1621.55732856

loop_
_atom_site_label
_atom_site_type_symbol
_atom_type_description
_atom_site_fract_x
_atom_site_fract_y
_atom_site_fract_z
_atom_type_partial_charge
O1    O     O_R   0.505680 0.583900 0.413320 -0.556841
O2    O     O_R   0.176010 0.594950 0.586080 -0.529230
O3    O     O_R   0.005680 0.416100 0.586680 -0.520309
C1    C     C_R   0.344480 0.616621 0.615649 0.782097
O4    O     O_R   0.175960 0.594930 0.413930 -0.518102
O5    O     O_R   0.005640 0.416080 0.413300 -0.507469
C2    C     C_R   0.345543 0.617376 0.384999 0.763879
O6    O     O_R   0.505720 0.583920 0.586700 -0.510852
O7    O     O_3   0.339190 0.441320 0.500000 -0.352102
V1    V     V_3+5 0.064350 0.510890 0.500000 1.645751
O8    O     O_R   0.675920 0.405050 0.413920 -0.556966
C3    C     C_R   0.845602 0.383675 0.384394 0.744573
O9    O     O_R   0.675960 0.405070 0.586070 -0.528530
C4    C     C_R   0.844587 0.383258 0.614980 0.772860
V2    V     V_3+5 0.564340 0.489110 0.500000 1.607616
O10   O     O_3   0.839370 0.558680 0.500000 -0.362439
C5    C     C_R   0.983520 0.241643 0.682106 0.032566
C6    C     C_R   0.851878 0.314670 0.682856 -0.146846
C7    C     C_R   0.720847 0.318928 0.749878 -0.113622
H1    H     H_    0.616845 0.374449 0.752663 0.180462
C8    C     C_R   0.732490 0.256512 0.817087 0.230088
C9    C     C_R   0.875983 0.186628 0.817927 -0.122625
C10   C     C_R   0.994357 0.178941 0.747409 -0.047260
C11   C     C_3   0.208533 0.169332 0.739925 -0.449080
C12   C     C_3   0.197594 0.239302 0.669128 0.584793
H2    H     H_    0.251013 0.099159 0.719555 0.183577
H3    H     H_    0.285088 0.194237 0.795968 0.206479
C13   C     C_R   0.029583 0.243969 0.199240 -0.230733
H4    H     H_    0.154866 0.241232 0.158791 0.165004
C14   C     C_R   0.023181 0.310025 0.263330 0.403253
C15   C     C_R   0.858599 0.315526 0.315523 -0.121920
C16   C     C_R   0.705385 0.254398 0.302392 -0.230035
H5    H     H_    0.579659 0.256655 0.342624 0.196263
C17   C     C_R   0.712928 0.188102 0.239521 0.275985
C18   C     C_R   0.875937 0.182823 0.185977 -0.133145
C19   C     C_R   0.206000 0.691886 0.745453 0.213278
C20   C     C_R   0.218292 0.756881 0.809412 -0.174904
H6    H     H_    0.102700 0.760914 0.854833 0.160264
C21   C     C_R   0.379754 0.814156 0.817069 -0.126527
C22   C     C_R   0.529342 0.806488 0.758635 -0.213717
H7    H     H_    0.653803 0.851142 0.763709 0.123937
C23   C     C_R   0.517417 0.743717 0.691935 0.386277
C24   C     C_R   0.354761 0.685074 0.684859 -0.143789
C25   C     C_R   0.205070 0.692999 0.257457 0.352671
C26   C     C_R   0.216411 0.758372 0.192721 -0.234451
H8    H     H_    0.099400 0.763867 0.148519 0.125831
C27   C     C_R   0.378947 0.814844 0.183323 -0.146993
C28   C     C_R   0.530082 0.806809 0.240267 -0.132476
H9    H     H_    0.655526 0.850883 0.234774 0.163826
C29   C     C_R   0.521506 0.743260 0.305514 0.290210
C30   C     C_R   0.357657 0.685403 0.315391 -0.158632
O11   O     O_R   0.229200 0.915950 0.913350 -0.550966
O12   O     O_R   0.559090 0.905000 0.086080 -0.546075
O13   O     O_R   0.729280 0.083880 0.086680 -0.510925
C31   C     C_R   0.389899 0.882848 0.114820 0.769759
O14   O     O_R   0.558920 0.904980 0.913920 -0.546877
O15   O     O_R   0.729110 0.083860 0.913300 -0.525698
C32   C     C_R   0.390204 0.882685 0.885247 0.703951
O16   O     O_R   0.229360 0.915970 0.086730 -0.540480
O17   O     O_3   0.395680 0.058580 0.000030 -0.337764
V3    V     V_3+5 0.670570 0.989070 0.999990 1.507852
O18   O     O_R   0.058820 0.094950 0.913870 -0.540379
C33   C     C_R   0.889540 0.118454 0.886296 0.755840
O19   O     O_R   0.058990 0.094970 0.086020 -0.532772
C34   C     C_R   0.889215 0.115422 0.116350 0.780981
V4    V     V_3+5 0.170560 0.010930 0.999930 1.514607
O20   O     O_3   0.895590 0.941310 0.999960 -0.389654
Br1   Br    Br    0.498564 0.104248 0.235425 -0.529041
Br2   Br    Br    0.987695 0.610350 0.749198 -0.548146
O21   O     O_3   0.661333 0.740122 0.632258 -0.610882
H10   H     H_    0.763865 0.784909 0.646382 0.307275
O22   O     O_3   0.048894 0.634358 0.263588 -0.640867
H11   H     H_    0.956141 0.648453 0.218546 0.281815
O23   O     O_3   0.671307 0.742610 0.361137 -0.613838
H12   H     H_    0.739265 0.683397 0.352768 0.320012
Br3   Br    Br    0.565846 0.278217 0.910768 -0.552405
Br4   Br    Br    0.270192 0.190765 0.561192 -0.480286
O24   O     O_3   0.289411 0.323331 0.686491 -0.626034
H13   H     H_    0.242190 0.346165 0.741095 0.294893
O25   O     O_3   0.174257 0.370679 0.274531 -0.629812
H14   H     H_    0.278039 0.356870 0.233763 0.293969

loop_
_geom_bond_atom_site_label_1
_geom_bond_atom_site_label_2
_ccdc_geom_bond_type
C31   O16   A    
C4    C6    S    
C7    H1    S    
C11   H3    S    
C1    O6    A    
O13   C34   A    
C26   H8    S    
C19   Br2   S    
C8    Br3   S    
C5    C10   A    
C12   Br4   S    
C13   H4    S    
C7    C8    A    
C20   H6    S    
C11   H2    S    
C6    C7    A    
C29   O23   S    
O16   V4    S    
O5    C3    A    
C14   C15   A    
C18   C34   S    
V2    O10   S    
C23   O21   S    
C17   C18   A    
C9    C33   S    
O8    V2    S    
C27   C28   A    
C13   C18   A    
C10   C11   S    
O21   H10   S    
O1    V2    S    
O7    V1    S    
C14   O25   S    
C26   C27   A    
V4    O20   S    
O17   V4    S    
O9    C4    A    
O12   V3    S    
O15   C33   A    
O12   C31   A    
O23   H12   S    
O18   V4    S    
C12   O24   S    
C11   C12   S    
C17   Br1   S    
C21   C22   A    
O4    C2    A    
O24   H13   S    
O22   H11   S    
C29   C30   A    
C21   C32   S    
O17   V3    S    
C16   C17   A    
O2    C1    A    
O18   C33   A    
V3    O20   S    
C22   C23   A    
C15   C16   A    
C5    C6    A    
O14   V3    S    
O3    C4    A    
O11   C32   A    
C25   C30   A    
C28   H9    S    
O13   V3    S    
O6    V2    S    
O9    V2    S    
C3    C15   S    
C23   C24   A    
O2    V1    S    
O11   V4    S    
C25   C26   A    
C27   C31   S    
C22   H7    S    
O1    C2    A    
O25   H14   S    
O5    V1    S    
O8    C3    A    
O15   V3    S    
C1    C24   S    
C5    C12   S    
O19   C34   A    
C13   C14   A    
O7    V2    S    
C2    C30   S    
O4    V1    S    
C20   C21   A    
O3    V1    S    
V1    O10   S    
C16   H5    S    
C28   C29   A    
O14   C32   A    
C25   O22   S    
C19   C20   A    
C9    C10   A    
C19   C24   A    
C8    C9    A    
O19   V4    S    
