data_mof_unit_24488.cif
_audit_creation_date              2012-12-10T19:13:40-0500
_audit_creation_method            fapswitch 2.2
_symmetry_space_group_name_H-M    P1
_symmetry_Int_Tables_number       1
_space_group_crystal_system       triclinic
_cell_length_a                    11.059842
_cell_length_b                    15.993047
_cell_length_c                    14.766739
_cell_angle_alpha                 89.709018
_cell_angle_beta                  102.489907
_cell_angle_gamma                 89.908628
_cell_volume                      2550.09258644

loop_
_atom_site_label
_atom_site_type_symbol
_atom_type_description
_atom_site_fract_x
_atom_site_fract_y
_atom_site_fract_z
_atom_type_partial_charge
C1    C     C_R   0.500210 0.340878 0.500230 0.823793
C2    C     C_R   0.500161 0.659142 0.499817 0.823144
C3    C     C_R   0.574458 0.556486 0.963613 0.324372
C4    C     C_R   0.422894 0.444229 0.036126 0.329137
C5    C     C_R   0.500395 0.498957 0.902946 -0.285718
C6    C     C_R   0.496880 0.501481 0.096592 -0.282935
C7    C     C_R   0.425669 0.442186 0.940459 0.331557
C8    C     C_R   0.569768 0.559049 0.059257 0.331972
C9    C     C_1   0.499866 0.499354 0.802608 0.240272
C10   C     C_1   0.498856 0.500747 0.197184 0.275741
C11   C     C_R   0.262371 0.499232 0.462941 0.867512
C12   C     C_R   0.737676 0.500549 0.537103 0.868173
C13   C     C_2   0.128127 0.495946 0.441930 -0.350644
C14   C     C_2   0.872034 0.503242 0.558297 -0.357575
C15   C     C_2   0.067087 0.502771 0.510123 -0.155381
C16   C     C_2   0.932986 0.498256 0.489878 -0.148548
C17   C     C_R   0.500938 0.955723 0.582951 0.484522
C18   C     C_R   0.509513 0.044304 0.419054 0.462688
C19   C     C_R   0.504006 0.912763 0.500735 -0.008957
C20   C     C_R   0.503845 0.087338 0.500639 -0.006266
C21   C     C_R   0.510487 0.956737 0.419753 -0.349425
C22   C     C_R   0.497598 0.043412 0.581617 -0.354555
C23   C     C_1   0.502387 0.823235 0.499524 0.025051
C24   C     C_1   0.502544 0.176837 0.501180 0.027059
C25   C     C_1   0.501340 0.251838 0.500906 -0.171274
C26   C     C_1   0.501216 0.748216 0.499428 -0.173668
Cu1   Cu    Cu3+1 0.500030 0.500000 0.589230 0.973936
Cu2   Cu    Cu3+1 0.499970 0.500000 0.410770 0.972693
H1    H     H_    0.921250 0.510379 0.629931 0.148663
H2    H     H_    0.079180 0.486367 0.370724 0.146376
H3    H     H_    0.490165 0.077123 0.643684 0.169492
H4    H     H_    0.516361 0.923227 0.357227 0.173414
N1    N     N_1   0.500040 0.499980 0.276720 -0.172602
N2    N     N_1   0.499960 0.500020 0.723280 -0.172221
O1    O     O_R   0.500060 0.380310 0.575330 -0.571028
O2    O     O_R   0.499940 0.619690 0.424670 -0.572429
O3    O     O_R   0.500000 0.380310 0.424640 -0.568008
O4    O     O_R   0.500000 0.619690 0.575360 -0.564799
O5    O     O_R   0.320710 0.500010 0.547660 -0.582340
O6    O     O_R   0.679290 0.499990 0.452340 -0.584387
O7    O     O_R   0.320650 0.500010 0.396960 -0.579333
O8    O     O_R   0.679350 0.499990 0.603040 -0.580121
H5    H     H_    0.883793 0.490862 0.418153 0.186049
H6    H     H_    0.116214 0.511833 0.581608 0.177954
O9    O     O_3   0.490803 0.911473 0.661930 -0.600893
C27   C     C_3   0.600508 0.919793 0.731447 0.064955
H7    H     H_    0.576403 0.906531 0.799323 0.180736
H8    H     H_    0.639220 0.984332 0.736297 0.125951
C28   C     C_3   0.698742 0.856306 0.717173 -0.353224
H9    H     H_    0.659633 0.792152 0.714595 0.237297
H10   H     H_    0.725947 0.869269 0.650330 0.213075
C29   C     C_3   0.814048 0.860760 0.795360 -0.918136
H11   H     H_    0.854918 0.924371 0.798808 0.260896
H12   H     H_    0.884069 0.815129 0.782370 0.259356
H13   H     H_    0.790394 0.845370 0.862893 0.260526
O10   O     O_3   0.521939 0.088057 0.340573 -0.599226
C30   C     C_3   0.406237 0.090225 0.277365 0.034050
H14   H     H_    0.331864 0.113561 0.311311 0.138577
H15   H     H_    0.381548 0.026661 0.248838 0.146965
C31   C     C_3   0.414862 0.149563 0.197548 -0.281397
H16   H     H_    0.437439 0.213519 0.225246 0.237818
H17   H     H_    0.490262 0.128385 0.163961 0.229000
C32   C     C_3   0.293505 0.152607 0.125041 -0.916249
H18   H     H_    0.270846 0.089725 0.094525 0.254592
H19   H     H_    0.302650 0.196797 0.068670 0.285577
H20   H     H_    0.216834 0.174236 0.156919 0.246889
O11   O     O_3   0.625716 0.623654 0.114902 -0.573510
C33   C     C_3   0.754005 0.608412 0.145029 0.084078
H21   H     H_    0.803503 0.642211 0.098139 0.177651
H22   H     H_    0.779264 0.540605 0.146520 0.104650
C34   C     C_3   0.797243 0.642866 0.243015 -0.328073
H23   H     H_    0.762525 0.707860 0.245947 0.238011
H24   H     H_    0.758740 0.603652 0.292366 0.223190
C35   C     C_3   0.938228 0.643259 0.272154 -0.933906
H25   H     H_    0.975750 0.580481 0.262192 0.246696
H26   H     H_    0.967044 0.660593 0.346414 0.271279
H27   H     H_    0.977335 0.689396 0.229903 0.259913
O12   O     O_3   0.363491 0.378349 0.886869 -0.570923
C36   C     C_3   0.253626 0.408861 0.828345 0.074921
H28   H     H_    0.272583 0.424391 0.759311 0.157753
H29   H     H_    0.215292 0.465772 0.855655 0.107949
C37   C     C_3   0.156158 0.339785 0.816303 -0.308174
H30   H     H_    0.193336 0.282620 0.789388 0.231303
H31   H     H_    0.135109 0.324503 0.884763 0.222238
C38   C     C_3   0.036949 0.365902 0.749189 -0.941772
H32   H     H_    0.996490 0.421790 0.775720 0.249841
H33   H     H_    0.968720 0.314202 0.742040 0.264976
H34   H     H_    0.055688 0.379975 0.679801 0.264516
O13   O     O_3   0.645564 0.614887 0.929264 -0.574680
C39   C     C_3   0.755321 0.576055 0.915496 0.051556
H35   H     H_    0.734812 0.531370 0.856845 0.154783
H36   H     H_    0.803841 0.541489 0.978704 0.106907
C40   C     C_3   0.842054 0.643107 0.892093 -0.305943
H37   H     H_    0.795011 0.676685 0.828063 0.233988
H38   H     H_    0.863761 0.688928 0.949625 0.216540
C41   C     C_3   0.962518 0.605105 0.876492 -0.956825
H39   H     H_    0.010895 0.570259 0.939232 0.250418
H40   H     H_    0.024254 0.655664 0.861651 0.262782
H41   H     H_    0.943027 0.562121 0.816340 0.253013
O14   O     O_3   0.349249 0.387547 0.070384 -0.575568
C42   C     C_3   0.237088 0.427663 0.076244 0.069793
H42   H     H_    0.187249 0.450527 0.006896 0.127911
H43   H     H_    0.254428 0.481625 0.124647 0.139766
C43   C     C_3   0.153699 0.365609 0.112421 -0.307498
H44   H     H_    0.132737 0.312236 0.063702 0.217508
H45   H     H_    0.202612 0.341295 0.181318 0.228576
C44   C     C_3   0.032304 0.406676 0.121829 -0.960027
H46   H     H_    0.050790 0.459420 0.171522 0.252978
H47   H     H_    0.973705 0.360083 0.148067 0.262220
H48   H     H_    0.980930 0.430345 0.053393 0.250702

loop_
_geom_bond_atom_site_label_1
_geom_bond_atom_site_label_2
_ccdc_geom_bond_type
C32   H19   S    
C40   H37   S    
C18   C21   A    
C43   H45   S    
C39   H35   S    
C38   H32   S    
C27   C28   S    
C42   H42   S    
C35   H26   S    
C31   C32   S    
C19   C21   A    
C17   O9    S    
C15   H6    S    
C30   H15   S    
Cu2   O6    S    
Cu1   O4    S    
C15   C16   S    
C41   H41   S    
Cu2   O7    S    
O10   C30   S    
C31   H17   S    
C23   C26   T    
C12   O8    A    
C20   C24   S    
Cu1   O5    S    
C33   H21   S    
C28   H10   S    
C35   H27   S    
C41   H40   S    
C44   H46   S    
C29   H13   S    
C18   O10   S    
C32   H20   S    
C40   H38   S    
C1    C25   S    
C44   H47   S    
C4    C7    A    
C43   H44   S    
C29   H12   S    
C38   H33   S    
Cu1   N2    S    
C21   H4    S    
C27   H8    S    
C35   H25   S    
O11   C33   S    
C13   H2    S    
C24   C25   T    
C4    C6    A    
C3    C8    A    
C22   H3    S    
C36   H29   S    
O12   C36   S    
C30   C31   S    
C6    C8    A    
Cu1   O1    S    
O9    C27   S    
C32   H18   S    
C31   H16   S    
C12   O6    A    
C19   C23   S    
C5    C9    S    
C36   C37   S    
C2    O4    A    
C39   H36   S    
C28   C29   S    
C41   H39   S    
C2    C26   S    
C11   O5    A    
C16   H5    S    
C7    O12   S    
C20   C22   A    
Cu2   N1    S    
C28   H9    S    
C42   C43   S    
C37   H31   S    
C13   C15   D    
C9    N2    T    
C44   H48   S    
C14   C16   D    
C14   H1    S    
C29   H11   S    
C1    O1    A    
C39   C40   S    
C5    C7    A    
C42   H43   S    
C38   H34   S    
C2    O2    A    
C27   H7    S    
C12   C14   S    
C3    C5    A    
C6    C10   S    
C34   C35   S    
C1    O3    A    
C40   C41   S    
C37   C38   S    
C17   C22   A    
C3    O13   S    
C4    O14   S    
C34   H23   S    
C11   C13   S    
Cu1   O8    S    
C30   H14   S    
Cu2   O3    S    
C33   C34   S    
O14   C42   S    
C17   C19   A    
C11   O7    A    
C10   N1    T    
C18   C20   A    
C36   H28   S    
Cu2   O2    S    
C8    O11   S    
C33   H22   S    
C37   H30   S    
C34   H24   S    
Cu1   Cu2   S    
O13   C39   S    
C43   C44   S    
