data_mof_unit_41904.cif
_audit_creation_date              2012-12-10T19:25:56-0500
_audit_creation_method            fapswitch 2.2
_symmetry_space_group_name_H-M    P1
_symmetry_Int_Tables_number       1
_space_group_crystal_system       triclinic
_cell_length_a                    9.823292
_cell_length_b                    10.602984
_cell_length_c                    16.907012
_cell_angle_alpha                 90.82396
_cell_angle_beta                  88.582719
_cell_angle_gamma                 88.860573
_cell_volume                      1759.88857817

loop_
_atom_site_label
_atom_site_type_symbol
_atom_type_description
_atom_site_fract_x
_atom_site_fract_y
_atom_site_fract_z
_atom_type_partial_charge
C1    C     C_R   0.498633 0.742213 0.499739 1.000717
C2    C     C_3   0.593847 0.955590 0.449394 0.360777
C3    C     C_3   0.950198 0.612618 0.504630 0.519602
C4    C     C_3   0.049498 0.387461 0.495743 0.492128
C5    C     C_3   0.047818 0.560313 0.440942 0.546934
C6    C     C_3   0.951682 0.440053 0.559313 0.549346
C7    C     C_3   0.045964 0.553228 0.564865 -0.491312
C8    C     C_3   0.953887 0.446852 0.435353 -0.509223
C9    C     C_R   0.485687 0.498080 0.652685 0.911295
C10   C     C_R   0.515332 0.495162 0.347711 0.957737
C11   C     C_R   0.490238 0.470466 0.736999 -0.294855
C12   C     C_R   0.501340 0.257898 0.501710 1.021919
C13   C     C_R   0.518960 0.478355 0.262331 -0.260109
C14   C     C_R   0.617311 0.468709 0.775613 0.438239
C15   C     C_R   0.422483 0.402720 0.224979 0.417716
C16   C     C_R   0.628868 0.405785 0.847241 0.373603
C17   C     C_R   0.428970 0.387327 0.142360 0.370934
C18   C     C_R   0.511194 0.361699 0.885042 -0.183411
C19   C     C_R   0.527313 0.453274 0.098638 -0.138248
C20   C     C_R   0.384155 0.368229 0.849171 0.518375
C21   C     C_R   0.625433 0.526734 0.135748 0.523523
C22   C     C_R   0.374468 0.422362 0.774838 -0.379201
C23   C     C_3   0.374585 0.965099 0.480658 0.363412
C24   C     C_R   0.619465 0.539054 0.218282 -0.425795
C25   C     C_2   0.515527 0.346997 0.969831 0.008627
C26   C     C_2   0.523178 0.453021 0.012900 -0.052222
C27   C     C_3   0.724653 0.651674 0.747412 -0.283070
C28   C     C_3   0.196302 0.397702 0.258605 -0.194450
C29   C     C_3   0.961470 0.815104 0.554194 -0.279450
C30   C     C_3   0.035853 0.184140 0.448248 -0.276158
C31   C     C_3   0.225666 0.216161 0.858514 -0.310601
C32   C     C_3   0.849267 0.591622 0.120339 -0.354011
C33   C     C_3   0.341449 0.191945 0.116880 -0.289597
C34   C     C_3   0.625440 0.035156 0.523099 0.367702
C35   C     C_3   0.821922 0.485819 0.903925 -0.194521
C36   C     C_3   0.477996 0.021913 0.291432 -0.262929
C37   C     C_3   0.518912 0.970864 0.712704 -0.343460
C38   C     C_3   0.218266 0.904780 0.387653 -0.260942
C39   C     C_3   0.779417 0.099089 0.616459 -0.250432
C40   C     C_3   0.211710 0.024515 0.633279 -0.244300
C41   C     C_3   0.785236 0.978467 0.368387 -0.253646
C42   C     C_3   0.004741 0.659116 0.323603 -0.429317
C43   C     C_3   0.987262 0.353371 0.681369 -0.264145
C44   C     C_3   0.472532 0.042390 0.428956 0.285403
C45   C     C_3   0.527688 0.957523 0.574778 0.303024
C46   C     C_3   0.504211 0.122962 0.502602 -0.405293
C47   C     C_3   0.495868 0.877269 0.500937 -0.396506
C48   C     C_3   0.406364 0.044690 0.554509 0.367009
H1    H     H_    0.089559 0.596825 0.618449 0.164589
H2    H     H_    0.131865 0.380268 0.311589 0.183901
H3    H     H_    0.939445 0.913309 0.537647 0.223081
H4    H     H_    0.073728 0.801470 0.548335 0.196115
H5    H     H_    0.927234 0.802349 0.616572 0.145119
H6    H     H_    0.069465 0.194213 0.385535 0.156021
H7    H     H_    0.923778 0.199237 0.454381 0.195060
H8    H     H_    0.056790 0.086315 0.465978 0.218606
H9    H     H_    0.689479 0.599690 0.248448 0.197617
H10   H     H_    0.276797 0.425209 0.746507 0.196731
H11   H     H_    0.307869 0.142451 0.860745 0.144213
H12   H     H_    0.909673 0.403053 0.382018 0.162504
H13   H     H_    0.190549 0.226768 0.796914 0.154272
H14   H     H_    0.138071 0.183238 0.894788 0.196125
H15   H     H_    0.923718 0.611861 0.072023 0.187098
H16   H     H_    0.878395 0.498126 0.144821 0.162326
H17   H     H_    0.857780 0.667760 0.165601 0.167036
H18   H     H_    0.275663 0.166550 0.168156 0.195034
H19   H     H_    0.448477 0.158779 0.125538 0.126120
H20   H     H_    0.303603 0.140179 0.064612 0.178206
H21   H     H_    0.892812 0.517818 0.856580 0.187938
H22   H     H_    0.884796 0.460891 0.955195 0.196434
H23   H     H_    0.529602 0.543737 0.983837 0.137064
H24   H     H_    0.751518 0.564270 0.923580 0.148659
H25   H     H_    0.397647 0.031814 0.247243 0.151988
H26   H     H_    0.484390 0.919743 0.305255 0.160831
H27   H     H_    0.575169 0.051857 0.263470 0.173450
H28   H     H_    0.415158 0.945895 0.733442 0.185195
H29   H     H_    0.523854 0.074149 0.702659 0.180849
H30   H     H_    0.589038 0.948764 0.761254 0.165971
H31   H     H_    0.112682 0.872680 0.381848 0.203042
H32   H     H_    0.288324 0.831721 0.360687 0.191103
H33   H     H_    0.221983 0.995441 0.355996 0.186210
H34   H     H_    0.513078 0.254038 0.995516 0.152022
H35   H     H_    0.775074 0.010033 0.649823 0.180320
H36   H     H_    0.708214 0.172977 0.641460 0.197235
H37   H     H_    0.884703 0.131983 0.622711 0.198440
H38   H     H_    0.245506 0.923705 0.635708 0.158233
H39   H     H_    0.124405 0.034456 0.593657 0.202412
H40   H     H_    0.175195 0.053302 0.693550 0.127780
H41   H     H_    0.874275 0.972799 0.407016 0.197265
H42   H     H_    0.747609 0.078055 0.364835 0.162764
H43   H     H_    0.820358 0.948233 0.308082 0.139026
H44   H     H_    0.921017 0.717255 0.351683 0.242027
H45   H     H_    0.824907 0.690090 0.729871 0.173169
H46   H     H_    0.962942 0.573379 0.295435 0.158369
H47   H     H_    0.051301 0.715609 0.275711 0.168811
H48   H     H_    0.011177 0.443740 0.711558 0.179096
H49   H     H_    0.081998 0.305818 0.657608 0.182398
H50   H     H_    0.942117 0.291290 0.726847 0.191391
H51   H     H_    0.700350 0.685343 0.808892 0.111242
H52   H     H_    0.648127 0.690454 0.706763 0.224675
H53   H     H_    0.145507 0.353878 0.207548 0.165287
H54   H     H_    0.200588 0.501680 0.250672 0.171562
N1    N     N_3   0.136700 0.499970 0.500060 -0.154065
N2    N     N_3   0.863300 0.500030 0.499940 -0.147841
O1    O     O_R   0.383390 0.686040 0.500000 -0.606962
O2    O     O_3   0.325478 0.341136 0.270005 -0.563615
O3    O     O_3   0.890247 0.734407 0.503886 -0.549404
O4    O     O_3   0.108963 0.265577 0.497119 -0.543354
O5    O     O_3   0.268091 0.332211 0.890201 -0.569805
O6    O     O_3   0.717431 0.592771 0.088814 -0.614214
O7    O     O_3   0.329349 0.322557 0.102663 -0.584766
O8    O     O_3   0.754745 0.376387 0.878820 -0.601500
O9    O     O_3   0.444160 0.101975 0.356752 -0.564134
O10   O     O_3   0.558082 0.895980 0.646025 -0.622611
O11   O     O_3   0.242013 0.921574 0.468489 -0.620014
O12   O     O_R   0.616610 0.313960 0.500000 -0.610782
O13   O     O_3   0.758059 0.078225 0.535659 -0.623069
O14   O     O_3   0.315516 0.106394 0.609176 -0.579905
O15   O     O_3   0.685764 0.894210 0.395224 -0.578964
O16   O     O_3   0.106349 0.628023 0.378053 -0.592168
O17   O     O_3   0.891352 0.372723 0.621820 -0.559295
O18   O     O_R   0.616650 0.686050 0.499970 -0.533509
O19   O     O_R   0.383350 0.313950 0.500030 -0.521017
O20   O     O_R   0.369590 0.500020 0.615820 -0.637637
O21   O     O_R   0.630410 0.499980 0.384180 -0.639279
O22   O     O_R   0.602840 0.500020 0.615790 -0.546698
O23   O     O_R   0.397160 0.499980 0.384210 -0.559257
O24   O     O_3   0.733438 0.518727 0.741510 -0.550577
Zn1   Zn    Zn3+2 0.344250 0.499990 0.500020 1.049871
Zn2   Zn    Zn3+2 0.655750 0.500010 0.499980 1.051716

loop_
_geom_bond_atom_site_label_1
_geom_bond_atom_site_label_2
_ccdc_geom_bond_type
C3    N2    S    
C41   H41   S    
C5    N1    S    
C31   H13   S    
C40   O14   S    
C43   H50   S    
C4    C8    S    
C21   O6    S    
C30   H6    S    
C27   H51   S    
C38   H32   S    
C15   O2    S    
C45   O10   S    
C19   C21   A    
C39   H36   S    
C3    C7    S    
C11   C14   A    
C38   H31   S    
O22   Zn2   S    
C31   H11   S    
C4    N1    S    
C9    O20   A    
C14   O24   S    
C40   H38   S    
C19   C26   S    
C1    O18   A    
C28   H2    S    
C28   H53   S    
C35   H22   S    
C28   O2    S    
C24   H9    S    
C34   C46   S    
C6    N2    S    
C10   O21   A    
C43   O17   S    
C42   H44   S    
C2    C34   S    
C34   O13   S    
C41   H42   S    
C7    N1    S    
O19   Zn1   S    
C26   H23   S    
C31   H14   S    
C18   C25   S    
C36   O9    S    
C17   O7    S    
C44   C46   S    
C33   H18   S    
C45   C47   S    
C46   C48   S    
C27   H52   S    
C23   C47   S    
C5    O16   S    
C42   H47   S    
C32   H16   S    
C12   C46   S    
C2    C44   S    
C1    C47   S    
O1    Zn1   S    
C37   O10   S    
C3    O3    S    
C25   C26   D    
C39   O13   S    
C37   H29   S    
C23   C44   S    
C13   C24   A    
O23   Zn1   S    
C22   H10   S    
C36   H27   S    
N1    Zn1   S    
C27   O24   S    
C16   O8    S    
C43   H48   S    
C31   O5    S    
C34   C45   S    
C41   O15   S    
C8    N2    S    
C7    H1    S    
C36   H26   S    
C33   O7    S    
C4    C6    S    
C41   H43   S    
C37   H28   S    
C20   C22   A    
C44   O9    S    
C9    C11   S    
C38   H33   S    
C25   H34   S    
C14   C16   A    
C27   H45   S    
C39   H37   S    
C10   O23   A    
C40   H39   S    
C29   H3    S    
C45   C48   S    
C15   C17   A    
C23   C48   S    
C30   O4    S    
C42   H46   S    
C43   H49   S    
C32   H15   S    
C3    C5    S    
C10   C13   S    
C35   H24   S    
C5    C8    S    
C48   O14   S    
C2    O15   S    
C30   H8    S    
C6    C7    S    
C2    C47   S    
C30   H7    S    
C11   C22   A    
C9    O22   A    
C40   H40   S    
C13   C15   A    
C39   H35   S    
C33   H19   S    
C8    H12   S    
C38   O11   S    
C42   O16   S    
C12   O19   A    
C29   H5    S    
C17   C19   A    
O20   Zn1   S    
C18   C20   A    
C36   H25   S    
O21   Zn2   S    
C23   O11   S    
C20   O5    S    
C28   H54   S    
O12   Zn2   S    
C35   H21   S    
C16   C18   A    
C32   O6    S    
C21   C24   A    
C29   O3    S    
N2    Zn2   S    
C4    O4    S    
C6    O17   S    
C37   H30   S    
O18   Zn2   S    
C35   O8    S    
C33   H20   S    
C1    O1    A    
C32   H17   S    
C12   O12   A    
C29   H4    S    
