data_mof_unit_24960.cif
_audit_creation_date              2013-03-05T16:19:32-0500
_audit_creation_method            fapswitch 2.2
_symmetry_space_group_name_H-M    P1
_symmetry_Int_Tables_number       1
_space_group_crystal_system       triclinic
_cell_length_a                    8.303183
_cell_length_b                    19.082155
_cell_length_c                    27.005589
_cell_angle_alpha                 99.868379
_cell_angle_beta                  92.315378
_cell_angle_gamma                 88.113719
_cell_volume                      4210.61689893

loop_
_atom_site_label
_atom_site_type_symbol
_atom_site_description
_atom_site_fract_x
_atom_site_fract_y
_atom_site_fract_z
_atom_type_partial_charge
P1    P     P_3+3 0.926760 0.336170 0.451740 0.494309
O1    O     O_2   0.103290 0.325410 0.465600 -0.325491
O2    O     O_3   0.857760 0.414170 0.470020 -0.405803
O3    O     O_3   0.374170 0.371120 0.556000 -0.372106
O4    O     O_2   0.273576 0.248905 0.507507 -0.397472
O5    O     O_3   0.919919 0.315517 0.386082 -0.543116
O6    O     O_3   0.342592 0.250495 0.603252 -0.541171
H1    H     H_    0.435713 0.337822 0.651200 0.118619
C1    C     C_3   0.425828 0.247408 0.688918 -0.918434
H2    H     H_    0.311342 0.268637 0.706197 0.283758
H3    H     H_    0.422733 0.188468 0.679359 0.235639
P2    P     P_3+3 0.399470 0.558680 0.614150 0.471828
P3    P     P_3+3 0.961704 0.412496 0.648421 0.459794
O7    O     O_2   0.227790 0.537410 0.620340 -0.357399
O8    O     O_3   0.969630 0.407570 0.582610 -0.394413
O9    O     O_2   0.074507 0.471422 0.674806 -0.374758
O10   O     O_3   0.393575 0.651481 0.631216 -0.552921
O11   O     O_3   0.048699 0.333047 0.662040 -0.506679
C2    C     C_3   0.972546 0.276483 0.630068 0.463394
H4    H     H_    0.027282 0.268399 0.592604 0.117896
H5    H     H_    0.840993 0.286505 0.624474 -0.037263
C3    C     C_3   0.994174 0.207973 0.651873 -0.664545
H6    H     H_    0.123543 0.193627 0.656036 0.231287
C4    C     C_3   0.841553 0.619364 0.631742 0.415370
H7    H     H_    0.718988 0.604688 0.616966 0.085090
H8    H     H_    0.927132 0.574105 0.620454 0.139004
C5    C     C_3   0.840988 0.635293 0.688862 -0.899268
H9    H     H_    0.749261 0.677641 0.701339 0.270652
H10   H     H_    0.812188 0.586807 0.703801 0.225131
H11   H     H_    0.961707 0.653133 0.704262 0.267025
Ba1   Ba    Ba6+2 0.160260 0.465850 0.521400 1.563133
C6    C     C_3   0.979429 0.371408 0.365624 0.427834
H12   H     H_    0.096751 0.388273 0.383790 0.114293
H13   H     H_    0.891833 0.417050 0.370419 0.088052
C7    C     C_3   0.002429 0.345027 0.309756 -0.874344
H14   H     H_    0.077207 0.295190 0.304390 0.307856
H15   H     H_    0.064646 0.384719 0.292539 0.216467
H16   H     H_    0.883434 0.334411 0.290081 0.243383
C8    C     C_3   0.334651 0.682081 0.590333 0.465838
H17   H     H_    0.209833 0.665277 0.580480 0.078570
H18   H     H_    0.411167 0.666730 0.557244 0.137525
C9    C     C_3   0.335545 0.762654 0.605130 -0.997218
H19   H     H_    0.252963 0.780196 0.636471 0.269425
H20   H     H_    0.295472 0.788166 0.572654 0.222162
H21   H     H_    0.459493 0.780026 0.617227 0.269697
P4    P     P_3+3 0.883550 0.663840 0.548300 0.461771
O12   O     O_2   0.707020 0.674640 0.534420 -0.362272
O13   O     O_3   0.952550 0.585840 0.530020 -0.410839
O14   O     O_3   0.436140 0.628890 0.444040 -0.375882
O15   O     O_3   0.888435 0.680252 0.614151 -0.559047
P5    P     P_3+3 0.836197 0.584278 0.351775 0.465153
O16   O     O_3   0.350480 0.462320 0.439870 -0.389521
O17   O     O_3   0.840680 0.592440 0.417430 -0.392240
O18   O     O_2   0.667608 0.557425 0.332617 -0.390613
O19   O     O_3   0.837973 0.668449 0.334175 -0.520223
Ba2   Ba    Ba6+2 0.649930 0.534160 0.478640 1.547918
P6    P     P_3+3 0.398591 0.278850 0.548359 0.410973
C10   C     C_3   0.452334 0.278979 0.641998 0.429483
H22   H     H_    0.578435 0.265289 0.631286 0.013003
H23   H     H_    0.526449 0.261751 0.716682 0.262964
O20   O     O_3   0.459840 0.537690 0.560170 -0.422044
C11   C     C_3   0.469237 0.315802 0.390874 0.292565
H24   H     H_    0.595520 0.333175 0.398296 0.060307
H25   H     H_    0.401235 0.326340 0.426102 0.130375
C12   C     C_3   0.474479 0.235841 0.371901 -0.126094
H26   H     H_    0.525031 0.224287 0.333820 0.177320
H27   H     H_    0.552856 0.209141 0.397733 0.107086
P7    P     P_3+3 0.399338 0.443005 0.376313 0.457858
O21   O     O_2   0.582520 0.462630 0.379680 -0.361605
O22   O     O_3   0.394285 0.351135 0.354378 -0.550578
H28   H     H_    0.936988 0.163901 0.625853 0.156652
C13   C     C_3   0.863417 0.719902 0.377215 0.478666
H29   H     H_    0.768788 0.718583 0.404965 0.163862
H30   H     H_    0.983618 0.710736 0.394347 0.023426
C14   C     C_3   0.857588 0.793304 0.362365 -0.937596
H31   H     H_    0.739958 0.802587 0.343165 0.283766
H32   H     H_    0.871560 0.834733 0.396405 0.223720
H33   H     H_    0.956484 0.797659 0.336653 0.261054
P8    P     P_3+3 0.406527 0.720081 0.444893 0.417382
C15   C     C_3   0.367252 0.698875 0.349205 0.392804
H34   H     H_    0.236704 0.712269 0.353584 0.048644
O23   O     O_2   0.533999 0.755968 0.483374 -0.409544
O24   O     O_3   0.459913 0.740440 0.387193 -0.518967
H35   H     H_    0.389702 0.641288 0.349703 0.124618
H36   H     H_    0.343884 0.680658 0.268082 0.252362
C16   C     C_3   0.415015 0.713841 0.298389 -0.865482
H37   H     H_    0.544954 0.700736 0.292827 0.283509
H38   H     H_    0.391545 0.770855 0.296116 0.255422
C17   C     C_R   0.959394 0.801710 0.530221 -0.296179
H39   H     H_    0.883980 0.820498 0.561637 0.156104
C18   C     C_R   0.991525 0.727974 0.518865 0.316631
C19   C     C_R   0.141103 0.819182 0.466033 -0.322833
H40   H     H_    0.191466 0.850076 0.440695 0.159322
C20   C     C_R   0.203103 0.749650 0.465847 0.225650
C21   C     C_R   0.668310 0.182848 0.537695 -0.358097
H41   H     H_    0.593730 0.154910 0.558331 0.152792
C22   C     C_R   0.596728 0.245642 0.526058 0.241539
C23   C     C_R   0.897397 0.201137 0.489492 -0.263087
H42   H     H_    0.006194 0.184356 0.469968 0.193758
C24   C     C_R   0.827605 0.268002 0.481798 0.298788
C25   C     C_R   0.024701 0.849429 0.501461 0.088585
C26   C     C_R   0.117349 0.702822 0.487934 -0.475235
H43   H     H_    0.155971 0.647496 0.483952 0.161658
C27   C     C_R   0.821289 0.156528 0.519685 0.080055
C28   C     C_R   0.672552 0.284487 0.496160 -0.451603
H44   H     H_    0.609581 0.329106 0.484310 0.125688
C29   C     C_R   0.262078 0.965190 0.500828 -0.179579
C30   C     C_R   0.369097 0.015459 0.491672 -0.113732
C31   C     C_R   0.323178 0.086422 0.500215 -0.029265
C32   C     C_R   0.171771 0.106651 0.518395 -0.142026
C33   C     C_R   0.050524 0.057351 0.516384 0.050198
C34   C     C_R   0.096674 0.982925 0.508417 0.106772
C35   C     C_R   0.891232 0.081921 0.528705 -0.081188
C36   C     C_R   0.798136 0.030474 0.546439 0.101600
C37   C     C_R   0.825456 0.956361 0.528393 0.079703
C38   C     C_R   0.979889 0.929891 0.510613 -0.061568
C39   C     C_R   0.692465 0.048427 0.586609 -0.195207
C40   C     C_R   0.584908 0.999070 0.597576 -0.078576
C41   C     C_R   0.582053 0.931408 0.568625 -0.115485
C42   C     C_R   0.698374 0.911082 0.532748 -0.202451
H45   H     H_    0.314440 0.913769 0.503401 0.143419
H46   H     H_    0.491326 0.999959 0.481363 0.145168
H47   H     H_    0.407598 0.125546 0.494914 0.152355
H48   H     H_    0.148806 0.160455 0.536184 0.179024
H49   H     H_    0.697772 0.099209 0.611420 0.119095
H50   H     H_    0.501398 0.013902 0.627584 0.123337
H51   H     H_    0.492566 0.894166 0.574779 0.136585
H52   H     H_    0.693290 0.858947 0.510322 0.188413
C43   C     C_R   0.289555 0.452259 0.173589 0.529108
O25   O     O_2   0.311024 0.399642 0.193512 -0.579902
N1    N     N_R   0.223430 0.514068 0.200531 -0.166475
C44   C     C_R   0.192366 0.572887 0.177476 0.525634
C45   C     C_2   0.035822 0.530498 0.269638 -0.155532
C46   C     C_3   0.998691 0.522822 0.323050 0.165954
C47   C     C_1   0.282187 0.495874 0.336661 0.274792
C48   C     C_2   0.318297 0.499142 0.289792 -0.203706
C49   C     C_2   0.187959 0.516498 0.253138 0.114666
C50   C     C_R   0.305187 0.509401 0.099823 -0.072681
C51   C     C_R   0.330284 0.449011 0.123009 -0.058093
C52   C     C_R   0.395547 0.386535 0.095150 -0.073459
C53   C     C_R   0.234110 0.571504 0.127057 -0.063584
C54   C     C_2   0.150617 0.527781 0.356088 -0.491349
H53   H     H_    0.440279 0.487298 0.277338 0.174936
H54   H     H_    0.418585 0.339513 0.112112 0.172903
C55   C     C_2   0.643456 0.467066 0.639259 -0.376192
C56   C     C_R   0.429824 0.438894 0.968165 0.068319
C57   C     C_R   0.395032 0.569400 0.978201 -0.072462
C58   C     C_R   0.430350 0.502684 0.947611 0.061011
C59   C     C_R   0.453455 0.373394 0.935618 -0.209823
C60   C     C_R   0.483924 0.370791 0.885106 -0.083524
C61   C     C_R   0.494837 0.433393 0.865035 -0.037281
C62   C     C_R   0.469018 0.499574 0.896251 -0.069371
C63   C     C_R   0.483052 0.562469 0.876235 -0.120410
C64   C     C_R   0.524101 0.558369 0.825350 0.564912
N2    N     N_R   0.549136 0.492963 0.795097 -0.165908
C65   C     C_R   0.531582 0.430904 0.814285 0.528843
C66   C     C_2   0.729537 0.450518 0.726806 -0.174933
C67   C     C_3   0.748938 0.426141 0.671305 0.088291
C68   C     C_1   0.521560 0.509664 0.657376 0.244977
C69   C     C_2   0.485963 0.518516 0.705726 -0.186542
C70   C     C_2   0.595198 0.488418 0.743155 0.127611
O26   O     O_2   0.547488 0.373227 0.786972 -0.615655
C71   C     C_R   0.404188 0.442424 0.020311 0.045185
C72   C     C_R   0.349078 0.507320 0.049024 0.088687
C73   C     C_R   0.334316 0.569789 0.027062 0.057214
C74   C     C_R   0.430519 0.383026 0.044789 -0.207999
H55   H     H_    0.809228 0.427673 0.753041 0.159426
H56   H     H_    0.500773 0.319073 0.861816 0.167928
H57   H     H_    0.444142 0.322837 0.947877 0.132842
H58   H     H_    0.482643 0.333410 0.026221 0.134237
O27   O     O_2   0.129723 0.626634 0.200952 -0.587748
C75   C     C_R   0.202722 0.630174 0.102813 -0.072030
H59   H     H_    0.937780 0.540050 0.243590 0.159470
H60   H     H_    0.140410 0.677412 0.121715 0.181049
C76   C     C_R   0.426440 0.632260 0.958609 0.288732
C77   C     C_R   0.464491 0.628091 0.908165 -0.121478
O28   O     O_2   0.539629 0.612944 0.808232 -0.578041
C78   C     C_R   0.249459 0.628799 0.053585 -0.128526
H61   H     H_    0.486452 0.676951 0.894469 0.205011
H62   H     H_    0.374358 0.545776 0.718370 0.173171
H63   H     H_    0.210484 0.673219 0.035826 0.181464
H64   H     H_    0.150882 0.554744 0.394928 0.166240
Br1   Br    Br    0.261157 0.196849 0.369671 -0.463198
Br2   Br    Br    0.461746 0.724125 0.999385 -0.516015
C79   C     C_1   0.657451 0.444655 0.586935 0.239798
N3    N     N_1   0.669226 0.428384 0.544383 0.000003
C80   C     C_1   0.919243 0.215313 0.700854 0.231147
N4    N     N_1   0.860198 0.221173 0.739485 -0.072511

loop_
_geom_bond_atom_site_label_1
_geom_bond_atom_site_label_2
_geom_bond_distance
_ccdc_geom_bond_type
Ba2   O20   2.750720 S    
O5    C6    1.394830 S    
C45   C49   1.359455 D    
C66   C67   1.504812 S    
C55   C67   1.500426 S    
C15   H34   1.111777 S    
C5    H10   1.107370 S    
C29   C34   1.418128 A    
Ba1   O20   2.947040 S    
C21   H41   1.062889 S    
C4    C5    1.520417 S    
Ba1   O16   2.751371 S    
C15   H35   1.110799 S    
C66   H55   1.085734 S    
C36   C37   1.428476 A    
C56   C71   1.422567 A    
C47   C48   1.324686 D    
C8    H18   1.109883 S    
H36   C16   1.107972 S    
N2    C70   1.456338 S    
C43   N1    1.384715 Am   
C63   C77   1.401147 A    
C24   C28   1.370673 A    
P3    O11   1.747291 S    
C59   H57   1.078329 S    
C72   C73   1.419361 A    
C7    H15   1.105698 S    
C4    H8    1.109311 S    
O11   C2    1.411264 S    
C48   H53   1.084638 S    
C15   O24   1.403913 S    
C55   C68   1.331937 D    
P5    C46   1.861730 S    
C57   C76   1.426905 A    
C37   C38   1.433153 A    
P1    Ba1   3.441927 S    
C30   C31   1.377784 A    
C11   O22   1.401379 S    
P1    O1    1.514238 D    
O10   C8    1.399215 S    
C3    C80   1.467531 S    
C32   C33   1.393509 A    
C69   H62   1.085755 S    
C15   C16   1.519155 S    
C57   C73   1.430198 A    
C57   C58   1.422556 A    
C32   H48   1.070844 S    
C40   C41   1.390469 A    
C71   C72   1.416483 A    
C77   H61   1.083601 S    
C2    H4    1.110416 S    
P7    O21   1.573716 D    
C12   H27   1.110452 S    
P2    O10   1.751305 S    
C11   H25   1.111168 S    
C61   C62   1.408311 A    
C2    C3    1.525765 S    
C44   O27   1.221872 D    
Ba1   Ba2   4.561542 S    
C17   C18   1.406764 A    
C1    H2    1.109585 S    
O7    Ba1   2.827895 S    
O6    C10   1.407563 S    
C17   C25   1.426688 A    
O19   C13   1.400799 S    
O16   P7    1.753862 S    
O3    Ba1   2.743875 S    
H1    C10   1.112876 S    
C65   O26   1.221828 D    
C5    H11   1.110764 S    
C4    O15   1.400390 S    
C73   C78   1.410503 A    
C9    H20   1.108594 S    
C13   C14   1.520384 S    
P1    C24   1.874894 S    
C75   H60   1.083378 S    
C8    C9    1.521061 S    
C56   C58   1.421958 A    
C47   C54   1.316212 D    
C52   C74   1.392090 A    
P3    C67   1.890360 S    
P4    O13   1.581819 S    
P1    O5    1.748232 S    
C36   C39   1.411996 A    
C6    C7    1.524087 S    
C58   C62   1.427210 A    
C71   C74   1.413622 A    
C4    H7    1.104981 S    
P8    C20   1.842983 S    
C13   H30   1.104404 S    
C8    H17   1.103669 S    
Ba2   O21   2.827994 S    
C16   H37   1.109771 S    
C31   H47   1.071628 S    
P4    C18   1.842998 S    
P5    O19   1.752044 S    
C10   H22   1.108505 S    
C53   C75   1.402942 A    
O14   P8    1.745728 S    
C55   C79   1.412789 S    
O1    Ba1   2.884098 S    
P1    O2    1.581821 S    
C9    H21   1.110836 S    
C6    H13   1.109771 S    
O3    P6    1.743315 S    
C14   H31   1.110559 S    
C11   H24   1.110253 S    
N1    C49   1.455168 S    
C46   C54   1.511388 S    
C56   C59   1.412253 A    
C1    H3    1.110904 S    
O2    Ba2   2.804332 S    
C68   C69   1.331565 D    
C43   C51   1.411001 A    
C29   C30   1.387820 A    
P6    C22   1.830691 S    
C7    H16   1.110603 S    
C19   C20   1.406577 A    
C33   C35   1.421674 A    
C21   C22   1.398175 A    
C61   C65   1.408617 A    
C41   C42   1.394332 A    
O2    Ba1   2.935803 S    
C14   H32   1.109878 S    
C64   N2    1.384035 Am   
C35   C36   1.425377 A    
C19   C25   1.425250 A    
C54   H64   1.086198 S    
O12   Ba2   2.884724 S    
P2    O7    1.518321 D    
C23   H42   1.076193 S    
C23   C24   1.428087 A    
Ba1   O13   2.803744 S    
P3    O8    1.767392 S    
P2    Ba1   3.415479 S    
C45   C46   1.519343 S    
C64   O28   1.222095 D    
C9    H19   1.110520 S    
C29   H45   1.072158 S    
C18   C26   1.385518 A    
N1    C44   1.386166 Am   
C66   C70   1.356251 D    
C3    H28   1.106010 S    
C34   C38   1.434483 A    
C21   C27   1.423532 A    
C43   O25   1.222697 D    
C12   Br1   1.938393 S    
O17   Ba2   2.726789 S    
C75   C78   1.395613 A    
C44   C53   1.414217 A    
O13   Ba2   2.936650 S    
P4    O12   1.514472 D    
C1    C10   1.519828 S    
C33   C34   1.440917 A    
C2    H5    1.111466 S    
C60   C61   1.400754 A    
P7    C47   1.825421 S    
C52   H54   1.083541 S    
C30   H46   1.081594 S    
C13   H29   1.111277 S    
C50   C53   1.408494 A    
P8    O23   1.544047 D    
C51   C52   1.401392 A    
C42   H52   1.073528 S    
O8    Ba1   2.726173 S    
O14   Ba2   2.743266 S    
C28   H44   1.072977 S    
P4    O15   1.751114 S    
C39   C40   1.394537 A    
O4    P6    1.533485 D    
C1    H23   1.108689 S    
C69   C70   1.504937 S    
P5    O18   1.545182 D    
C17   H39   1.079029 S    
C22   C28   1.369185 A    
C80   N4    1.157132 T    
C76   C77   1.399262 A    
C31   C32   1.386890 A    
C6    H12   1.105039 S    
P8    O24   1.746441 S    
P2    O20   1.543519 S    
C79   N3    1.145095 T    
C39   H49   1.080633 S    
C23   C27   1.450436 A    
C60   H56   1.083681 S    
C19   H40   1.080847 S    
C11   C12   1.523824 S    
C74   H58   1.078408 S    
C16   H38   1.110553 S    
C12   H26   1.110624 S    
P2    C68   1.865859 S    
C26   H43   1.081929 S    
C14   H33   1.110705 S    
C78   H63   1.077940 S    
C50   C51   1.408706 A    
C27   C35   1.573659 S    
C62   C63   1.408155 A    
C20   C26   1.385693 A    
P7    O22   1.752936 S    
C37   C42   1.406647 A    
P3    O9    1.545995 D    
P4    Ba2   3.442490 S    
N2    C65   1.385612 Am   
C25   C38   1.548130 S    
C3    H6    1.105827 S    
C48   C49   1.504310 S    
C50   C72   1.427291 A    
C7    H14   1.109989 S    
C40   H50   1.082340 S    
P5    O17   1.752065 S    
C63   C64   1.417693 A    
C59   C60   1.389632 A    
C45   H59   1.085667 S    
O6    P6    1.747467 S    
O16   Ba2   2.946127 S    
C76   Br2   1.928083 S    
C5    H9    1.110621 S    
C41   H51   1.081654 S    
