data_mof_unit_46439.cif
_audit_creation_date              2012-12-10T18:14:21-0500
_audit_creation_method            fapswitch 2.2
_symmetry_space_group_name_H-M    P1
_symmetry_Int_Tables_number       1
_space_group_crystal_system       triclinic
_cell_length_a                    12.652647
_cell_length_b                    13.112207
_cell_length_c                    19.13774
_cell_angle_alpha                 90.918593
_cell_angle_beta                  102.32377
_cell_angle_gamma                 82.356569
_cell_volume                      3074.05773698

loop_
_atom_site_label
_atom_site_type_symbol
_atom_type_description
_atom_site_fract_x
_atom_site_fract_y
_atom_site_fract_z
_atom_type_partial_charge
C1    C     C_R   0.438867 0.691057 0.491094 0.927085
C2    C     C_R   0.491644 0.517824 0.708318 -0.017620
C3    C     C_R   0.464428 0.551582 0.064542 0.286805
C4    C     C_R   0.463491 0.559585 0.923708 0.271166
C5    C     C_R   0.405020 0.479800 0.167238 -0.165842
C6    C     C_R   0.415345 0.467697 0.240441 -0.215405
C7    C     C_R   0.490878 0.517595 0.288880 -0.069157
C8    C     C_R   0.555489 0.582207 0.262709 -0.010729
C9    C     C_R   0.544806 0.592869 0.189239 -0.213575
C10   C     C_R   0.470291 0.541986 0.141283 0.073017
C11   C     C_R   0.683341 0.069291 0.609811 0.025524
C12   C     C_R   0.499509 0.502156 0.634066 0.912414
C13   C     C_R   0.597150 0.200571 0.521312 -0.063338
C14   C     C_R   0.330999 0.821729 0.406854 -0.249149
C15   C     C_R   0.324064 0.917310 0.375141 -0.167571
C16   C     C_R   0.390410 0.988385 0.408058 -0.164280
C17   C     C_R   0.458754 0.967880 0.476893 0.044083
C18   C     C_R   0.454492 0.875398 0.512393 -0.017105
C19   C     C_R   0.532538 0.034772 0.511251 0.063571
C20   C     C_R   0.604057 0.005917 0.578154 0.032806
C21   C     C_R   0.586038 0.921500 0.615613 -0.222335
C22   C     C_R   0.507113 0.860747 0.584936 0.273618
C23   C     C_R   0.560833 0.309028 0.507949 0.852045
C24   C     C_R   0.532425 0.132394 0.483386 -0.235039
C25   C     C_R   0.677781 0.167715 0.581272 -0.241952
C26   C     C_R   0.399968 0.798919 0.473805 -0.074157
C27   C     C_R   0.084240 0.359832 0.391015 -0.310618
C28   C     C_R   0.806674 0.622814 0.589773 0.395992
C29   C     C_R   0.904765 0.661255 0.599342 -0.330474
C30   C     C_R   0.978729 0.628975 0.557084 -0.031715
C31   C     C_R   0.958426 0.544283 0.510706 -0.043228
C32   C     C_R   0.852318 0.511885 0.498797 0.173847
C33   C     C_R   0.038472 0.488205 0.477684 -0.014406
C34   C     C_R   0.498055 0.503575 0.365564 0.817255
C35   C     C_R   0.007285 0.413386 0.425587 0.188998
C36   C     C_R   0.901097 0.389065 0.410975 -0.288419
C37   C     C_R   0.826358 0.434553 0.449241 -0.161896
C38   C     C_R   0.150344 0.497497 0.497982 -0.051147
C39   C     C_R   0.192077 0.378050 0.410166 0.014170
C40   C     C_R   0.387692 0.541565 0.723890 -0.190712
C41   C     C_R   0.375470 0.561192 0.793576 0.022746
C42   C     C_R   0.470160 0.554807 0.848762 0.039425
C43   C     C_R   0.574133 0.533939 0.832673 -0.159907
C44   C     C_R   0.584895 0.515644 0.762749 -0.146402
H1    H     H_    0.315293 0.548503 0.681190 0.158407
H2    H     H_    0.627657 0.906559 0.670782 0.210568
H3    H     H_    0.473910 0.162516 0.436473 0.132459
H4    H     H_    0.288691 0.763024 0.376755 0.154435
H5    H     H_    0.387740 0.056957 0.377236 0.122677
H6    H     H_    0.272863 0.933683 0.322498 0.143664
H7    H     H_    0.252393 0.338660 0.383185 0.124726
H8    H     H_    0.877314 0.330305 0.372494 0.151354
H9    H     H_    0.061441 0.303797 0.350215 0.141804
H10   H     H_    0.183405 0.543660 0.542120 0.150514
H11   H     H_    0.920291 0.721579 0.637935 0.171922
H12   H     H_    0.749406 0.405858 0.440392 0.206525
H13   H     H_    0.647260 0.528373 0.874674 0.150654
H14   H     H_    0.665640 0.498279 0.751461 0.168565
H15   H     H_    0.346990 0.439377 0.131139 0.150984
H16   H     H_    0.364791 0.418255 0.259197 0.152905
H17   H     H_    0.594537 0.642409 0.169653 0.154294
H18   H     H_    0.730612 0.221039 0.608825 0.155212
N1    N     N_R   0.538196 0.603954 0.971535 -0.173878
N2    N     N_R   0.538344 0.600279 0.040743 -0.183638
N3    N     N_R   0.389137 0.507815 0.016494 -0.177866
N4    N     N_R   0.388842 0.511593 0.947171 -0.157078
N5    N     N_R   0.222200 0.444680 0.463280 -0.105465
N6    N     N_R   0.776960 0.554780 0.536340 -0.147946
O1    O     O_R   0.366740 0.627160 0.482470 -0.605737
O2    O     O_R   0.544830 0.662520 0.505920 -0.571936
O3    O     O_R   0.410920 0.482320 0.590130 -0.629361
O4    O     O_R   0.589010 0.517690 0.613590 -0.559734
O5    O     O_R   0.455170 0.337480 0.494080 -0.607376
O6    O     O_R   0.633260 0.372840 0.517530 -0.641629
O7    O     O_R   0.410990 0.482310 0.386410 -0.624335
O8    O     O_R   0.589080 0.517680 0.409870 -0.625783
Zn1   Zn    Zn3+2 0.381090 0.476390 0.484340 0.946890
Zn2   Zn    Zn3+2 0.618910 0.523610 0.515660 0.978363
C45   C     C_R   0.769844 0.036392 0.673624 0.098960
C46   C     C_R   0.781342 0.095833 0.735872 -0.157746
C47   C     C_R   0.864884 0.065515 0.795199 -0.124432
C48   C     C_R   0.937845 0.976312 0.792614 -0.107114
C49   C     C_R   0.927319 0.917125 0.730743 -0.123926
C50   C     C_R   0.843536 0.946853 0.671422 -0.128782
H19   H     H_    0.725458 0.165234 0.738524 0.127086
H20   H     H_    0.873297 0.111386 0.843108 0.130056
H21   H     H_    0.002781 0.953411 0.838460 0.117738
H22   H     H_    0.984527 0.848672 0.728636 0.133976
H23   H     H_    0.836709 0.901116 0.623439 0.141607
Br1   Br    Br    0.458003 0.774270 0.648285 -0.542616
C51   C     C_R   0.263644 0.592828 0.805792 0.115231
C52   C     C_R   0.178626 0.535171 0.777110 -0.173934
C53   C     C_R   0.072274 0.567793 0.785449 -0.127790
C54   C     C_R   0.049866 0.657889 0.822583 -0.117899
C55   C     C_R   0.133723 0.715625 0.851313 -0.158886
C56   C     C_R   0.240013 0.683800 0.842613 -0.121780
H24   H     H_    0.194588 0.465272 0.748028 0.133120
H25   H     H_    0.007137 0.523450 0.762840 0.148365
H26   H     H_    0.967449 0.683236 0.828806 0.153650
H27   H     H_    0.116255 0.785507 0.879927 0.129294
H28   H     H_    0.303554 0.730635 0.863877 0.136044
Br2   Br    Br    0.720545 0.673920 0.655669 -0.524246
C57   C     C_R   0.061904 0.698946 0.555974 0.115899
C58   C     C_R   0.121052 0.734711 0.620497 -0.199600
C59   C     C_R   0.181459 0.816276 0.620143 -0.081855
C60   C     C_R   0.184803 0.862235 0.555491 -0.067646
C61   C     C_R   0.129073 0.825429 0.491112 -0.131970
C62   C     C_R   0.069294 0.743314 0.491232 -0.153362
H29   H     H_    0.116930 0.702137 0.671254 0.151473
H30   H     H_    0.224126 0.844972 0.670165 0.162411
H31   H     H_    0.230446 0.926387 0.555270 0.145815
H32   H     H_    0.130052 0.861972 0.441056 0.141314
H33   H     H_    0.025417 0.717378 0.441057 0.118392
C63   C     C_R   0.632690 0.642469 0.309333 0.123288
C64   C     C_R   0.594868 0.721552 0.351753 -0.093519
C65   C     C_R   0.668368 0.779179 0.394796 -0.098786
C66   C     C_R   0.779498 0.759720 0.394356 -0.133562
C67   C     C_R   0.817159 0.682478 0.350917 -0.137192
C68   C     C_R   0.744241 0.623747 0.308834 -0.139067
H34   H     H_    0.508757 0.738131 0.351298 0.114151
H35   H     H_    0.639201 0.839362 0.428034 0.141006
H36   H     H_    0.835971 0.805080 0.427258 0.134725
H37   H     H_    0.902603 0.667651 0.349284 0.126730
H38   H     H_    0.774597 0.563761 0.275789 0.131831

loop_
_geom_bond_atom_site_label_1
_geom_bond_atom_site_label_2
_ccdc_geom_bond_type
C39   H7    S    
C59   H30   S    
C53   C54   A    
O2    Zn2   S    
C41   C42   A    
O1    Zn1   S    
C55   C56   A    
N5    Zn1   S    
C66   H36   S    
C2    C12   S    
C63   C64   A    
C7    C8    A    
C3    N2    A    
C4    N1    A    
C29   C30   A    
C9    H17   S    
C36   C37   A    
C28   N6    A    
O8    Zn2   S    
C45   C50   A    
C60   C61   A    
C11   C25   A    
C15   C16   A    
C65   C66   A    
C13   C23   S    
C61   H32   S    
C15   H6    S    
C67   C68   A    
O4    Zn2   S    
C17   C19   A    
C51   C56   A    
C37   H12   S    
C35   C36   A    
C27   C39   A    
C8    C9    A    
C18   C26   A    
C30   C57   S    
C61   C62   A    
C31   C33   A    
C57   C62   A    
C9    C10   A    
C47   H20   S    
C36   H8    S    
C8    C63   S    
C34   O7    A    
C32   N6    A    
C49   H22   S    
C12   O4    A    
C21   C22   A    
C13   C25   A    
C3    N3    A    
C23   O5    A    
C58   C59   A    
C52   H24   S    
C47   C48   A    
C60   H31   S    
N6    Zn2   S    
C40   H1    S    
C11   C20   A    
C65   H35   S    
C5    H15   S    
C6    H16   S    
C16   H5    S    
C2    C44   A    
C51   C52   A    
C55   H27   S    
C16   C17   A    
C14   H4    S    
C29   H11   S    
C27   C35   A    
C68   H38   S    
C48   C49   A    
C1    O1    A    
N1    N2    A    
C13   C24   A    
C62   H33   S    
C43   C44   A    
C46   H19   S    
C2    C40   A    
C49   C50   A    
C38   H10   S    
C30   C31   A    
C44   H14   S    
C14   C15   A    
C17   C18   A    
C22   Br1   S    
C32   C37   A    
C14   C26   A    
O7    Zn1   S    
C11   C45   S    
C40   C41   A    
C41   C51   S    
C12   O3    A    
N3    N4    A    
O6    Zn2   S    
C1    C26   S    
C7    C34   S    
C48   H21   S    
C50   H23   S    
C23   O6    A    
O3    Zn1   S    
C21   H2    S    
C28   C29   A    
C20   C21   A    
C18   C22   A    
C24   H3    S    
C39   N5    A    
C31   C32   A    
C63   C68   A    
C46   C47   A    
C27   H9    S    
C6    C7    A    
C25   H18   S    
C59   C60   A    
C1    O2    A    
C19   C20   A    
C19   C24   A    
C5    C10   A    
C3    C10   S    
C66   C67   A    
C4    N4    A    
C5    C6    A    
C4    C42   S    
C54   H26   S    
C52   C53   A    
C33   C35   A    
C67   H37   S    
C54   C55   A    
C43   H13   S    
C45   C46   A    
C28   Br2   S    
C38   N5    A    
C64   H34   S    
C42   C43   A    
C57   C58   A    
O5    Zn1   S    
C58   H29   S    
C33   C38   A    
C56   H28   S    
C53   H25   S    
C64   C65   A    
C34   O8    A    
