data_mof_unit_10222.cif
_audit_creation_date              2012-12-11T16:28:06-0500
_audit_creation_method            fapswitch 2.2
_symmetry_space_group_name_H-M    P1
_symmetry_Int_Tables_number       1
_space_group_crystal_system       triclinic
_cell_length_a                    30.396713
_cell_length_b                    22.44601
_cell_length_c                    18.034082
_cell_angle_alpha                 89.974602
_cell_angle_beta                  123.060721
_cell_angle_gamma                 89.797167
_cell_volume                      10312.1093941

loop_
_atom_site_label
_atom_site_type_symbol
_atom_type_description
_atom_site_fract_x
_atom_site_fract_y
_atom_site_fract_z
_atom_type_partial_charge
C1    C     C_R   0.545821 0.581182 0.744211 0.167407
C2    C     C_R   0.708812 0.415879 0.445801 -0.221721
C3    C     C_R   0.792646 0.635103 0.016954 -0.175744
C4    C     C_R   0.215815 0.698197 0.821719 -0.173803
C5    C     C_R   0.707681 0.132972 0.979555 -0.178741
C6    C     C_R   0.767763 0.718738 0.167114 -0.177905
C7    C     C_R   0.291960 0.131781 0.025087 -0.180058
C8    C     C_R   0.786927 0.210983 0.870562 -0.072966
C9    C     C_R   0.160930 0.670238 0.989707 -0.078784
C10   C     C_R   0.210234 0.214816 0.126520 -0.072938
C11   C     C_R   0.839281 0.660223 0.033693 -0.086302
C12   C     C_R   0.265089 0.676822 0.845011 -0.074769
C13   C     C_R   0.642199 0.743875 0.547519 -0.188075
C14   C     C_R   0.660162 0.156959 0.961207 -0.079205
C15   C     C_R   0.714542 0.708151 0.131635 -0.065622
C16   C     C_R   0.339898 0.154502 0.044399 -0.081493
C17   C     C_R   0.579193 0.608579 0.428014 -0.010567
C18   C     C_R   0.401256 0.424696 0.571569 -0.051205
C19   C     C_R   0.417814 0.605226 0.573294 -0.106167
C20   C     C_R   0.599461 0.427388 0.428766 0.013615
C21   C     C_R   0.082418 0.104880 0.426564 -0.098744
C22   C     C_R   0.901454 0.928992 0.572621 -0.040628
C23   C     C_R   0.918045 0.106303 0.572447 -0.113001
C24   C     C_R   0.286423 0.417350 0.539455 -0.130384
C25   C     C_R   0.099850 0.923954 0.430325 -0.008546
C26   C     C_R   0.382243 0.584254 0.259196 -0.157694
C27   C     C_R   0.613473 0.403023 0.727871 -0.142812
C28   C     C_R   0.615969 0.589415 0.736573 -0.162618
C29   C     C_R   0.387033 0.402089 0.273879 -0.147062
C30   C     C_R   0.884141 0.090807 0.264676 -0.160793
C31   C     C_R   0.114301 0.904018 0.729340 -0.151303
C32   C     C_R   0.115822 0.090189 0.735830 -0.156935
C33   C     C_R   0.886466 0.903421 0.272186 -0.157004
C34   C     C_R   0.595182 0.607047 0.785125 0.047011
C35   C     C_R   0.889142 0.242210 0.552634 -0.112591
C36   C     C_R   0.412985 0.371293 0.241850 0.045791
C37   C     C_R   0.400354 0.596309 0.204729 0.052123
C38   C     C_R   0.587698 0.372990 0.760726 0.044460
C39   C     C_R   0.094672 0.109242 0.783072 0.052303
C40   C     C_R   0.912073 0.873526 0.238893 -0.016720
C41   C     C_R   0.905146 0.110284 0.217558 0.021168
C42   C     C_R   0.090205 0.876442 0.766807 0.048294
C43   C     C_R   0.617314 0.638973 0.502109 0.012723
C44   C     C_R   0.352526 0.409213 0.497563 0.061728
C45   C     C_R   0.382156 0.638795 0.498873 0.049938
C46   C     C_R   0.213693 0.917359 0.461525 -0.251987
C47   C     C_R   0.648908 0.413363 0.502426 0.021716
C48   C     C_R   0.118569 0.137849 0.500907 0.047653
C49   C     C_R   0.852921 0.912772 0.501038 0.057167
C50   C     C_R   0.881778 0.138928 0.497559 0.054173
C51   C     C_R   0.148398 0.908664 0.505057 -0.035006
C52   C     C_R   0.286127 0.764873 0.428372 -0.133059
C53   C     C_R   0.775161 0.334528 0.577280 -0.106183
C54   C     C_R   0.686679 0.748257 0.446805 -0.148398
C55   C     C_R   0.233460 0.320045 0.430625 -0.100843
C56   C     C_R   0.782528 0.261187 0.427576 -0.133554
C57   C     C_R   0.111453 0.239444 0.439837 -0.119271
C58   C     C_R   0.270962 0.823600 0.576556 -0.122874
C59   C     C_R   0.215446 0.262454 0.574201 -0.134133
C60   C     C_R   0.715550 0.880090 0.438814 -0.125625
C61   C     C_R   0.308735 0.711476 0.426922 -0.168105
C62   C     C_R   0.733120 0.358879 0.576978 -0.112082
C63   C     C_R   0.664578 0.695989 0.451382 -0.067243
C64   C     C_R   0.276061 0.343718 0.432738 -0.116359
C65   C     C_R   0.805679 0.207778 0.427937 -0.168009
C66   C     C_R   0.227926 0.846576 0.574265 -0.101219
C67   C     C_R   0.192550 0.209088 0.574056 -0.178303
C68   C     C_R   0.818914 0.858020 0.577099 -0.099709
C69   C     C_R   0.756612 0.905339 0.436576 -0.143732
C70   C     C_R   0.360005 0.697410 0.495949 0.105116
C71   C     C_R   0.697783 0.397158 0.508426 0.065384
C72   C     C_R   0.642711 0.693514 0.502162 0.125398
C73   C     C_R   0.304439 0.390360 0.490555 0.077253
C74   C     C_R   0.858449 0.196939 0.493207 0.109447
C75   C     C_R   0.197267 0.891148 0.513144 0.071235
C76   C     C_R   0.141332 0.195977 0.504289 0.109006
C77   C     C_R   0.808504 0.892951 0.504850 0.112095
C78   C     C_2   0.557918 0.628436 0.337402 0.503008
C79   C     C_R   0.367407 0.793100 0.564031 0.221365
C80   C     C_2   0.415579 0.429841 0.663696 0.529250
C81   C     C_2   0.417145 0.602456 0.654103 0.573659
C82   C     C_2   0.588728 0.443935 0.341679 0.473535
C83   C     C_2   0.082817 0.102038 0.345564 0.539278
C84   C     C_2   0.911746 0.951345 0.657675 0.473458
C85   C     C_2   0.918983 0.107202 0.654741 0.590999
C86   C     C_2   0.088635 0.926768 0.339941 0.493878
C87   C     C_2   0.811380 0.231592 0.822747 0.566254
C88   C     C_2   0.137373 0.651803 0.040015 0.558717
C89   C     C_2   0.184796 0.238158 0.171507 0.558753
C90   C     C_R   0.750414 0.390522 0.444755 0.228113
C91   C     C_2   0.866897 0.631827 0.995399 0.587586
C92   C     C_2   0.281685 0.683335 0.781546 0.563017
C93   C     C_2   0.632152 0.127210 0.997629 0.561180
C94   C     C_2   0.690981 0.727159 0.181770 0.545191
C95   C     C_2   0.368602 0.123152 0.010298 0.562805
C96   C     C_R   0.665060 0.796683 0.543976 0.255353
C97   C     C_R   0.464590 0.392365 0.287934 0.215648
C98   C     C_R   0.244526 0.392356 0.539838 0.234875
C99   C     C_R   0.865869 0.295540 0.553685 0.219805
C100  C     C_R   0.255997 0.893064 0.461446 0.249177
C101  C     C_R   0.134730 0.292411 0.438280 0.223467
C102  C     C_R   0.778461 0.833995 0.580926 0.219211
C103  C     C_R   0.314351 0.804324 0.499232 0.033203
C104  C     C_R   0.782221 0.347580 0.508617 0.024844
C105  C     C_R   0.688486 0.798072 0.494985 0.015853
C106  C     C_R   0.219123 0.342227 0.487068 0.006745
C107  C     C_R   0.811829 0.304128 0.492598 0.033037
C108  C     C_R   0.451317 0.573193 0.250342 0.162015
C109  C     C_R   0.283407 0.844399 0.516978 0.026664
C110  C     C_R   0.187672 0.302768 0.504020 0.035263
C111  C     C_R   0.726469 0.842982 0.509583 0.035348
C112  C     C_R   0.366674 0.613390 0.108482 0.047957
C113  C     C_R   0.607235 0.318539 0.816308 0.045512
C114  C     C_R   0.624983 0.632769 0.875464 0.049844
C115  C     C_R   0.393593 0.316303 0.187404 0.050805
C116  C     C_R   0.875319 0.137210 0.128042 0.051440
C117  C     C_R   0.111534 0.825593 0.829672 0.043107
C118  C     C_R   0.123876 0.136713 0.872139 0.049730
C119  C     C_R   0.535632 0.392817 0.712683 0.199959
C120  C     C_R   0.892220 0.819903 0.181971 0.051103
C121  C     C_R   0.353243 0.652576 0.971273 -0.235438
C122  C     C_R   0.605030 0.246938 0.914961 -0.244604
C123  C     C_R   0.629638 0.689533 0.994040 -0.229188
C124  C     C_R   0.395208 0.243559 0.089372 -0.245261
C125  C     C_R   0.871003 0.195770 0.011257 -0.227561
C126  C     C_R   0.115256 0.766603 0.945687 -0.243217
C127  C     C_R   0.126802 0.196989 0.986293 -0.226688
C128  C     C_R   0.893496 0.750358 0.080334 -0.243407
C129  C     C_R   0.386740 0.639316 0.061079 0.272898
C130  C     C_R   0.045525 0.083016 0.743129 0.154486
C131  C     C_R   0.590192 0.301981 0.872093 0.263603
C132  C     C_R   0.600857 0.669631 0.906794 0.268378
C133  C     C_R   0.410009 0.298847 0.130940 0.268176
C134  C     C_R   0.899119 0.176108 0.098718 0.259637
C135  C     C_R   0.101323 0.819067 0.896637 0.270577
C136  C     C_R   0.099253 0.175923 0.899771 0.266219
C137  C     C_R   0.908567 0.804637 0.124782 0.260457
C138  C     C_R   0.311818 0.608535 0.064409 -0.242127
C139  C     C_R   0.642699 0.281751 0.811300 -0.228226
C140  C     C_R   0.679163 0.622860 0.929644 -0.232322
C141  C     C_R   0.964110 0.893003 0.286787 0.337889
C142  C     C_R   0.357649 0.280506 0.192347 -0.230368
C143  C     C_R   0.821757 0.125065 0.071883 -0.233019
C144  C     C_R   0.141030 0.781771 0.820318 -0.233450
C145  C     C_R   0.177659 0.125400 0.929137 -0.233812
C146  C     C_R   0.856888 0.782833 0.186513 -0.224370
C147  C     C_R   0.277629 0.634404 0.980301 0.117680
C148  C     C_R   0.663019 0.229637 0.862740 0.116219
C149  C     C_R   0.710128 0.652081 0.011474 0.116350
C150  C     C_R   0.336433 0.228867 0.140322 0.115179
C151  C     C_R   0.790922 0.153726 0.989418 0.117967
C152  C     C_R   0.954371 0.083833 0.257082 0.196391
C153  C     C_R   0.159889 0.730842 0.875581 0.117764
C154  C     C_R   0.207810 0.154815 0.011093 0.117889
C155  C     C_R   0.836522 0.731299 0.134025 0.114361
C156  C     C_R   0.298605 0.652251 0.930349 0.023120
C157  C     C_R   0.641337 0.210085 0.911178 0.031277
C158  C     C_R   0.684389 0.681571 0.047349 0.022880
C159  C     C_R   0.358623 0.207824 0.093339 0.030636
C160  C     C_R   0.816803 0.185163 0.955547 0.023738
C161  C     C_R   0.143977 0.721704 0.935677 0.032242
C162  C     C_R   0.181150 0.187222 0.042912 0.024716
C163  C     C_R   0.038443 0.897028 0.721475 0.200887
C164  C     C_R   0.857757 0.712921 0.084307 0.034350
C165  C     C_R   0.225665 0.652152 0.951621 0.048104
C166  C     C_R   0.709106 0.201736 0.877228 0.045444
C167  C     C_R   0.764889 0.660738 0.051169 0.049819
C168  C     C_R   0.289314 0.202837 0.123859 0.047736
C169  C     C_R   0.735717 0.160124 0.947082 0.047394
C170  C     C_R   0.198954 0.692931 0.880318 0.043541
C171  C     C_R   0.263147 0.160669 0.054907 0.046795
C172  C     C_R   0.791127 0.702504 0.120586 0.043982
C173  C     C_R   0.628828 0.606308 0.574882 -0.130713
C174  C     C_R   0.390311 0.740031 0.561047 -0.114026
C175  C     C_R   0.355337 0.419988 0.425580 -0.142740
C176  C     C_R   0.372067 0.607189 0.425669 -0.131432
C177  C     C_R   0.645357 0.421786 0.574308 -0.116172
C178  C     C_R   0.128645 0.106214 0.574067 -0.136756
C179  C     C_R   0.854745 0.921574 0.427247 -0.125002
C180  C     C_R   0.871260 0.106479 0.425166 -0.131616
C181  C     C_R   0.144835 0.919615 0.575875 -0.098323
C182  C     C_R   0.733087 0.219369 0.832333 -0.176978
C183  C     C_R   0.202191 0.636578 0.997999 -0.181117
C184  C     C_R   0.264168 0.222693 0.165921 -0.178314
H1    H     H_    0.655848 0.296252 0.769726 0.130567
H2    H     H_    0.591253 0.235960 0.957278 0.144798
H3    H     H_    0.609623 0.717244 0.015790 0.151146
H4    H     H_    0.408863 0.231702 0.047119 0.146973
H5    H     H_    0.890750 0.224960 0.990833 0.150630
H6    H     H_    0.106759 0.763618 0.996460 0.145597
H7    H     H_    0.106359 0.226621 0.005023 0.151091
H8    H     H_    0.906750 0.740422 0.036949 0.149002
H9    H     H_    0.710858 0.241434 0.768910 0.167761
H10   H     H_    0.215957 0.598682 0.042000 0.168714
H11   H     H_    0.285513 0.245998 0.228157 0.162975
H12   H     H_    0.296168 0.589157 0.099464 0.126263
H13   H     H_    0.778054 0.596208 0.975373 0.168021
H14   H     H_    0.191537 0.719906 0.758375 0.171150
H15   H     H_    0.722856 0.094013 0.021319 0.169088
H16   H     H_    0.789990 0.741125 0.230035 0.170821
H17   H     H_    0.277083 0.092381 0.984627 0.169665
H18   H     H_    0.658658 0.616235 0.642703 0.125723
H19   H     H_    0.322416 0.421960 0.357501 0.115395
H20   H     H_    0.345020 0.619569 0.357512 0.114704
H21   H     H_    0.678105 0.424555 0.642411 0.107873
H22   H     H_    0.156615 0.117700 0.642023 0.112708
H23   H     H_    0.344835 0.295460 0.234211 0.129978
H24   H     H_    0.821618 0.922091 0.359316 0.107410
H25   H     H_    0.842712 0.117568 0.357178 0.110481
H26   H     H_    0.177433 0.922094 0.644121 0.106832
H27   H     H_    0.341899 0.584160 0.240005 0.109752
H28   H     H_    0.653747 0.397679 0.747162 0.114399
H29   H     H_    0.656767 0.590805 0.758235 0.115164
H30   H     H_    0.346946 0.396578 0.255260 0.115781
H31   H     H_    0.843206 0.091861 0.242248 0.113381
H32   H     H_    0.154438 0.898394 0.748056 0.116056
H33   H     H_    0.156756 0.091324 0.758216 0.110847
H34   H     H_    0.696843 0.595294 0.904101 0.128740
H35   H     H_    0.846230 0.898406 0.253081 0.125175
H36   H     H_    0.244941 0.772773 0.378797 0.153606
H37   H     H_    0.799145 0.300883 0.626202 0.192735
H38   H     H_    0.705768 0.748683 0.410614 0.172125
H39   H     H_    0.214500 0.280878 0.390697 0.184283
H40   H     H_    0.740644 0.267007 0.381076 0.153946
H41   H     H_    0.291610 0.785725 0.619081 0.184588
H42   H     H_    0.256576 0.269649 0.624379 0.164806
H43   H     H_    0.675654 0.885438 0.382330 0.158778
H44   H     H_    0.285062 0.679774 0.374869 0.142213
H45   H     H_    0.150352 0.789672 0.771458 0.134040
H46   H     H_    0.726108 0.344214 0.626844 0.167884
H47   H     H_    0.665179 0.657115 0.416323 0.129688
H48   H     H_    0.288770 0.323297 0.392989 0.163628
H49   H     H_    0.781660 0.173785 0.380330 0.137214
H50   H     H_    0.216673 0.826961 0.616448 0.163070
H51   H     H_    0.215963 0.176775 0.625686 0.139728
H52   H     H_    0.747961 0.932219 0.380243 0.134413
H53   H     H_    0.431028 0.730934 0.611662 0.177321
H54   H     H_    0.685022 0.448715 0.396191 0.187584
H55   H     H_    0.624279 0.741975 0.585460 0.151769
H56   H     H_    0.804303 0.095920 0.096023 0.128331
H57   H     H_    0.305910 0.456210 0.579538 0.155978
H58   H     H_    0.930693 0.235184 0.600210 0.174241
H59   H     H_    0.192853 0.955173 0.419335 0.137473
H60   H     H_    0.070749 0.231213 0.388843 0.181096
H61   H     H_    0.858811 0.846648 0.628970 0.171890
H62   H     H_    0.551703 0.597312 0.287472 0.119845
H63   H     H_    0.450428 0.453875 0.710671 0.048239
H64   H     H_    0.423932 0.560190 0.687141 0.014214
H65   H     H_    0.575985 0.410760 0.290304 0.100050
H66   H     H_    0.076702 0.059634 0.313344 0.080039
H67   H     H_    0.844076 0.796616 0.228888 0.133313
H68   H     H_    0.951711 0.957841 0.712004 0.075921
H69   H     H_    0.926260 0.066617 0.691018 0.058159
H70   H     H_    0.115567 0.907719 0.324724 0.058508
H71   H     H_    0.850830 0.217749 0.844177 0.050733
H72   H     H_    0.099671 0.669354 0.022909 0.027209
H73   H     H_    0.146043 0.223168 0.152044 0.052019
H74   H     H_    0.907208 0.643105 0.019620 0.019648
H75   H     H_    0.315982 0.659910 0.792368 0.046123
H76   H     H_    0.591611 0.138193 0.972696 0.024491
H77   H     H_    0.652455 0.711636 0.162759 0.036173
H78   H     H_    0.195721 0.096411 0.905717 0.128803
H79   H     H_    0.409319 0.133380 0.036083 0.022570
H80   H     H_    0.370415 0.671702 0.937713 0.152330
I1    I     I_    0.526495 0.538043 0.827815 -0.344160
I2    I     I_    0.462580 0.675820 0.117277 -0.259852
I3    I     I_    0.451273 0.354879 0.093999 -0.268813
I4    I     I_    0.524602 0.707123 0.824267 -0.289568
I5    I     I_    0.070345 0.887987 0.936061 -0.257408
I6    I     I_    0.973979 0.215289 0.184267 -0.299871
I7    I     I_    0.951034 0.863054 0.093107 -0.209114
I8    I     I_    0.024184 0.214677 0.812403 -0.297895
I9    I     I_    0.912795 0.359571 0.651747 -0.254058
I10   I     I_    0.274488 0.928105 0.372575 -0.321092
I11   I     I_    0.090336 0.352487 0.331643 -0.245337
I12   I     I_    0.521386 0.321343 0.338109 -0.400428
I13   I     I_    0.799951 0.775462 0.688650 -0.293895
I14   I     I_    0.412702 0.852032 0.671167 -0.256312
I15   I     I_    0.761038 0.414841 0.341921 -0.311472
I16   I     I_    0.665960 0.871351 0.616664 -0.281194
I17   I     I_    0.223504 0.428822 0.624713 -0.292519
I18   I     I_    0.472528 0.518910 0.177603 -0.312145
I19   I     I_    0.482746 0.318543 0.656569 -0.331002
I20   I     I_    0.026475 0.043771 0.829402 -0.330498
I21   I     I_    0.017495 0.818643 0.341096 -0.362304
I22   I     I_    0.973128 0.046368 0.169196 -0.238062
I23   I     I_    0.981726 0.830920 0.699028 -0.380193
I24   I     I_    0.546611 0.359193 0.903476 -0.245901
N1    N     N_R   0.532910 0.558440 0.665240 -0.074998
N2    N     N_R   0.402970 0.441090 0.454460 -0.034613
N3    N     N_R   0.402970 0.558910 0.454460 -0.045126
N4    N     N_R   0.597030 0.441090 0.545540 -0.040641
N5    N     N_R   0.097030 0.058910 0.545540 -0.047363
N6    N     N_R   0.902970 0.941090 0.454460 -0.038922
N7    N     N_R   0.902970 0.058910 0.454460 -0.043178
N8    N     N_R   0.097030 0.941090 0.545540 -0.044242
N9    N     N_R   0.566200 0.559270 0.454460 -0.065287
N10   N     N_R   0.433800 0.440730 0.545540 -0.069164
N11   N     N_R   0.433800 0.559270 0.545540 -0.087102
N12   N     N_R   0.467090 0.441560 0.334760 -0.066163
N13   N     N_R   0.566200 0.440730 0.454460 -0.052355
N14   N     N_R   0.066200 0.059270 0.454460 -0.078565
N15   N     N_R   0.933800 0.940730 0.545540 -0.068664
N16   N     N_R   0.933800 0.059270 0.545540 -0.085642
N17   N     N_R   0.066200 0.940730 0.454460 -0.042193
N18   N     N_R   0.421050 0.559750 0.334770 -0.050544
N19   N     N_R   0.578950 0.440250 0.665230 -0.047533
N20   N     N_R   0.578950 0.559750 0.665230 -0.049106
N21   N     N_R   0.421050 0.440250 0.334770 -0.048903
N22   N     N_R   0.921050 0.059750 0.334770 -0.052034
N23   N     N_R   0.467090 0.558440 0.334760 -0.077444
N24   N     N_R   0.078950 0.940250 0.665230 -0.048173
N25   N     N_R   0.078950 0.059750 0.665230 -0.047247
N26   N     N_R   0.921050 0.940250 0.334770 -0.057895
N27   N     N_R   0.532910 0.441560 0.665240 -0.074021
N28   N     N_R   0.032910 0.058440 0.665240 -0.076415
N29   N     N_R   0.967090 0.941560 0.334760 -0.062882
N30   N     N_R   0.967090 0.058440 0.334760 -0.073723
N31   N     N_R   0.032910 0.941560 0.665240 -0.074091
N32   N     N_R   0.597030 0.558910 0.545540 -0.047347
Ni1   Ni    Ni4+2 0.483090 0.500000 0.604440 0.218694
Ni2   Ni    Ni4+2 0.516910 0.500000 0.395560 0.275428
Ni3   Ni    Ni4+2 0.983090 0.000000 0.604440 0.223635
Ni4   Ni    Ni4+2 0.016910 0.000000 0.395560 0.282219
Ni5   Ni    Ni4+2 0.586780 0.500000 0.604440 0.230713
Ni6   Ni    Ni4+2 0.413220 0.500000 0.395560 0.222694
Ni7   Ni    Ni4+2 0.086780 0.000000 0.604440 0.222333
Ni8   Ni    Ni4+2 0.913220 0.000000 0.395560 0.221402
O1    O     O_2   0.549828 0.681362 0.319252 -0.539281
O2    O     O_2   0.159452 0.615764 0.100529 -0.570411
O3    O     O_2   0.207116 0.274082 0.231706 -0.604131
O4    O     O_2   0.845173 0.594486 0.937067 -0.559382
O5    O     O_2   0.256588 0.714136 0.715185 -0.598193
O6    O     O_2   0.653799 0.089065 0.055123 -0.572367
O7    O     O_2   0.714771 0.759667 0.246167 -0.592492
O8    O     O_2   0.347329 0.084564 0.953819 -0.567669
O9    O     O_2   0.390987 0.404196 0.689450 -0.525984
O10   O     O_2   0.404784 0.645348 0.680475 -0.544094
O11   O     O_2   0.596031 0.494958 0.327832 -0.599119
O12   O     O_2   0.093915 0.145149 0.317801 -0.546890
O13   O     O_2   0.876099 0.964082 0.667353 -0.543697
O14   O     O_2   0.907041 0.151648 0.678887 -0.541691
O15   O     O_2   0.047844 0.948089 0.279953 -0.556030
O16   O     O_2   0.787342 0.263625 0.757625 -0.612653

loop_
_geom_bond_atom_site_label_1
_geom_bond_atom_site_label_2
_ccdc_geom_bond_type
C61   C70   A    
C120  C146  A    
C31   C42   A    
C10   C184  A    
C82   H65   S    
C83   O12   D    
C44   C175  A    
C124  C133  A    
C66   H50   S    
C24   C98   A    
C57   C76   A    
C69   H52   S    
C52   C61   A    
C9    C88   S    
C152  I22   S    
C54   C63   A    
C53   H37   S    
C2    C90   A    
C163  N31   A    
N20   Ni5   S    
C181  N8    A    
C88   O2    D    
C30   H31   S    
C21   C83   S    
N2    N10   A    
N10   Ni1   S    
N7    Ni8   S    
C36   C97   A    
C112  C129  A    
C4    C12   A    
N2    Ni6   S    
C21   C48   A    
C95   H79   S    
C182  H9    S    
C100  C109  A    
C10   C162  A    
C102  C111  A    
C46   H59   S    
N21   Ni6   S    
N15   Ni3   S    
C130  N28   A    
C39   C130  A    
N31   Ni3   S    
C150  C159  A    
C165  C183  A    
C112  C138  A    
C144  H45   S    
C127  C136  A    
C37   C108  A    
C119  I19   S    
C108  N23   A    
C101  C110  A    
C153  C161  A    
C90   I15   S    
C87   O16   D    
C17   C43   A    
C18   C44   A    
N11   Ni1   S    
C150  C168  A    
N24   N31   A    
C1    N1    A    
C136  I8    S    
C90   C104  A    
N6    N15   A    
N9    Ni2   S    
C115  C133  A    
C22   C49   A    
C38   C119  A    
C180  N7    A    
C79   C174  A    
C2    C71   A    
C184  H11   S    
C118  C136  A    
C68   C77   A    
C54   C105  A    
C175  N2    A    
C51   C181  A    
C42   C117  S    
C92   O5    D    
C13   C72   A    
C39   C118  S    
C98   C106  A    
C146  H67   S    
C7    H17   S    
C91   H74   S    
C43   C173  A    
C178  H22   S    
C17   C78   S    
C20   C47   A    
C3    C11   A    
C11   C91   S    
N22   Ni8   S    
C179  N6    A    
C104  C107  S    
C129  I2    S    
C49   C179  A    
C52   C103  A    
C121  C156  A    
C20   C82   S    
C123  C132  A    
C48   C76   S    
C173  N32   A    
C69   C77   A    
C166  C182  A    
C15   C94   S    
C48   C178  A    
C137  I7    S    
C125  C160  A    
C3    C167  A    
C13   H55   S    
C6    C172  A    
C4    C170  A    
C57   H60   S    
C50   C74   S    
C122  H2    S    
C53   C104  A    
C93   H76   S    
C128  C164  A    
C183  H10   S    
C126  H6    S    
C59   H42   S    
C147  C165  A    
C59   C67   A    
C168  C171  A    
N3    Ni6   S    
C27   N19   A    
C62   H46   S    
C153  C170  A    
C64   C73   A    
C113  C139  A    
C30   C41   A    
C114  C140  A    
C149  C158  A    
C14   C93   S    
C4    H14   S    
C40   C141  A    
C28   N20   A    
C79   C103  A    
C44   C73   S    
C97   N12   A    
C12   C156  A    
N12   N21   A    
C141  I21   S    
C46   C75   A    
C1    C34   A    
C133  I3    S    
C33   H35   S    
C17   N9    A    
C139  C148  A    
C33   C40   A    
C13   C96   A    
C117  C144  A    
C15   C158  A    
C82   O11   D    
C174  H53   S    
C95   O8    D    
C124  H4    S    
C127  H7    S    
C65   C74   A    
C100  I10   S    
C181  H26   S    
C128  H8    S    
C178  N5    A    
C81   O10   D    
N4    N13   A    
N25   Ni7   S    
C9    C161  A    
C70   C174  A    
C145  C154  A    
C127  C162  A    
C26   N18   A    
C80   H63   S    
N19   N27   A    
C102  I13   S    
C122  C131  A    
C92   H75   S    
N4    Ni5   S    
C63   H47   S    
C28   H29   S    
C12   C92   S    
C118  C145  A    
C19   C45   A    
C138  H12   S    
C86   H70   S    
C57   C101  A    
N18   N23   A    
C151  C169  A    
N30   Ni4   S    
N5    Ni7   S    
C60   C111  A    
N29   Ni4   S    
N26   Ni8   S    
C60   C69   A    
C79   I14   S    
C143  C151  A    
C27   H28   S    
C78   H62   S    
C49   C77   S    
C62   C71   A    
C148  C157  A    
N16   Ni3   S    
N13   Ni2   S    
C152  N30   A    
C19   C81   S    
C140  C149  A    
C125  C134  A    
C96   C105  A    
C35   C74   A    
C7    C171  A    
C60   H43   S    
C148  C166  A    
C176  H20   S    
C149  C167  A    
C5    H15   S    
C65   H49   S    
N8    Ni7   S    
C68   C102  A    
C121  H80   S    
C131  I24   S    
C24   C73   A    
C116  C134  A    
C27   C38   A    
N8    N17   A    
C21   N14   A    
C32   C39   A    
C23   N16   A    
N12   Ni2   S    
C155  C172  A    
C146  C155  A    
C80   O9    D    
C177  N4    A    
C126  C161  A    
N26   N29   A    
C87   H71   S    
C105  C111  S    
C115  C142  A    
C28   C34   A    
C81   H64   S    
C29   N21   A    
C154  C162  A    
C25   N17   A    
C163  I23   S    
C98   I17   S    
C61   H44   S    
C14   C157  A    
N1    Ni1   S    
C64   H48   S    
C38   C113  S    
C23   C50   A    
C55   C106  A    
C173  H18   S    
C96   I16   S    
N14   Ni4   S    
C9    C183  A    
C24   H57   S    
C176  N3    A    
N32   Ni5   S    
C147  C156  A    
C5    C14   A    
C58   H41   S    
C7    C16   A    
C40   C120  S    
C126  C135  A    
C18   N10   A    
C83   H66   S    
C31   N24   A    
C119  N27   A    
C134  I6    S    
C8    C160  A    
C55   H39   S    
C8    C182  A    
C165  C170  A    
C179  H24   S    
C45   C70   S    
C143  H56   S    
C121  C129  A    
C26   C37   A    
C167  C172  A    
C68   H61   S    
C99   C107  A    
C20   N13   A    
C78   O1    D    
C103  C109  S    
C142  C150  A    
C22   N15   A    
N18   Ni6   S    
C175  H19   S    
C6    H16   S    
C29   H30   S    
C32   N25   A    
C66   C75   A    
C89   O3    D    
C122  C157  A    
C177  H21   S    
C180  H25   S    
C97   I12   S    
C94   H77   S    
C63   C72   A    
C5    C169  A    
C120  C137  A    
N19   Ni5   S    
C43   C72   S    
N17   Ni4   S    
C84   H68   S    
C58   C109  A    
C91   O4    D    
C135  I5    S    
C99   I9    S    
C88   H72   S    
C41   C152  A    
N1    N20   A    
C29   C36   A    
C67   H51   S    
C51   C75   S    
C54   H38   S    
C56   C65   A    
C124  C159  A    
C59   C110  A    
C141  N29   A    
C144  C153  A    
C11   C164  A    
C37   C112  S    
C130  I20   S    
C6    C15   A    
C58   C66   A    
N28   Ni3   S    
C168  C184  A    
C154  C171  A    
C26   H27   S    
N3    N11   A    
C32   H33   S    
C16   C159  A    
C35   C99   A    
C52   H36   S    
C89   H73   S    
C10   C89   S    
C45   C176  A    
C56   H40   S    
C42   C163  A    
C2    H54   S    
N25   N28   A    
C31   H32   S    
N22   N30   A    
C142  H23   S    
C94   O7    D    
C22   C84   S    
C50   C180  A    
C128  C137  A    
C25   C51   A    
C56   C107  A    
C33   N26   A    
C132  I4    S    
C116  C143  A    
C53   C62   A    
C138  C147  A    
N24   Ni7   S    
C47   C71   S    
C55   C64   A    
C30   N22   A    
C35   H58   S    
C93   O6    D    
C140  H34   S    
C41   C116  S    
N23   Ni2   S    
C108  I18   S    
C85   O14   D    
C106  C110  S    
C46   C100  A    
C16   C95   S    
C113  C131  A    
C114  C132  A    
C123  C158  A    
C155  C164  A    
C34   C114  S    
C85   H69   S    
C8    C87   S    
C151  C160  A    
C47   C177  A    
N27   Ni1   S    
C25   C86   S    
C3    H13   S    
C19   N11   A    
C123  H3    S    
C1    I1    S    
C84   O13   D    
C166  C169  A    
C18   C80   S    
C23   C85   S    
C145  H78   S    
C86   O15   D    
C101  I11   S    
C125  H5    S    
C67   C76   A    
N9    N32   A    
N5    N14   A    
C139  H1    S    
C36   C115  S    
N6    Ni8   S    
N7    N16   A    
C117  C135  A    
