data_mof_unit_48053.cif
_audit_creation_date              2012-12-10T17:27:09-0500
_audit_creation_method            fapswitch 2.2
_symmetry_space_group_name_H-M    P1
_symmetry_Int_Tables_number       1
_space_group_crystal_system       triclinic
_cell_length_a                    18.154022
_cell_length_b                    18.290762
_cell_length_c                    12.095761
_cell_angle_alpha                 90.224122
_cell_angle_beta                  86.439078
_cell_angle_gamma                 89.798284
_cell_volume                      4008.59471471

loop_
_atom_site_label
_atom_site_type_symbol
_atom_type_description
_atom_site_fract_x
_atom_site_fract_y
_atom_site_fract_z
_atom_type_partial_charge
C1    C     C_R   0.401753 0.101304 0.521022 0.884821
C2    C     C_R   0.535148 0.999577 0.021709 -0.017898
C3    C     C_R   0.964835 0.498101 0.978266 -0.018180
C4    C     C_R   0.035114 0.497235 0.021698 -0.019090
C5    C     C_R   0.588973 0.997043 0.831831 0.286479
C6    C     C_R   0.411032 0.002979 0.168166 0.286518
C7    C     C_R   0.089016 0.500935 0.831942 0.287102
C8    C     C_R   0.911010 0.502323 0.168113 0.286745
C9    C     C_R   0.597565 0.999044 0.947472 0.020293
C10   C     C_R   0.402437 0.000955 0.052528 0.020017
C11   C     C_R   0.097531 0.496854 0.947462 0.023124
C12   C     C_R   0.598005 0.898467 0.478972 0.884305
C13   C     C_R   0.902421 0.499031 0.052513 0.021051
C14   C     C_R   0.458489 0.001227 0.861648 -0.104207
C15   C     C_R   0.541511 0.998737 0.138352 -0.104019
C16   C     C_R   0.958485 0.498198 0.861597 -0.104447
C17   C     C_R   0.041473 0.497046 0.138362 -0.103996
C18   C     C_R   0.654677 0.155435 0.467501 -0.115400
C19   C     C_R   0.346640 0.843001 0.532965 -0.116231
C20   C     C_R   0.343648 0.153556 0.534193 -0.106332
C21   C     C_R   0.655245 0.845296 0.465329 -0.107086
C22   C     C_R   0.156379 0.653531 0.467272 -0.109028
C23   C     C_R   0.598140 0.101454 0.479446 0.878878
C24   C     C_R   0.845203 0.344857 0.532774 -0.115575
C25   C     C_R   0.843830 0.654140 0.533702 -0.106227
C26   C     C_R   0.155152 0.344820 0.465949 -0.112104
C27   C     C_R   0.233557 0.804816 0.628489 0.130484
C28   C     C_R   0.769000 0.191383 0.373376 0.128298
C29   C     C_R   0.776746 0.817363 0.387283 0.130841
C30   C     C_R   0.220639 0.179053 0.608692 0.128636
C31   C     C_R   0.730343 0.309842 0.626130 0.128372
C32   C     C_R   0.275627 0.682454 0.381722 0.127279
C33   C     C_R   0.275470 0.314630 0.385163 0.131966
C34   C     C_R   0.402061 0.898270 0.520568 0.877325
C35   C     C_R   0.721466 0.681132 0.609772 0.130449
C36   C     C_R   0.294347 0.849920 0.621078 -0.308542
C37   C     C_R   0.707611 0.147079 0.380713 -0.309554
C38   C     C_R   0.714516 0.861027 0.391713 -0.311373
C39   C     C_R   0.283580 0.136307 0.605435 -0.312223
C40   C     C_R   0.791710 0.354156 0.618533 -0.309744
C41   C     C_R   0.213050 0.639533 0.387727 -0.311674
C42   C     C_R   0.213151 0.358212 0.388786 -0.311589
C43   C     C_R   0.784397 0.638344 0.607091 -0.312667
C44   C     C_R   0.343780 0.786196 0.455046 0.039096
C45   C     C_R   0.901704 0.601375 0.520952 0.883418
C46   C     C_R   0.658733 0.211261 0.546500 0.040511
C47   C     C_R   0.653552 0.782979 0.531752 0.037453
C48   C     C_R   0.344635 0.215443 0.467020 0.038108
C49   C     C_R   0.841491 0.288493 0.454732 0.040905
C50   C     C_R   0.159474 0.711617 0.542308 0.045322
C51   C     C_R   0.154302 0.284061 0.535896 0.039554
C52   C     C_R   0.844566 0.715422 0.464974 0.039919
C53   C     C_R   0.282404 0.739629 0.460123 0.081181
C54   C     C_R   0.721574 0.255686 0.543660 0.082755
C55   C     C_R   0.717618 0.740221 0.534782 0.083272
C56   C     C_R   0.098303 0.398655 0.479001 0.879854
C57   C     C_R   0.279880 0.256819 0.462132 0.084875
C58   C     C_R   0.778157 0.244821 0.456686 0.083748
C59   C     C_R   0.224602 0.752071 0.544477 0.084158
C60   C     C_R   0.217298 0.239430 0.535780 0.081229
C61   C     C_R   0.780445 0.758003 0.461876 0.081755
C62   C     C_3   0.340427 0.009760 0.241963 -0.350056
C63   C     C_3   0.306659 0.086431 0.237006 -0.834603
C64   C     C_3   0.659593 0.990398 0.758024 -0.348880
C65   C     C_3   0.693580 0.913825 0.763007 -0.836457
C66   C     C_3   0.840319 0.508778 0.241841 -0.348189
C67   C     C_R   0.098073 0.601522 0.479426 0.881832
C68   C     C_3   0.805131 0.584700 0.235019 -0.838811
C69   C     C_3   0.159822 0.506516 0.758379 -0.346864
C70   C     C_3   0.197111 0.580964 0.769277 -0.843981
C71   C     C_R   0.901904 0.398554 0.520588 0.879946
C72   C     C_R   0.464853 0.000389 0.978290 -0.017818
H1    H     H_    0.594756 0.997451 0.173592 0.139260
H2    H     H_    0.796495 0.397706 0.678840 0.156562
H3    H     H_    0.785956 0.590960 0.660635 0.152580
H4    H     H_    0.211285 0.404687 0.333502 0.152716
H5    H     H_    0.349176 0.128739 0.247864 0.266401
H6    H     H_    0.281912 0.095746 0.156723 0.259316
H7    H     H_    0.262430 0.092922 0.304049 0.245258
H8    H     H_    0.299555 0.968808 0.216677 0.190281
H9    H     H_    0.347415 0.997268 0.328213 0.256994
H10   H     H_    0.718378 0.904598 0.843274 0.259672
H11   H     H_    0.651190 0.871396 0.752172 0.265421
H12   H     H_    0.405243 0.002496 0.826410 0.139463
H13   H     H_    0.737811 0.907437 0.695944 0.245338
H14   H     H_    0.652564 0.002787 0.671761 0.257136
H15   H     H_    0.700354 0.031479 0.783259 0.190613
H16   H     H_    0.847020 0.627910 0.243380 0.264236
H17   H     H_    0.779365 0.592283 0.155123 0.260559
H18   H     H_    0.761435 0.591464 0.302786 0.245897
H19   H     H_    0.800182 0.466753 0.217714 0.191013
H20   H     H_    0.847564 0.497568 0.328397 0.257689
H21   H     H_    0.156035 0.625756 0.767496 0.264284
H22   H     H_    0.225460 0.585001 0.847613 0.261224
H23   H     H_    0.094708 0.495475 0.173612 0.139528
H24   H     H_    0.239139 0.588621 0.699575 0.246693
H25   H     H_    0.198807 0.462557 0.779899 0.191866
H26   H     H_    0.152192 0.497761 0.671257 0.259251
H27   H     H_    0.548503 0.223768 0.588983 0.172686
H28   H     H_    0.598225 0.183410 0.688046 0.220170
H29   H     H_    0.453519 0.778211 0.406634 0.175822
H30   H     H_    0.399682 0.816848 0.311123 0.216832
H31   H     H_    0.453132 0.242952 0.466588 0.165656
H32   H     H_    0.429302 0.200367 0.348970 0.212266
H33   H     H_    0.544234 0.758309 0.535725 0.166787
H34   H     H_    0.905240 0.497736 0.826327 0.139358
H35   H     H_    0.570987 0.799857 0.652489 0.211443
H36   H     H_    0.051757 0.742539 0.557211 0.163497
H37   H     H_    0.079158 0.693585 0.666442 0.217500
H38   H     H_    0.951957 0.273154 0.417622 0.172339
H39   H     H_    0.905592 0.314243 0.315534 0.221011
H40   H     H_    0.953593 0.740501 0.457518 0.162888
H41   H     H_    0.926010 0.697532 0.342558 0.213341
H42   H     H_    0.043088 0.268412 0.558292 0.169275
H43   H     H_    0.082986 0.306131 0.669226 0.218144
H44   H     H_    0.704303 0.314360 0.791189 0.179752
H45   H     H_    0.702498 0.104139 0.319517 0.157468
H46   H     H_    0.658410 0.375111 0.715375 0.183073
H47   H     H_    0.349386 0.611828 0.307467 0.181246
H48   H     H_    0.309317 0.669745 0.220159 0.180765
H49   H     H_    0.311458 0.325505 0.224392 0.179750
H50   H     H_    0.351056 0.383218 0.312728 0.184527
H51   H     H_    0.645722 0.610109 0.675511 0.184173
H52   H     H_    0.682464 0.666575 0.768476 0.179990
H53   H     H_    0.210519 0.803968 0.794337 0.179992
H54   H     H_    0.162019 0.866130 0.724943 0.184779
H55   H     H_    0.840435 0.127300 0.281183 0.183649
H56   H     H_    0.299163 0.892601 0.682751 0.157775
H57   H     H_    0.793808 0.188903 0.207915 0.179596
H58   H     H_    0.814731 0.832440 0.228203 0.180043
H59   H     H_    0.852909 0.887870 0.321167 0.184055
H60   H     H_    0.144533 0.105939 0.667224 0.183258
H61   H     H_    0.179250 0.160041 0.765078 0.180545
H62   H     H_    0.678126 0.955053 0.036594 0.180213
H63   H     H_    0.675690 0.048338 0.035203 0.177517
H64   H     H_    0.321906 0.044997 0.963401 0.180667
H65   H     H_    0.324272 0.951711 0.964816 0.177296
H66   H     H_    0.174404 0.443853 0.033093 0.178861
H67   H     H_    0.284775 0.087950 0.657030 0.152053
H68   H     H_    0.179073 0.536974 0.038371 0.179470
H69   H     H_    0.821766 0.541789 0.962322 0.180661
H70   H     H_    0.824435 0.448545 0.965975 0.177190
H71   H     H_    0.713318 0.908907 0.339117 0.152476
H72   H     H_    0.209441 0.593773 0.330953 0.154772
N1    N     N_R   0.480750 0.000000 0.209750 -0.134131
N2    N     N_3   0.902947 0.273991 0.376641 -0.425283
N3    N     N_3   0.911395 0.736428 0.403300 -0.429335
N4    N     N_3   0.089380 0.267515 0.605506 -0.424760
N5    N     N_3   0.677501 0.321158 0.717820 -0.434429
N6    N     N_3   0.332190 0.665878 0.297185 -0.431228
N7    N     N_3   0.333319 0.329441 0.302167 -0.433208
N8    N     N_3   0.662319 0.663890 0.689420 -0.431285
N9    N     N_3   0.182142 0.812461 0.722816 -0.436804
N10   N     N_3   0.821204 0.181258 0.280563 -0.435204
N11   N     N_3   0.835523 0.834392 0.306877 -0.431658
N12   N     N_R   0.519250 0.000000 0.790250 -0.134343
N13   N     N_3   0.160456 0.159384 0.685081 -0.430286
N14   N     N_3   0.670504 0.001056 0.987491 -0.478804
N15   N     N_3   0.329495 0.998994 0.012514 -0.478848
N16   N     N_3   0.170371 0.491938 0.987363 -0.477971
N17   N     N_3   0.829496 0.496347 0.012538 -0.478604
N18   N     N_R   0.980750 0.500000 0.209750 -0.134573
N19   N     N_R   0.019250 0.500000 0.790250 -0.135050
N20   N     N_3   0.598467 0.223925 0.627406 -0.424371
N21   N     N_3   0.402609 0.776121 0.371006 -0.423217
N22   N     N_3   0.412379 0.238556 0.409681 -0.430383
N23   N     N_3   0.585998 0.761446 0.591148 -0.428779
N24   N     N_3   0.094713 0.733749 0.608873 -0.432460
O1    O     O_R   0.418020 0.076820 0.422210 -0.631895
O2    O     O_R   0.569630 0.923170 0.391410 -0.620342
O3    O     O_R   0.569630 0.076830 0.391410 -0.617809
O4    O     O_R   0.430370 0.923170 0.608590 -0.617783
O5    O     O_R   0.930370 0.576830 0.608590 -0.619270
O6    O     O_R   0.069630 0.423170 0.391410 -0.617560
O7    O     O_R   0.069630 0.576830 0.391410 -0.619555
O8    O     O_R   0.930370 0.423170 0.608590 -0.618574
O9    O     O_R   0.581980 0.923180 0.577790 -0.632143
O10   O     O_R   0.581980 0.076820 0.577790 -0.658515
O11   O     O_R   0.418020 0.923180 0.422210 -0.658597
O12   O     O_R   0.918020 0.576820 0.422210 -0.633292
O13   O     O_R   0.081980 0.423180 0.577790 -0.656158
O14   O     O_R   0.081980 0.576820 0.577790 -0.634848
O15   O     O_R   0.918020 0.423180 0.422210 -0.657955
O16   O     O_R   0.430370 0.076830 0.608590 -0.619862
Zn1   Zn    Zn3+2 0.491750 0.000000 0.375560 0.916412
Zn2   Zn    Zn3+2 0.508250 0.000000 0.624440 0.916497
Zn3   Zn    Zn3+2 0.991750 0.500000 0.375560 0.916511
Zn4   Zn    Zn3+2 0.008250 0.500000 0.624440 0.916842

loop_
_geom_bond_atom_site_label_1
_geom_bond_atom_site_label_2
_ccdc_geom_bond_type
C27   N9    S    
C30   N13   S    
C66   C68   S    
C29   C61   A    
O5    Zn4   S    
H69   N17   S    
C8    C13   A    
C38   H71   S    
C14   H12   S    
C25   C43   A    
H70   N17   S    
C53   C59   A    
C48   C57   A    
C63   H7    S    
C71   O8    A    
C8    C66   S    
H48   N6    S    
C50   C59   A    
C9    N14   S    
C62   H8    S    
C70   H22   S    
C18   C37   A    
C45   O5    A    
C52   C61   A    
C63   H5    S    
N18   Zn3   S    
C31   N5    S    
C65   H11   S    
C22   C41   A    
C56   O13   A    
C55   C61   A    
C31   C40   A    
C1    O1    A    
C23   O10   A    
C45   O12   A    
H64   N15   S    
C44   C53   A    
O13   Zn4   S    
C21   C38   A    
C67   O7    A    
C30   C60   A    
C29   C38   A    
C49   N2    S    
C68   H18   S    
C32   C41   A    
H58   N11   S    
C17   H23   S    
C35   C43   A    
C64   H15   S    
C3    C13   A    
C16   H34   S    
C29   N11   S    
C69   H26   S    
H47   N6    S    
C12   O9    A    
H36   N24   S    
H63   N14   S    
C46   N20   S    
C28   N10   S    
C34   O11   A    
C36   H56   S    
C2    C72   A    
C18   C46   A    
H55   N10   S    
C64   H14   S    
H44   N5    S    
C1    O16   A    
H53   N9    S    
C11   N16   S    
O8    Zn4   S    
C39   H67   S    
C16   N19   A    
C43   H3    S    
H35   N23   S    
H65   N15   S    
C35   C55   A    
C18   C23   S    
C71   O15   A    
C70   H21   S    
C41   H72   S    
C33   N7    S    
H39   N2    S    
O4    Zn2   S    
C15   N1    A    
C20   C39   A    
O3    Zn1   S    
C57   C60   A    
C12   O2    A    
C7    N19   A    
H43   N4    S    
O9    Zn2   S    
H49   N7    S    
C5    C64   S    
N1    Zn1   S    
N19   Zn4   S    
H46   N5    S    
C70   H24   S    
H66   N16   S    
C5    C9    A    
C62   C63   S    
H37   N24   S    
O15   Zn3   S    
O6    Zn3   S    
C47   N23   S    
C7    C11   A    
C46   C54   A    
C68   H17   S    
C32   N6    S    
H28   N20   S    
O14   Zn4   S    
C4    C11   A    
H29   N21   S    
C2    C15   A    
C20   C48   A    
C4    C17   A    
O12   Zn3   S    
C15   H1    S    
C62   H9    S    
C13   N17   S    
H30   N21   S    
N12   Zn2   S    
C50   N24   S    
C68   H16   S    
C10   N15   S    
C35   N8    S    
C33   C42   A    
C3    C4    A    
C25   C45   S    
C32   C53   A    
C34   O4    A    
C19   C44   A    
C26   C42   A    
C47   C55   A    
C54   C58   A    
C24   C49   A    
C6    N1    A    
H51   N8    S    
C1    C20   S    
C33   C57   A    
C14   N12   A    
C14   C72   A    
C67   O14   A    
C19   C34   S    
C26   C56   S    
C6    C10   A    
C66   H20   S    
C65   H13   S    
C66   H19   S    
O11   Zn1   S    
C28   C58   A    
C27   C36   A    
C52   N3    S    
C5    N12   A    
C48   N22   S    
C42   H4    S    
H60   N13   S    
O16   Zn2   S    
H40   N3    S    
C22   C50   A    
C19   C36   A    
H50   N7    S    
C6    C62   S    
H59   N11   S    
C7    C69   S    
C25   C52   A    
O1    Zn1   S    
C8    N18   A    
C26   C51   A    
C64   C65   S    
H41   N3    S    
C65   H10   S    
H57   N10   S    
C28   C37   A    
C12   C21   S    
O2    Zn1   S    
C51   N4    S    
C24   C40   A    
C37   H45   S    
C40   H2    S    
C30   C39   A    
H61   N13   S    
C44   N21   S    
H62   N14   S    
C31   C54   A    
H52   N8    S    
C69   C70   S    
C22   C67   S    
H42   N4    S    
C17   N18   A    
C49   C58   A    
O7    Zn3   S    
H27   N20   S    
O10   Zn2   S    
H54   N9    S    
H33   N23   S    
C23   O3    A    
H31   N22   S    
C56   O6    A    
C27   C59   A    
C51   C60   A    
H38   N2    S    
C2    C9    A    
H32   N22   S    
H68   N16   S    
C3    C16   A    
C24   C71   S    
C69   H25   S    
C21   C47   A    
C63   H6    S    
C10   C72   A    
