data_mof_unit_50957.cif
_audit_creation_date              2012-12-11T17:07:31-0500
_audit_creation_method            fapswitch 2.2
_symmetry_space_group_name_H-M    P1
_symmetry_Int_Tables_number       1
_space_group_crystal_system       triclinic
_cell_length_a                    6.971543
_cell_length_b                    14.575237
_cell_length_c                    16.049931
_cell_angle_alpha                 90.095146
_cell_angle_beta                  90.199927
_cell_angle_gamma                 89.872563
_cell_volume                      1630.84765686

loop_
_atom_site_label
_atom_site_type_symbol
_atom_type_description
_atom_site_fract_x
_atom_site_fract_y
_atom_site_fract_z
_atom_type_partial_charge
O1    O     O_R   0.505720 0.583900 0.413310 -0.521246
O2    O     O_R   0.175940 0.594920 0.586080 -0.545743
O3    O     O_R   0.005640 0.416100 0.586690 -0.536255
C1    C     C_R   0.344669 0.615959 0.615504 0.701545
O4    O     O_R   0.176000 0.594930 0.413930 -0.548841
O5    O     O_R   0.005700 0.416110 0.413310 -0.541240
C2    C     C_R   0.344348 0.616595 0.384989 0.733367
O6    O     O_R   0.505660 0.583890 0.586690 -0.540930
O7    O     O_3   0.339200 0.441330 0.500000 -0.366957
V1    V     V_3+5 0.064350 0.510880 0.500000 1.434095
O8    O     O_R   0.675980 0.405080 0.413920 -0.536631
C3    C     C_R   0.844882 0.383362 0.384965 0.725802
O9    O     O_R   0.675920 0.405070 0.586070 -0.542036
C4    C     C_R   0.845157 0.383901 0.615023 0.686717
V2    V     V_3+5 0.564340 0.489120 0.500000 1.456911
O10   O     O_3   0.839360 0.558670 0.500000 -0.373464
C5    C     C_R   0.024491 0.427780 0.773812 -0.228214
C6    C     C_R   0.111832 0.451155 0.849034 -0.166903
C7    C     C_R   0.121543 0.387731 0.913422 0.451321
C8    C     C_R   0.043931 0.300427 0.902795 -0.188383
C9    C     C_R   0.957615 0.273838 0.826393 0.006773
C10   C     C_R   0.947530 0.339040 0.760416 0.084281
C11   C     C_R   0.873639 0.185713 0.816574 -0.144065
C12   C     C_R   0.770957 0.165068 0.741838 0.065554
C13   C     C_R   0.769770 0.228465 0.674447 0.007043
C14   C     C_R   0.856309 0.315806 0.683900 -0.134591
C15   C     C_R   0.669922 0.081529 0.731748 -0.154179
C16   C     C_R   0.578582 0.059304 0.657195 -0.098293
C17   C     C_R   0.587461 0.118771 0.590003 0.435115
C18   C     C_R   0.682914 0.202153 0.598002 -0.180933
H1    H     H_    0.015532 0.480917 0.727161 0.124101
H2    H     H_    0.169675 0.519435 0.857579 0.144080
H3    H     H_    0.048411 0.255157 0.955994 0.136691
H4    H     H_    0.659076 0.031513 0.780608 0.180860
H5    H     H_    0.503149 0.994698 0.651462 0.174780
H6    H     H_    0.688806 0.245152 0.543291 0.142217
C19   C     C_R   0.732290 0.181284 0.242680 0.136141
C20   C     C_R   0.882113 0.183187 0.184799 -0.149546
C21   C     C_R   0.030241 0.247092 0.198728 -0.156760
H7    H     H_    0.150469 0.250505 0.156474 0.162016
C22   C     C_R   0.019034 0.311076 0.264516 -0.142125
H8    H     H_    0.131457 0.361666 0.270976 0.137730
C23   C     C_R   0.858553 0.313623 0.317870 -0.108747
C24   C     C_R   0.719975 0.245118 0.307226 0.095245
C25   C     C_3   0.507073 0.252594 0.299360 -0.442624
C26   C     C_3   0.520516 0.182387 0.228855 0.015003
H9    H     H_    0.462010 0.321688 0.277575 0.162883
H10   H     H_    0.431719 0.227812 0.355880 0.225518
H11   H     H_    0.478834 0.208866 0.166428 0.156149
C27   C     C_R   0.510954 0.743734 0.691535 0.070995
C28   C     C_R   0.353661 0.685034 0.683167 -0.101229
C29   C     C_R   0.204628 0.694053 0.741519 -0.145892
H12   H     H_    0.081508 0.649354 0.738133 0.112366
C30   C     C_R   0.218810 0.756826 0.808117 -0.075687
H13   H     H_    0.105608 0.758983 0.854008 0.133380
C31   C     C_R   0.380080 0.814070 0.817184 -0.139953
C32   C     C_R   0.523770 0.807702 0.756280 0.085850
C33   C     C_3   0.733033 0.788160 0.767358 0.217837
C34   C     C_3   0.717374 0.718657 0.697232 -0.418683
H14   H     H_    0.767521 0.757490 0.828988 0.081796
H15   H     H_    0.738847 0.646726 0.718397 0.128698
H16   H     H_    0.796769 0.737248 0.639741 0.219354
C35   C     C_R   0.517178 0.737592 0.303743 0.093779
C36   C     C_R   0.352463 0.685368 0.317019 -0.151405
C37   C     C_R   0.207544 0.690183 0.256451 -0.155337
H17   H     H_    0.092454 0.641641 0.259581 0.147218
C38   C     C_R   0.222391 0.748502 0.186688 0.186252
C39   C     C_R   0.377578 0.811066 0.180601 -0.149700
C40   C     C_R   0.527081 0.802164 0.238736 0.051990
C41   C     C_3   0.724430 0.771938 0.216309 -0.429138
C42   C     C_3   0.710568 0.699343 0.283089 0.042780
H18   H     H_    0.831994 0.825917 0.230720 0.170577
H19   H     H_    0.729402 0.743903 0.151898 0.195013
H20   H     H_    0.816041 0.706606 0.334752 0.147808
O11   O     O_R   0.229140 0.916090 0.913340 -0.521655
O12   O     O_R   0.558860 0.905090 0.086080 -0.539256
O13   O     O_R   0.729100 0.083920 0.086690 -0.527378
C43   C     C_R   0.389684 0.880661 0.112904 0.717091
O14   O     O_R   0.558860 0.905090 0.913930 -0.542995
O15   O     O_R   0.729100 0.083920 0.913310 -0.543593
C44   C     C_R   0.390223 0.882213 0.885848 0.701074
O16   O     O_R   0.229140 0.916080 0.086720 -0.547485
O17   O     O_3   0.395570 0.058660 0.000020 -0.365264
V3    V     V_3+5 0.670450 0.989140 0.000000 1.461699
O18   O     O_R   0.058810 0.094980 0.913910 -0.533732
C45   C     C_R   0.888865 0.116322 0.884793 0.729950
O19   O     O_R   0.058810 0.094980 0.086060 -0.544740
C46   C     C_R   0.890068 0.117249 0.114518 0.705567
V4    V     V_3+5 0.170450 0.010950 0.999970 1.471287
O20   O     O_3   0.895460 0.941370 0.999990 -0.376735
Cl1   Cl    Cl    0.477614 0.088859 0.495331 -0.689665
N1    N     N_3   0.433236 0.093722 0.248439 -0.635037
H21   H     H_    0.479578 0.070919 0.306943 0.287636
H22   H     H_    0.284898 0.103200 0.252048 0.246880
Cl2   Cl    Cl    0.878793 0.883448 0.739203 -0.677461
N2    N     N_3   0.095467 0.732798 0.117734 -0.669546
H23   H     H_    0.018843 0.792511 0.104686 0.242198
H24   H     H_    0.177995 0.716370 0.065492 0.229933
N3    N     N_3   0.698953 0.605507 0.249132 -0.641545
H25   H     H_    0.586580 0.600615 0.205915 0.254274
H26   H     H_    0.822775 0.590999 0.215355 0.246385
Cl3   Cl    Cl    0.227050 0.418400 0.008949 -0.689788

loop_
_geom_bond_atom_site_label_1
_geom_bond_atom_site_label_2
_ccdc_geom_bond_type
O19   C46   A    
C22   H8    S    
C7    C8    A    
C12   C15   A    
O15   V3    S    
O12   V3    S    
C31   C44   S    
C21   C22   A    
C25   C26   S    
C29   H12   S    
C26   H11   S    
C17   C18   A    
O16   V4    S    
C27   C34   S    
C16   C17   A    
O12   C43   A    
C3    C23   S    
O5    C3    A    
O14   V3    S    
C7    Cl3   S    
C26   N1    S    
C33   H14   S    
V2    O10   S    
C31   C32   A    
C6    C7    A    
O15   C45   A    
O8    V2    S    
C35   C40   A    
O13   C46   A    
C39   C40   A    
C37   C38   A    
C11   C45   S    
N2    H24   S    
C11   C12   A    
C41   C42   S    
O1    V2    S    
O7    V1    S    
C1    O6    A    
O9    C4    A    
C22   C23   A    
V3    O20   S    
C29   C30   A    
C5    C6    A    
C25   H9    S    
C15   H4    S    
C39   C43   S    
O17   V4    S    
C30   C31   A    
C34   H15   S    
C1    C28   S    
C38   C39   A    
C33   Cl2   S    
C12   C13   A    
C16   H5    S    
V4    O20   S    
C21   H7    S    
O4    C2    A    
O18   V4    S    
O11   C44   A    
O13   V3    S    
C13   C14   A    
O18   C45   A    
C42   N3    S    
C28   C29   A    
C20   C46   S    
O2    C1    A    
C23   C24   A    
C19   C20   A    
C43   O16   A    
O17   V3    S    
N2    H23   S    
C41   H19   S    
N1    H22   S    
C27   C28   A    
C4    C14   S    
O3    C4    A    
C8    H3    S    
N3    H26   S    
C35   C42   S    
O6    V2    S    
O9    V2    S    
C38   N2    S    
C5    H1    S    
C6    H2    S    
O2    V1    S    
C17   Cl1   S    
C24   C25   S    
O14   C44   A    
C25   H10   S    
C13   C18   A    
C30   H13   S    
C34   H16   S    
O1    C2    A    
C27   C32   A    
O5    V1    S    
C42   H20   S    
O8    C3    A    
C5    C10   A    
N3    H25   S    
C18   H6    S    
C36   C37   A    
C19   C24   A    
C9    C11   A    
C33   C34   S    
O4    V1    S    
O3    V1    S    
V1    O10   S    
C32   C33   S    
C20   C21   A    
N1    H21   S    
O7    V2    S    
C40   C41   S    
C2    C36   S    
O11   V4    S    
C35   C36   A    
C8    C9    A    
C37   H17   S    
C10   C14   A    
C15   C16   A    
O19   V4    S    
C41   H18   S    
C19   C26   S    
C9    C10   A    
