data_mof_unit_7135.cif
_audit_creation_date              2012-12-11T16:34:34-0500
_audit_creation_method            fapswitch 2.2
_symmetry_space_group_name_H-M    P1
_symmetry_Int_Tables_number       1
_space_group_crystal_system       triclinic
_cell_length_a                    8.267624
_cell_length_b                    17.404913
_cell_length_c                    27.041131
_cell_angle_alpha                 95.32347
_cell_angle_beta                  92.502082
_cell_angle_gamma                 83.587665
_cell_volume                      3847.94309095

loop_
_atom_site_label
_atom_site_type_symbol
_atom_type_description
_atom_site_fract_x
_atom_site_fract_y
_atom_site_fract_z
_atom_type_partial_charge
Ba1   Ba    Ba6+2 0.856110 0.463800 0.523550 1.668069
Ba2   Ba    Ba6+2 0.333710 0.536130 0.476450 1.655007
C1    C     C_3   0.592318 0.191623 0.651227 0.324943
C2    C     C_R   0.920144 0.585638 0.179250 0.571590
C3    C     C_2   0.761589 0.555520 0.272325 -0.083160
C4    C     C_3   0.079541 0.249659 0.655306 0.658486
C5    C     C_3   0.739838 0.578667 0.326958 -0.050041
C6    C     C_1   0.984079 0.490136 0.343201 0.033409
C7    C     C_2   0.026134 0.487847 0.295781 -0.109764
C8    C     C_2   0.907603 0.520466 0.256752 0.194343
C9    C     C_R   0.041533 0.518357 0.104195 -0.082062
C10   C     C_R   0.070857 0.450614 0.129464 -0.035557
C11   C     C_R   0.145735 0.383062 0.104062 -0.060265
C12   C     C_3   0.613455 0.271119 0.633797 0.386726
C13   C     C_R   0.965464 0.586119 0.129449 -0.024307
C14   C     C_2   0.848756 0.529545 0.360286 -0.290841
C15   C     C_2   0.347414 0.480191 0.644118 -0.337747
C16   C     C_3   0.051708 0.191904 0.693839 0.306478
C17   C     C_R   0.198028 0.448198 0.976732 0.035240
C18   C     C_R   0.110480 0.588402 0.979138 -0.036123
C19   C     C_R   0.174871 0.518276 0.952669 0.046815
C20   C     C_R   0.259017 0.379510 0.948382 -0.104551
C21   C     C_R   0.297872 0.379750 0.898859 -0.067984
C22   C     C_R   0.277826 0.448361 0.874920 -0.009432
C23   C     C_3   0.502248 0.657557 0.627353 0.299737
C24   C     C_R   0.217118 0.518144 0.901697 -0.137375
C25   C     C_R   0.200145 0.587573 0.877612 -0.115823
C26   C     C_R   0.242569 0.585046 0.826836 0.630212
C27   C     C_R   0.315789 0.447883 0.824445 0.555015
C28   C     C_3   0.204540 0.300759 0.417440 0.319805
C29   C     C_2   0.469857 0.488690 0.729865 -0.155258
C30   C     C_3   0.502486 0.487651 0.675104 -0.059105
C31   C     C_1   0.211667 0.520167 0.659982 0.033547
C32   C     C_2   0.180408 0.531551 0.708716 0.348797
C33   C     C_2   0.318163 0.511825 0.746782 0.157652
C34   C     C_3   0.488629 0.687109 0.681929 -0.369086
C35   C     C_R   0.158937 0.448785 0.027906 0.018253
C36   C     C_R   0.087323 0.518327 0.053577 0.052283
C37   C     C_R   0.060360 0.587841 0.029134 0.037551
C38   C     C_R   0.188727 0.382016 0.054646 -0.102838
C39   C     C_R   0.935219 0.653509 0.104413 -0.062536
C40   C     C_3   0.220886 0.213253 0.404976 -0.376827
C41   C     C_R   0.099539 0.657247 0.954653 -0.148478
C42   C     C_R   0.139363 0.657280 0.904800 0.436038
C43   C     C_R   0.981041 0.654458 0.055573 -0.102471
C44   C     C_R   0.418732 0.278973 0.522321 -0.296886
C45   C     C_3   0.056784 0.700898 0.339096 0.330759
C46   C     C_R   0.557256 0.254527 0.495529 0.052459
C47   C     C_R   0.615179 0.175407 0.489532 -0.114819
C48   C     C_R   0.530262 0.120511 0.509419 0.006533
C49   C     C_R   0.385197 0.145549 0.534343 -0.132964
C50   C     C_R   0.330078 0.225126 0.540605 0.048160
C51   C     C_R   0.590241 0.835252 0.506884 -0.098512
C52   C     C_3   0.016748 0.703953 0.581014 0.301048
C53   C     C_R   0.640861 0.755502 0.501839 0.042620
C54   C     C_R   0.874569 0.778530 0.456751 0.059571
C55   C     C_R   0.823783 0.858692 0.460985 -0.006903
C56   C     C_3   0.073692 0.722270 0.286430 -0.303813
C57   C     C_R   0.680560 0.887271 0.486162 0.050628
C58   C     C_1   0.630431 0.969853 0.493817 -0.005580
C59   C     C_1   0.585485 0.038526 0.500971 -0.006117
C60   C     C_R   0.779074 0.727485 0.475426 -0.279069
C61   C     C_3   0.064106 0.785866 0.594186 0.243030
C62   C     C_3   0.680634 0.371246 0.375547 0.300758
C63   C     C_3   0.680527 0.352828 0.319459 -0.361233
C64   C     C_3   0.087681 0.903802 0.564740 0.186004
C65   C     C_3   0.703199 0.064140 0.650849 0.191302
C66   C     C_3   0.490735 0.954389 0.357286 0.152113
C67   C     C_3   0.512315 0.744529 0.361155 0.357960
C68   C     C_3   0.255986 0.324768 0.701319 0.022170
C69   C     C_3   0.961006 0.747797 0.870445 0.247633
C70   C     C_3   0.947770 0.538479 0.754329 0.291003
C71   C     C_3   0.923088 0.265483 0.760098 0.197130
C72   C     C_3   0.462959 0.823936 0.342383 0.242226
C73   C     C_R   0.024783 0.451655 0.179587 0.597588
H1    H     H_    0.700796 0.262966 0.603082 0.067991
H2    H     H_    0.705027 0.404488 0.301126 0.072171
H3    H     H_    0.559837 0.335847 0.305739 0.132457
H4    H     H_    0.493748 0.296862 0.619542 -0.068642
H5    H     H_    0.480812 0.170852 0.632520 -0.011201
H6    H     H_    0.379735 0.644619 0.612776 0.003593
H7    H     H_    0.588986 0.603966 0.624023 0.044525
H8    H     H_    0.411201 0.743622 0.685558 0.129585
H9    H     H_    0.432039 0.645522 0.702496 0.086472
H10   H     H_    0.611456 0.694797 0.698706 0.129063
H11   H     H_    0.574925 0.197501 0.692085 0.086111
H12   H     H_    0.298484 0.197205 0.372309 0.116574
H13   H     H_    0.157100 0.182902 0.720532 -0.038250
H14   H     H_    0.135995 0.645976 0.343945 0.090949
H15   H     H_    0.185694 0.750841 0.283326 0.129008
H16   H     H_    0.082737 0.668829 0.260652 0.116222
H17   H     H_    0.966845 0.762390 0.275472 0.125220
H18   H     H_    0.647330 0.733384 0.360063 -0.064086
H19   H     H_    0.474397 0.746363 0.400227 0.063561
H20   H     H_    0.328577 0.837319 0.344536 0.071386
H21   H     H_    0.989509 0.301857 0.659767 0.067589
H22   H     H_    0.498323 0.821736 0.302957 0.032104
H23   H     H_    0.098771 0.193477 0.396406 0.130235
H24   H     H_    0.147874 0.463916 0.285257 0.131905
H25   H     H_    0.171639 0.330066 0.122402 0.121120
H26   H     H_    0.570666 0.475514 0.755898 0.095619
H27   H     H_    0.343200 0.325078 0.879113 0.113755
H28   H     H_    0.276069 0.323650 0.963022 0.065994
H29   H     H_    0.247387 0.327585 0.038732 0.068644
H30   H     H_    0.669058 0.577581 0.245987 0.118735
H31   H     H_    0.874978 0.706481 0.122587 0.121259
H32   H     H_    0.062596 0.713341 0.973395 0.086553
H33   H     H_    0.948743 0.708451 0.039298 0.068035
H34   H     H_    0.885189 0.707021 0.571351 -0.020987
H35   H     H_    0.831000 0.540572 0.399939 0.081426
H36   H     H_    0.345218 0.438901 0.611475 0.087334
H37   H     H_    0.484734 0.856851 0.528461 0.062433
H38   H     H_    0.312945 0.103582 0.547192 0.068988
H39   H     H_    0.898312 0.898434 0.446695 0.051474
H40   H     H_    0.722261 0.156573 0.468030 0.085708
H41   H     H_    0.372172 0.339803 0.525431 0.066070
H42   H     H_    0.819831 0.666009 0.473109 0.053999
H43   H     H_    0.128946 0.315377 0.450600 0.073078
H44   H     H_    0.277416 0.183330 0.436803 0.062946
H45   H     H_    0.086604 0.676916 0.548714 0.068258
H46   H     H_    0.221350 0.899350 0.572733 0.024903
H47   H     H_    0.021341 0.935790 0.596573 0.011240
H48   H     H_    0.061801 0.938138 0.532194 0.068559
H49   H     H_    0.679230 0.064047 0.691031 0.034640
H50   H     H_    0.814935 0.024144 0.643067 0.058115
H51   H     H_    0.601767 0.041452 0.627520 0.011768
H52   H     H_    0.776159 0.304513 0.309449 0.131713
H53   H     H_    0.927849 0.692372 0.344077 -0.050505
H54   H     H_    0.359018 0.970270 0.364098 0.037086
H55   H     H_    0.515995 0.958481 0.317599 0.034770
H56   H     H_    0.990724 0.813228 0.626044 0.033977
H57   H     H_    0.558893 0.997349 0.379933 0.072534
H58   H     H_    0.244585 0.299536 0.736935 0.098915
H59   H     H_    0.166221 0.376556 0.698404 0.035951
H60   H     H_    0.378681 0.343871 0.702044 0.138062
H61   H     H_    0.911588 0.701777 0.844619 0.028824
H62   H     H_    0.951911 0.801330 0.850750 0.076643
H63   H     H_    0.885383 0.760621 0.903850 -0.007129
H64   H     H_    0.989472 0.475589 0.756258 -0.018612
H65   H     H_    0.818969 0.543849 0.740718 0.050440
H66   H     H_    0.947569 0.568345 0.792279 0.006065
H67   H     H_    0.195775 0.781055 0.605646 0.034429
H68   H     H_    0.805852 0.276827 0.779307 0.095256
H69   H     H_    0.953181 0.322018 0.749175 0.017053
H70   H     H_    0.016288 0.241321 0.787061 0.013206
H71   H     H_    0.046188 0.133150 0.674303 0.086008
H72   H     H_    0.326861 0.319536 0.425312 0.000412
H73   H     H_    0.802670 0.385681 0.388777 0.010474
H74   H     H_    0.588925 0.421738 0.384279 0.080392
N1    N     N_R   0.951071 0.518982 0.204432 -0.421660
N2    N     N_R   0.290579 0.515052 0.800144 -0.430229
O1    O     O_2   0.910880 0.540430 0.617910 -0.433246
O2    O     O_2   0.212703 0.773093 0.464593 -0.452415
O3    O     O_3   0.104720 0.760796 0.372897 -0.614264
O4    O     O_3   0.142880 0.540370 0.557740 -0.501284
O5    O     O_3   0.562610 0.408580 0.475460 -0.490419
O6    O     O_2   0.365880 0.685750 0.523280 -0.462826
O7    O     O_3   0.559739 0.715138 0.602078 -0.642319
O8    O     O_2   0.415152 0.536855 0.322316 -0.496771
O9    O     O_3   0.435945 0.687301 0.331346 -0.632192
O10   O     O_2   0.048220 0.392132 0.200721 -0.597488
O11   O     O_2   0.371924 0.387295 0.802128 -0.635075
O12   O     O_3   0.643379 0.305931 0.397439 -0.636234
O13   O     O_2   0.854075 0.645349 0.200269 -0.623203
O14   O     O_2   0.235480 0.644921 0.806215 -0.525249
O15   O     O_3   0.675650 0.402220 0.588450 -0.484988
O16   O     O_2   0.841486 0.435864 0.670513 -0.502959
O17   O     O_3   0.047269 0.663977 0.623578 -0.643477
O18   O     O_3   0.669405 0.320728 0.673386 -0.614571
O19   O     O_2   0.823810 0.314230 0.476690 -0.449512
O20   O     O_3   0.086630 0.363340 0.564170 -0.480520
O21   O     O_2   0.021694 0.228789 0.515109 -0.485135
O22   O     O_3   0.034378 0.829899 0.552977 -0.668780
O23   O     O_3   0.050177 0.213046 0.607623 -0.610797
O24   O     O_3   0.729621 0.138693 0.638747 -0.626530
O25   O     O_3   0.543760 0.879910 0.372059 -0.665650
O26   O     O_3   0.241330 0.269023 0.660633 -0.742182
O27   O     O_3   0.126059 0.727271 0.883711 -0.602701
O28   O     O_3   0.038276 0.577020 0.723030 -0.612372
O29   O     O_3   0.902826 0.212659 0.718047 -0.628005
O30   O     O_2   0.278810 0.459550 0.382060 -0.463000
O31   O     O_3   0.046820 0.459570 0.442260 -0.495841
O32   O     O_3   0.514050 0.597710 0.411540 -0.477717
O33   O     O_3   0.132024 0.336069 0.376486 -0.625838
O34   O     O_3   0.627090 0.591350 0.524530 -0.473165
O35   O     O_3   0.103080 0.636600 0.435820 -0.498788
P1    P     P_3+3 0.078810 0.562990 0.610370 1.041967
P2    P     P_3+3 0.645380 0.325580 0.462150 0.984413
P3    P     P_3+3 0.123930 0.260229 0.559812 0.993324
P4    P     P_3+3 0.110900 0.436950 0.389630 0.990428
P5    P     P_3+3 0.074251 0.737736 0.433070 0.975188
P6    P     P_3+3 0.671489 0.413418 0.652941 0.946116
P7    P     P_3+3 0.550591 0.688473 0.538146 0.958929
P8    P     P_3+3 0.525280 0.596688 0.347215 0.933702

loop_
_geom_bond_atom_site_label_1
_geom_bond_atom_site_label_2
_ccdc_geom_bond_type
O8    P8    D    
O3    P5    S    
Ba2   O4    S    
C52   H45   S    
C9    C36   A    
Ba1   O4    S    
C19   C24   A    
C65   H49   S    
C67   O9    S    
C66   O25   S    
C14   H35   S    
C28   H72   S    
C69   H62   S    
C3    H30   S    
O16   P6    D    
C30   P6    S    
C24   C25   A    
C49   H38   S    
C33   N2    S    
O6    P7    D    
C29   H26   S    
C69   O27   S    
C17   C19   A    
C22   C24   A    
C32   C33   S    
C35   C38   A    
C67   H18   S    
C65   H50   S    
O2    P5    D    
C36   C37   A    
C40   H44   S    
C55   C57   A    
C21   H27   S    
C38   H29   S    
C52   C61   S    
C73   N1    Am   
C53   C60   A    
C44   C50   A    
Ba1   O19   S    
O32   P8    S    
C54   C55   A    
O20   P3    S    
Ba1   O1    S    
O1    P1    D    
Ba1   Ba2   S    
Ba2   O31   S    
O5    P2    S    
O35   P5    S    
C66   H57   S    
C22   C27   A    
C60   H42   S    
C17   C35   A    
C34   H9    S    
C71   O29   S    
C9    C13   A    
C25   C42   A    
C70   H64   S    
C65   O24   S    
C6    C7    D    
C11   C38   A    
C68   H58   S    
C21   C22   A    
C64   H47   S    
C64   O22   S    
C61   H56   S    
C72   H22   S    
C7    C8    S    
O15   P6    S    
C43   H33   S    
C37   C43   A    
C51   C53   A    
C54   P5    S    
C16   O29   S    
C57   C58   S    
C6    C14   D    
O17   P1    S    
C62   H73   S    
C1    H11   S    
C23   H6    S    
C45   H14   S    
C32   O28   S    
C15   C31   D    
C12   O18   S    
C1    H5    S    
C15   H36   S    
C61   O22   S    
C69   H63   S    
Ba1   P1    S    
C51   C57   A    
C70   H66   S    
C4    C16   S    
C44   C46   A    
O7    P7    S    
C63   H2    S    
C39   H31   S    
C49   C50   A    
C45   H53   S    
C17   C20   A    
O31   P4    S    
O23   P3    S    
C13   C39   A    
C67   H19   S    
C65   H51   S    
C6    P4    S    
C69   H61   S    
C3    C5    S    
C18   C37   A    
C4    O23   S    
Ba1   O20   S    
C16   H13   S    
C20   H28   S    
C52   H34   S    
C71   H70   S    
C58   C59   T    
Ba2   O30   S    
C12   H1    S    
Ba1   O5    S    
C41   C42   A    
Ba2   O35   S    
C72   O25   S    
C35   C36   A    
C27   N2    Am   
O30   P4    D    
C29   C30   S    
C9    C10   A    
C2    O13   D    
C48   C49   A    
C64   H46   S    
C67   C72   S    
C31   P1    S    
C41   H32   S    
C12   H4    S    
C10   C11   A    
C5    P8    S    
C66   H55   S    
C56   H15   S    
O12   P2    S    
C1    C12   S    
C26   O14   D    
C51   H37   S    
C1    O24   S    
C46   C47   A    
C53   P7    S    
O19   P2    D    
C4    H21   S    
C4    O26   S    
C23   H7    S    
C34   H10   S    
C54   C60   A    
C71   H68   S    
C42   O27   S    
C63   H52   S    
C72   H20   S    
C18   C41   A    
O9    P8    S    
C56   H16   S    
Ba1   P2    S    
C15   C30   S    
C5    C14   S    
Ba2   O5    S    
C63   H3    S    
C47   H40   S    
C64   H48   S    
C28   O33   S    
C27   O11   D    
Ba2   P4    S    
C52   O17   S    
C16   H71   S    
Ba1   O31   S    
C68   O26   S    
C46   P2    S    
C55   H39   S    
C45   O3    S    
Ba1   O34   S    
O21   P3    D    
C2    N1    Am   
O18   P6    S    
C44   H41   S    
C62   H74   S    
C73   O10   D    
C62   C63   S    
C2    C13   A    
C40   H23   S    
Ba2   O34   S    
C3    C8    D    
O4    P1    S    
C8    N1    S    
C45   C56   S    
C68   H60   S    
Ba1   O15   S    
C11   H25   S    
Ba2   O6    S    
C29   C33   D    
C23   O7    S    
C61   H67   S    
C31   C32   D    
O33   P4    S    
C50   P3    S    
C66   H54   S    
C23   C34   S    
C70   H65   S    
C18   C19   A    
C26   N2    Am   
C7    H24   S    
C47   C48   A    
C10   C73   A    
C28   H43   S    
C25   C26   A    
C68   H59   S    
C48   C59   S    
C39   C43   A    
C20   C21   A    
C28   C40   S    
O34   P7    S    
C40   H12   S    
C34   H8    S    
C70   O28   S    
C56   H17   S    
Ba2   O32   S    
C71   H69   S    
C62   O12   S    
