data_mof_unit_34324.cif
_audit_creation_date              2012-10-26T19:00:08-0400
_audit_creation_method            fapswitch 2.2
_symmetry_space_group_name_H-M    P1
_symmetry_Int_Tables_number       1
_space_group_crystal_system       triclinic
_cell_length_a                    10.89906
_cell_length_b                    10.771284
_cell_length_c                    9.671217
_cell_angle_alpha                 89.189661
_cell_angle_beta                  91.322814
_cell_angle_gamma                 92.010962
_cell_volume                      1134.26797459

loop_
_atom_site_label
_atom_site_type_symbol
_atom_type_description
_atom_site_fract_x
_atom_site_fract_y
_atom_site_fract_z
_atom_type_partial_charge
C1    C     C_R   0.499848 0.262886 0.500441 0.570685
C2    C     C_R   0.873342 0.649785 0.972894 -0.117273
C3    C     C_R   0.815291 0.547656 0.037243 -0.120152
C4    C     C_R   0.262370 0.499037 0.498275 0.562384
C5    C     C_R   0.793881 0.437492 0.965161 -0.077650
C6    C     C_R   0.836205 0.426575 0.831875 -0.056526
C7    C     C_R   0.892858 0.528967 0.765229 0.063981
C8    C     C_R   0.553955 0.064732 0.608140 0.054136
C9    C     C_R   0.495891 0.129265 0.501220 0.035070
C10   C     C_R   0.432940 0.063386 0.395720 -0.125223
C11   C     C_R   0.433965 0.934114 0.394884 -0.139207
C12   C     C_R   0.191509 0.591994 0.986895 -0.122782
C13   C     C_R   0.499557 0.870647 0.498614 0.013208
C14   C     C_R   0.555898 0.936773 0.607179 0.015266
C15   C     C_3   0.688056 0.938207 0.653105 -0.259603
C16   C     C_R   0.501746 0.737190 0.499261 0.545779
C17   C     C_3   0.684699 0.078482 0.655889 -0.256195
C18   C     C_R   0.487791 0.607374 0.070703 0.153896
C19   C     C_R   0.491872 0.392929 0.077671 0.013313
C20   C     C_R   0.484308 0.392028 0.931211 0.156786
C21   C     C_R   0.489450 0.607330 0.925332 0.135780
C22   C     C_3   0.563586 0.725401 0.919285 -0.272959
C23   C     C_R   0.930077 0.438803 0.390997 0.060912
C24   C     C_3   0.561453 0.726552 0.077053 -0.263754
C25   C     C_R   0.737270 0.493330 0.502405 0.554833
C26   C     C_R   0.154268 0.674722 0.085555 -0.110764
C27   C     C_R   0.106956 0.629690 0.209861 -0.112474
C28   C     C_R   0.100517 0.501302 0.239043 0.072680
C29   C     C_R   0.142669 0.418036 0.140931 0.160963
C30   C     C_R   0.184288 0.464213 0.013621 -0.089834
C31   C     C_R   0.871345 0.480689 0.508217 -0.003374
C32   C     C_R   0.943354 0.510975 0.627385 -0.024181
C33   C     C_R   0.069916 0.508898 0.621332 -0.119961
C34   C     C_R   0.127804 0.491849 0.496582 -0.011387
C35   C     C_R   0.056489 0.462058 0.376932 0.016885
C36   C     C_R   0.911265 0.641838 0.836259 0.092328
Cu1   Cu    Cu3+1 0.499990 0.499980 0.640670 0.985867
Cu2   Cu    Cu3+1 0.500010 0.500020 0.359330 0.969742
H1    H     H_    0.227873 0.627483 0.890504 0.144179
H2    H     H_    0.077023 0.695242 0.284975 0.124476
H3    H     H_    0.123348 0.525702 0.714922 0.151989
H4    H     H_    0.744874 0.359588 0.011910 0.153785
H5    H     H_    0.823057 0.338762 0.779290 0.122010
H6    H     H_    0.385317 0.884188 0.312772 0.135277
H7    H     H_    0.483787 0.306281 0.134555 0.167385
H8    H     H_    0.160552 0.773745 0.064988 0.155487
H9    H     H_    0.511007 0.801793 0.870872 0.155203
H10   H     H_    0.652610 0.717691 0.128541 0.141581
H11   H     H_    0.214320 0.401324 0.936390 0.158491
H12   H     H_    0.785886 0.554330 0.142612 0.161983
H13   H     H_    0.887631 0.735557 0.028881 0.140378
H14   H     H_    0.385613 0.111717 0.312857 0.167677
H15   H     H_    0.702175 0.896952 0.757596 0.157749
H16   H     H_    0.748967 0.903255 0.572669 0.171572
H17   H     H_    0.693574 0.116772 0.761941 0.161912
H18   H     H_    0.744459 0.125542 0.577992 0.163321
H19   H     H_    0.655174 0.712235 0.875982 0.158546
H20   H     H_    0.507153 0.803287 0.116688 0.140672
I1    I     I_    0.408352 0.216474 0.868016 -0.366571
I2    I     I_    0.159932 0.225920 0.182800 -0.339149
I3    I     I_    0.842307 0.290677 0.278837 -0.380396
I4    I     I_    0.995464 0.802014 0.743612 -0.447073
N1    N     N_R   0.500790 0.500930 0.147930 -0.249199
N2    N     N_R   0.500790 0.500890 0.852020 -0.230303
O1    O     O_R   0.500000 0.319640 0.618810 -0.468253
O2    O     O_R   0.500010 0.319680 0.381230 -0.509643
O3    O     O_R   0.319640 0.499990 0.618790 -0.500683
O4    O     O_R   0.319650 0.500030 0.381210 -0.485351
O5    O     O_R   0.499990 0.680320 0.618770 -0.500984
O6    O     O_R   0.500000 0.680360 0.381190 -0.513614
O7    O     O_R   0.680350 0.499970 0.618790 -0.502269
O8    O     O_R   0.680360 0.500010 0.381210 -0.491382

loop_
_geom_bond_atom_site_label_1
_geom_bond_atom_site_label_2
_ccdc_geom_bond_type
C25   C31   S    
C4    O3    A    
C1    O1    A    
C5    H4    S    
C19   H7    S    
C20   N2    A    
Cu1   Cu2   S    
C25   O7    A    
Cu1   O5    S    
C18   C21   A    
C9    C10   A    
C17   H17   S    
C23   C35   A    
C8    C17   S    
C29   I2    S    
C27   H2    S    
C10   H14   S    
C32   C33   A    
C12   H1    S    
Cu2   O6    S    
C2    C3    A    
C1    C9    S    
C11   H6    S    
C25   O8    A    
C21   C22   S    
C20   I1    S    
C11   C13   A    
C17   H18   S    
C26   C27   A    
C29   C30   A    
C22   H19   S    
C36   I4    S    
Cu1   O3    S    
C22   C24   S    
Cu1   O1    S    
C28   C29   A    
C33   C34   A    
C30   H11   S    
Cu2   O4    S    
C22   H9    S    
C6    C7    A    
Cu2   O8    S    
C6    H5    S    
Cu1   O7    S    
C5    C6    A    
C34   C35   A    
C4    C34   S    
C18   N1    A    
C10   C11   A    
C26   H8    S    
C2    C36   A    
C23   C31   A    
C24   H10   S    
C15   H16   S    
C15   H15   S    
C23   I3    S    
Cu1   N2    S    
C16   O6    A    
C33   H3    S    
C18   C24   S    
C24   H20   S    
Cu2   N1    S    
C7    C36   A    
C13   C16   S    
C12   C26   A    
C27   C28   A    
C15   C17   S    
Cu2   O2    S    
C14   C15   S    
C21   N2    A    
C8    C14   A    
C7    C32   S    
C2    H13   S    
C12   C30   A    
C13   C14   A    
C4    O4    A    
C3    H12   S    
C31   C32   A    
C16   O5    A    
C19   C20   A    
C28   C35   S    
C19   N1    A    
C8    C9    A    
C3    C5    A    
C1    O2    A    
