data_mof_unit_48132.cif
_audit_creation_date              2012-12-10T17:33:48-0500
_audit_creation_method            fapswitch 2.2
_symmetry_space_group_name_H-M    P1
_symmetry_Int_Tables_number       1
_space_group_crystal_system       triclinic
_cell_length_a                    11.687276
_cell_length_b                    12.34304
_cell_length_c                    13.019978
_cell_angle_alpha                 116.048766
_cell_angle_beta                  77.766785
_cell_angle_gamma                 100.94927
_cell_volume                      1639.04078215

loop_
_atom_site_label
_atom_site_type_symbol
_atom_type_description
_atom_site_fract_x
_atom_site_fract_y
_atom_site_fract_z
_atom_type_partial_charge
C1    C     C_R   0.507873 0.855253 0.286038 0.804005
C2    C     C_R   0.466572 0.228897 0.839509 -0.221470
C3    C     C_R   0.562242 0.817523 0.079044 -0.346485
C4    C     C_R   0.578632 0.738820 0.960381 0.499694
C5    C     C_R   0.544366 0.614717 0.928170 -0.212884
C6    C     C_R   0.487505 0.567106 0.009626 0.044605
C7    C     C_R   0.460343 0.649619 0.125905 0.077073
C8    C     C_R   0.461359 0.439826 0.980927 0.052893
C9    C     C_R   0.420059 0.398600 0.070023 -0.012098
C10   C     C_R   0.376937 0.482886 0.179117 -0.190736
C11   C     C_R   0.388884 0.604739 0.203255 -0.176412
C12   C     C_R   0.715782 0.999366 0.499673 0.822646
C13   C     C_R   0.477142 0.353033 0.866938 -0.316976
C14   C     C_R   0.441935 0.189768 0.929782 0.361481
C15   C     C_R   0.506313 0.773677 0.162072 -0.152244
C16   C     C_R   0.678158 0.338254 0.315765 0.099133
C17   C     C_R   0.333828 0.755489 0.635789 -0.005476
C18   C     C_R   0.292376 0.657789 0.663730 -0.349569
C19   C     C_R   0.351077 0.553798 0.612552 0.455637
C20   C     C_R   0.456647 0.548601 0.532230 -0.099132
C21   C     C_R   0.493967 0.652454 0.505931 0.231078
C22   C     C_R   0.523820 0.444929 0.472824 -0.061416
C23   C     C_R   0.483602 0.145164 0.714928 0.847998
C24   C     C_R   0.616402 0.442370 0.380651 0.156311
C25   C     C_R   0.647257 0.544555 0.356556 -0.270475
C26   C     C_R   0.590174 0.647254 0.419631 -0.152091
C27   C     C_R   0.505052 0.343666 0.500988 0.010979
C28   C     C_R   0.649750 0.240999 0.347166 0.029978
C29   C     C_R   0.284312 0.999823 0.499260 0.808418
C30   C     C_1   0.837441 0.997935 0.498760 -0.191164
C31   C     C_1   0.940088 0.997350 0.497804 -0.015399
C32   C     C_1   0.060141 0.997669 0.497123 -0.017094
C33   C     C_1   0.162803 0.998823 0.497568 -0.199765
C34   C     C_R   0.419810 0.274397 0.046159 0.329609
Cu1   Cu    Cu3+1 0.526510 0.098270 0.475420 0.924297
Cu2   Cu    Cu3+1 0.473490 0.901730 0.524580 0.923762
H1    H     H_    0.717932 0.548136 0.289197 0.158378
H2    H     H_    0.444862 0.339804 0.573909 0.207195
H3    H     H_    0.284000 0.832284 0.672326 0.150604
H4    H     H_    0.212332 0.661697 0.724473 0.164735
H5    H     H_    0.623062 0.720245 0.395016 0.204779
H6    H     H_    0.327421 0.457421 0.245811 0.124542
H7    H     H_    0.494985 0.380881 0.797139 0.192383
H8    H     H_    0.595533 0.912483 0.108685 0.147458
H9    H     H_    0.566975 0.557640 0.837878 0.156472
H10   H     H_    0.342249 0.662811 0.284383 0.171228
H11   H     H_    0.693962 0.159821 0.299006 0.123466
N1    N     N_R   0.566700 0.246290 0.438210 -0.211596
N2    N     N_R   0.434010 0.754320 0.561170 -0.199254
O1    O     O_R   0.533340 0.972510 0.318140 -0.585744
O2    O     O_R   0.488570 0.806530 0.359650 -0.603898
O3    O     O_R   0.685190 0.083000 0.479260 -0.570607
O4    O     O_R   0.640410 0.917020 0.520770 -0.593177
O5    O     O_R   0.511430 0.193470 0.640350 -0.591000
O6    O     O_R   0.466660 0.027490 0.681860 -0.550091
O7    O     O_R   0.359590 0.082980 0.479230 -0.577979
O8    O     O_R   0.314810 0.917000 0.520740 -0.591650
O9    O     O_3   0.452026 0.071014 0.905940 -0.557109
C35   C     C_3   0.338302 0.009144 0.915763 0.098301
H12   H     H_    0.295263 0.991245 0.840939 0.124027
H13   H     H_    0.279545 0.061363 0.994819 0.128786
C36   C     C_3   0.348766 0.889619 0.918952 -0.771478
H14   H     H_    0.382828 0.906516 0.998496 0.240537
H15   H     H_    0.261086 0.835699 0.917675 0.191020
H16   H     H_    0.411092 0.837045 0.843802 0.278991
C37   C     C_3   0.773926 0.326530 0.213496 -0.469814
C38   C     C_3   0.721932 0.299520 0.105429 -0.749742
H17   H     H_    0.668106 0.371522 0.120407 0.266647
H18   H     H_    0.794262 0.294297 0.033279 0.221118
H19   H     H_    0.666126 0.210899 0.079599 0.276189
H20   H     H_    0.838320 0.409110 0.234347 0.199437
H21   H     H_    0.826076 0.251086 0.192840 0.187226
O10   O     O_3   0.302977 0.460542 0.644940 -0.601652
C39   C     C_3   0.209412 0.392869 0.582052 0.030427
H22   H     H_    0.245266 0.332983 0.492499 0.144066
H23   H     H_    0.149757 0.451327 0.578391 0.139853
C40   C     C_3   0.135867 0.314630 0.640630 -0.758163
H24   H     H_    0.097058 0.373120 0.729468 0.243370
H25   H     H_    0.063460 0.258717 0.590753 0.206317
H26   H     H_    0.191833 0.254393 0.645765 0.248838
O11   O     O_3   0.432830 0.238826 0.130753 -0.559215
C41   C     C_3   0.328486 0.238164 0.209074 0.047107
H27   H     H_    0.247139 0.239197 0.177740 0.101961
H28   H     H_    0.338080 0.317445 0.292656 0.150605
C42   C     C_3   0.314956 0.128012 0.236573 -0.763590
H29   H     H_    0.399198 0.118856 0.257095 0.277038
H30   H     H_    0.245784 0.138622 0.312370 0.196986
H31   H     H_    0.287754 0.044214 0.163217 0.225544
O12   O     O_3   0.631296 0.773546 0.870773 -0.589022
C43   C     C_3   0.667287 0.899045 0.906401 0.036260
H32   H     H_    0.741073 0.926995 0.957756 0.135740
H33   H     H_    0.592904 0.953609 0.957142 0.196336
C44   C     C_3   0.710147 0.925418 0.800009 -0.690602
H34   H     H_    0.638039 0.898384 0.747038 0.275624
H35   H     H_    0.738188 0.023980 0.826789 0.194992
H36   H     H_    0.786031 0.874210 0.746951 0.232089

loop_
_geom_bond_atom_site_label_1
_geom_bond_atom_site_label_2
_ccdc_geom_bond_type
C27   N1    A    
C16   C28   A    
C21   C26   A    
C28   H11   S    
C44   H34   S    
C10   H6    S    
O10   C39   S    
C19   C20   A    
C21   N2    A    
O11   C41   S    
C40   H24   S    
C7    C11   A    
C8    C13   A    
C39   H23   S    
C23   O5    A    
C30   C31   T    
C42   H31   S    
C27   H2    S    
C29   C33   S    
C18   C19   A    
C17   H3    S    
C2    C13   A    
C18   H4    S    
C36   H15   S    
Cu2   O4    S    
C25   H1    S    
C37   H21   S    
C31   C32   S    
C8    C9    A    
C39   C40   S    
C1    C15   S    
C34   O11   S    
C9    C10   A    
C12   O4    A    
C7    C15   A    
C37   C38   S    
C35   H12   S    
C16   C24   A    
Cu1   O5    S    
Cu1   N1    S    
C12   O3    A    
C40   H25   S    
C14   O9    S    
C3    H8    S    
C35   H13   S    
C39   H22   S    
C42   H30   S    
C38   H17   S    
C19   O10   S    
C24   C25   A    
Cu2   O8    S    
C17   N2    A    
C6    C8    A    
O9    C35   S    
C42   H29   S    
C5    H9    S    
C38   H18   S    
Cu1   Cu2   S    
C36   H14   S    
C43   H33   S    
C37   H20   S    
C2    C23   S    
Cu1   O1    S    
C17   C18   A    
C1    O2    A    
Cu2   O2    S    
C20   C22   A    
C44   H36   S    
C41   H28   S    
C22   C27   A    
C9    C34   A    
C22   C24   A    
C16   C37   S    
C3    C4    A    
C13   H7    S    
C3    C15   A    
C43   C44   S    
C4    O12   S    
C1    O1    A    
C40   H26   S    
C28   N1    A    
C35   C36   S    
C36   H16   S    
C12   C30   S    
Cu1   O7    S    
C29   O8    A    
C4    C5    A    
C14   C34   A    
C23   O6    A    
C6    C7    A    
C29   O7    A    
C41   C42   S    
C38   H19   S    
C32   C33   T    
C25   C26   A    
Cu2   O6    S    
C43   H32   S    
C5    C6    A    
C2    C14   A    
C10   C11   A    
C20   C21   A    
C44   H35   S    
C41   H27   S    
Cu1   O3    S    
C11   H10   S    
O12   C43   S    
Cu2   N2    S    
C26   H5    S    
