data_mof_unit_40607.cif
_audit_creation_date              2012-12-11T14:17:30-0500
_audit_creation_method            fapswitch 2.2
_symmetry_space_group_name_H-M    P1
_symmetry_Int_Tables_number       1
_space_group_crystal_system       triclinic
_cell_length_a                    6.949713
_cell_length_b                    13.723653
_cell_length_c                    20.443598
_cell_angle_alpha                 102.259728
_cell_angle_beta                  91.611503
_cell_angle_gamma                 90.349906
_cell_volume                      1904.45269827

loop_
_atom_site_label
_atom_site_type_symbol
_atom_type_description
_atom_site_fract_x
_atom_site_fract_y
_atom_site_fract_z
_atom_type_partial_charge
O1    O     O_R   0.506860 0.599390 0.449240 -0.535897
O2    O     O_R   0.180220 0.594600 0.586780 -0.547513
O3    O     O_R   0.004500 0.400610 0.550760 -0.549608
C1    C     C_R   0.350975 0.612313 0.614406 0.789481
O4    O     O_R   0.177490 0.611290 0.451970 -0.536795
O5    O     O_R   0.001750 0.417420 0.414990 -0.526100
C2    C     C_R   0.344928 0.637854 0.435644 0.812578
O6    O     O_R   0.509610 0.582580 0.585010 -0.544858
O7    O     O_3   0.337420 0.436370 0.488020 -0.365332
V1    V     V_3+5 0.064680 0.511800 0.502220 1.512644
O8    O     O_R   0.671710 0.405400 0.413220 -0.514421
C3    C     C_R   0.836587 0.386736 0.385535 0.773716
O9    O     O_R   0.674440 0.388710 0.548030 -0.546408
C4    C     C_R   0.844319 0.362992 0.565250 0.677145
V2    V     V_3+5 0.564010 0.488200 0.497780 1.542993
O10   O     O_3   0.841140 0.563630 0.511980 -0.383033
C5    C     C_R   0.914292 0.115456 0.611120 -0.108257
H1    H     H_    0.918929 0.168794 0.520002 0.122338
H2    H     H_    0.949981 0.041494 0.584558 0.168090
C6    C     C_R   0.856803 0.285902 0.604595 -0.035422
C7    C     C_R   0.823501 0.310949 0.926652 -0.150408
C8    C     C_R   0.804838 0.385759 0.890781 -0.091506
C9    C     C_R   0.815509 0.363642 0.821278 -0.136468
C10   C     C_R   0.845444 0.264733 0.785346 0.074253
C11   C     C_R   0.867157 0.188621 0.822636 0.035195
C12   C     C_R   0.856088 0.239379 0.713955 0.073735
C13   C     C_R   0.890274 0.138515 0.681119 0.045504
C14   C     C_R   0.905783 0.063678 0.718976 -0.026446
C15   C     C_R   0.897209 0.089846 0.788733 -0.185214
C16   C     C_R   0.835602 0.311414 0.673842 -0.199262
C17   C     C_R   0.898428 0.188431 0.573534 -0.146807
C18   C     C_R   0.855372 0.212731 0.893527 -0.069582
H3    H     H_    0.805578 0.388483 0.694583 0.096212
H4    H     H_    0.812624 0.329690 0.980609 0.158556
H5    H     H_    0.799960 0.426137 0.797552 0.130078
H6    H     H_    0.781134 0.461758 0.917060 0.149851
H7    H     H_    0.910432 0.031092 0.816535 0.155485
C19   C     C_2   0.955193 0.328076 0.268689 0.232185
C20   C     C_2   0.826212 0.323036 0.316866 0.005446
C21   C     C_2   0.927861 0.272866 0.197609 0.282136
C22   C     C_2   0.880721 0.175157 0.181940 -0.247029
H8    H     H_    0.865780 0.134296 0.221495 0.169414
C23   C     C_2   0.231006 0.752591 0.792881 0.218474
C24   C     C_2   0.351729 0.831192 0.815952 0.103605
C25   C     C_2   0.214912 0.700422 0.721311 -0.040061
C26   C     C_2   0.368749 0.670894 0.683857 -0.276490
H9    H     H_    0.071298 0.678465 0.700968 0.157141
H10   H     H_    0.512747 0.684879 0.706028 0.169644
C27   C     C_R   0.308618 0.890673 0.392635 -0.176279
H11   H     H_    0.311947 0.016220 0.313185 0.162313
H12   H     H_    0.294962 0.968649 0.416666 0.160896
C28   C     C_R   0.348130 0.718423 0.399239 -0.119833
C29   C     C_R   0.366006 0.690861 0.076749 -0.152695
C30   C     C_R   0.352634 0.615548 0.112144 -0.070696
C31   C     C_R   0.339109 0.638454 0.181415 -0.109476
C32   C     C_R   0.341027 0.738563 0.217784 0.064265
C33   C     C_R   0.351272 0.816797 0.181429 -0.002163
C34   C     C_R   0.335308 0.763169 0.289338 0.083723
C35   C     C_R   0.315443 0.863859 0.322617 0.094926
C36   C     C_R   0.315919 0.938819 0.286567 -0.200012
C37   C     C_R   0.348471 0.917259 0.218278 -0.054563
C38   C     C_R   0.354173 0.691555 0.329323 -0.203455
C39   C     C_R   0.325974 0.819179 0.431991 -0.055177
C40   C     C_R   0.363653 0.790985 0.109885 -0.080126
H13   H     H_    0.377004 0.614008 0.307756 0.151451
H14   H     H_    0.374864 0.670859 0.022696 0.130098
H15   H     H_    0.323592 0.575786 0.204900 0.170493
H16   H     H_    0.351125 0.538366 0.085541 0.158638
O11   O     O_R   0.203230 0.917310 0.915020 -0.528740
O12   O     O_R   0.535500 0.888690 0.048040 -0.531495
O13   O     O_R   0.711080 0.082610 0.085000 -0.525465
C41   C     C_R   0.368453 0.865099 0.067304 0.703546
O14   O     O_R   0.532630 0.905370 0.913230 -0.530455
O15   O     O_R   0.708190 0.099410 0.949230 -0.542116
C42   C     C_R   0.361852 0.884936 0.886549 0.748319
O16   O     O_R   0.206120 0.900510 0.050790 -0.539287
O17   O     O_3   0.375360 0.063570 0.011990 -0.379462
V3    V     V_3+5 0.648170 0.988200 0.997780 1.569739
O18   O     O_R   0.038240 0.111390 0.951940 -0.541129
C43   C     C_R   0.868316 0.136400 0.934071 0.695781
O19   O     O_R   0.041120 0.094710 0.086750 -0.530824
C44   C     C_R   0.875784 0.115917 0.112991 0.841920
V4    V     V_3+5 0.148810 0.011930 0.002180 1.555821
O20   O     O_3   0.871750 0.936430 0.988010 -0.363194
Br1   Br    Br    0.588244 0.247313 0.295801 -0.522976
Br2   Br    Br    0.973838 0.343999 0.127616 -0.544985
Br3   Br    Br    0.061338 0.703614 0.851713 -0.584599
Br4   Br    Br    0.504873 0.890633 0.757403 -0.520784
C45   C     C_2   0.326316 0.853199 0.506480 0.768732
O21   O     O_2   0.369601 0.796443 0.543050 -0.555927
O22   O     O_R   0.281193 0.951971 0.535126 -0.668793
H17   H     H_    0.289353 0.966572 0.585893 0.319538
C46   C     C_2   0.926224 0.956356 0.687579 0.827295
O23   O     O_2   0.038115 0.905266 0.712483 -0.539133
O24   O     O_R   0.811241 0.912407 0.631713 -0.641693
H18   H     H_    0.837041 0.838637 0.615853 0.314267
C47   C     C_2   0.421613 0.001384 0.192673 0.771058
O25   O     O_2   0.591573 0.003123 0.180001 -0.561816
O26   O     O_R   0.303661 0.081981 0.188875 -0.645155
H19   H     H_    0.372522 0.135349 0.170572 0.336174
Br5   Br    Br    0.174208 0.417514 0.286342 -0.499479

loop_
_geom_bond_atom_site_label_1
_geom_bond_atom_site_label_2
_ccdc_geom_bond_type
C34   C38   A    
O18   V4    S    
C31   C32   A    
C46   O23   D    
C27   C39   A    
O12   V3    S    
C22   H8    S    
O24   H18   S    
C1    O6    A    
C47   O25   D    
C6    C16   A    
C29   C30   A    
C12   C13   A    
C14   C15   A    
C10   C12   A    
C2    C28   S    
C19   Br5   S    
O5    C3    A    
C19   C20   D    
C29   C40   A    
C30   H16   S    
O17   V4    S    
V2    O10   S    
C32   C33   A    
C21   Br2   S    
O19   V4    S    
O8    V2    S    
V4    O20   S    
C27   H12   S    
C9    C10   A    
O1    V2    S    
C45   O22   S    
O7    V1    S    
C38   H13   S    
C41   O16   A    
O13   C44   A    
C11   C18   A    
C35   C36   A    
C46   O24   S    
O15   C43   A    
O9    C4    A    
O14   C42   A    
O16   V4    S    
C47   O26   S    
O19   C44   A    
C25   H9    S    
C11   C15   A    
C7    C18   A    
C26   H10   S    
O12   C41   A    
C5    C13   A    
C4    C6    S    
C10   C11   A    
O22   H17   S    
O4    C2    A    
C1    C26   S    
C7    H4    S    
C34   C35   A    
O17   V3    S    
C36   C37   A    
C24   C42   S    
O2    C1    A    
C23   C24   D    
O11   V4    S    
V3    O20   S    
C18   C43   S    
O26   H19   S    
O14   V3    S    
C39   C45   S    
C29   H14   S    
C23   C25   S    
O3    C4    A    
C21   C22   D    
C12   C16   A    
O6    V2    S    
C9    H5    S    
O9    V2    S    
C5    C17   A    
C20   Br1   S    
O2    V1    S    
C33   C40   A    
C30   C31   A    
C16   H3    S    
O1    C2    A    
C37   C47   S    
C28   C39   A    
O5    V1    S    
C31   H15   S    
O8    C3    A    
C33   C37   A    
C8    H6    S    
C27   C35   A    
C23   Br3   S    
C3    C20   S    
O7    V2    S    
H11   C36   S    
O4    V1    S    
O3    V1    S    
C28   C38   A    
C19   C21   S    
C22   C44   S    
C5    H2    S    
C32   C34   A    
O11   C42   A    
C24   Br4   S    
C40   C41   S    
O18   C43   A    
C25   C26   D    
O15   V3    S    
C15   H7    S    
C13   C14   A    
C8    C9    A    
C14   C46   S    
V1    O10   S    
H1    C17   S    
C45   O21   D    
C7    C8    A    
O13   V3    S    
C6    C17   A    
