data_mof_unit_33522.cif
_audit_creation_date              2012-12-11T17:08:25-0500
_audit_creation_method            fapswitch 2.2
_symmetry_space_group_name_H-M    P1
_symmetry_Int_Tables_number       1
_space_group_crystal_system       triclinic
_cell_length_a                    6.973169
_cell_length_b                    14.500207
_cell_length_c                    16.097168
_cell_angle_alpha                 90.05541
_cell_angle_beta                  89.808139
_cell_angle_gamma                 89.788007
_cell_volume                      1627.60214522

loop_
_atom_site_label
_atom_site_type_symbol
_atom_type_description
_atom_site_fract_x
_atom_site_fract_y
_atom_site_fract_z
_atom_type_partial_charge
O1    O     O_R   0.505700 0.583890 0.413310 -0.546285
O2    O     O_R   0.175960 0.594920 0.586080 -0.548825
O3    O     O_R   0.005660 0.416110 0.586690 -0.541885
C1    C     C_R   0.344169 0.617168 0.614648 0.710571
O4    O     O_R   0.175980 0.594920 0.413930 -0.501390
O5    O     O_R   0.005680 0.416110 0.413310 -0.539794
C2    C     C_R   0.344861 0.617500 0.385684 0.740154
O6    O     O_R   0.505680 0.583890 0.586690 -0.536776
O7    O     O_3   0.339200 0.441330 0.500000 -0.375227
V1    V     V_3+5 0.064350 0.510880 0.500000 1.473487
O8    O     O_R   0.675960 0.405080 0.413920 -0.544017
C3    C     C_R   0.845308 0.383059 0.385427 0.746782
O9    O     O_R   0.675940 0.405080 0.586070 -0.517906
C4    C     C_R   0.844461 0.383919 0.615527 0.712431
V2    V     V_3+5 0.564340 0.489120 0.500000 1.455766
O10   O     O_3   0.839360 0.558670 0.500000 -0.368093
C5    C     C_R   0.026519 0.275564 0.707640 0.011573
C6    C     C_R   0.854267 0.320410 0.687903 -0.181132
C7    C     C_R   0.697629 0.307974 0.743451 0.432229
C8    C     C_R   0.710064 0.242105 0.808256 -0.274818
H1    H     H_    0.585284 0.230325 0.847027 0.144720
C9    C     C_R   0.879524 0.190684 0.821494 -0.138113
C10   C     C_R   0.039388 0.213074 0.772770 0.049177
C11   C     C_3   0.175542 0.152129 0.726054 0.344078
C12   C     C_3   0.158184 0.219858 0.653904 -0.427171
H2    H     H_    0.319219 0.150063 0.756298 0.064527
H3    H     H_    0.084376 0.191237 0.598450 0.169616
H4    H     H_    0.294153 0.256399 0.640064 0.188517
C13   C     C_R   0.743446 0.252387 0.186101 0.041901
C14   C     C_R   0.883101 0.182563 0.185549 -0.231026
C15   C     C_R   0.023332 0.184325 0.250224 0.352570
C16   C     C_R   0.013068 0.252620 0.312679 -0.178121
H5    H     H_    0.118789 0.251784 0.361854 0.134716
C17   C     C_R   0.859310 0.315676 0.316676 -0.174563
C18   C     C_R   0.729902 0.315896 0.250621 0.055366
C19   C     C_3   0.516073 0.315128 0.250156 -0.339001
C20   C     C_3   0.530246 0.246181 0.178938 0.202469
H6    H     H_    0.454853 0.383125 0.232150 0.193829
H7    H     H_    0.455035 0.284898 0.307849 0.138526
H8    H     H_    0.472129 0.176607 0.192995 0.133381
C21   C     C_R   0.511272 0.743899 0.692234 0.033521
C22   C     C_R   0.351449 0.686737 0.682207 -0.148245
C23   C     C_R   0.206891 0.690572 0.743449 -0.214064
H9    H     H_    0.088460 0.642664 0.740515 0.131134
C24   C     C_R   0.224566 0.747809 0.814005 0.350726
C25   C     C_R   0.380035 0.809990 0.820345 -0.143601
C26   C     C_R   0.526620 0.803027 0.761037 -0.016179
C27   C     C_3   0.725189 0.768915 0.778090 0.270987
C28   C     C_3   0.713418 0.711848 0.699236 -0.464149
H10   H     H_    0.835105 0.824219 0.777181 0.126618
H11   H     H_    0.726426 0.636108 0.708426 0.163914
H12   H     H_    0.804084 0.739371 0.648080 0.148032
C29   C     C_R   0.510319 0.687072 0.261920 -0.104685
C30   C     C_R   0.353928 0.685915 0.317176 -0.193391
C31   C     C_R   0.213745 0.756208 0.308987 0.513168
C32   C     C_R   0.223830 0.819557 0.242421 -0.244768
H13   H     H_    0.114672 0.871629 0.236492 0.139340
C33   C     C_R   0.381768 0.821035 0.188297 -0.122720
C34   C     C_R   0.530356 0.758840 0.204152 -0.041333
C35   C     C_3   0.730295 0.779915 0.233256 0.284274
C36   C     C_3   0.716122 0.693668 0.286349 0.238543
H14   H     H_    0.843241 0.776439 0.184272 0.069843
H15   H     H_    0.736089 0.705209 0.354046 0.186651
O11   O     O_R   0.229000 0.916070 0.913330 -0.530691
O12   O     O_R   0.558770 0.905070 0.086080 -0.545713
O13   O     O_R   0.729000 0.083900 0.086690 -0.558009
C37   C     C_R   0.390573 0.885852 0.116962 0.696103
O14   O     O_R   0.558720 0.905070 0.913930 -0.517766
O15   O     O_R   0.728960 0.083900 0.913310 -0.547161
C38   C     C_R   0.390187 0.880890 0.886972 0.708547
O16   O     O_R   0.229050 0.916070 0.086710 -0.550034
O17   O     O_3   0.395460 0.058650 0.000020 -0.383888
V3    V     V_3+5 0.670340 0.989120 0.000000 1.429190
O18   O     O_R   0.058670 0.094960 0.913900 -0.537763
C39   C     C_R   0.889705 0.117825 0.885950 0.765241
O19   O     O_R   0.058720 0.094960 0.086050 -0.532441
C40   C     C_R   0.890169 0.115376 0.115973 0.662164
V4    V     V_3+5 0.170330 0.010930 0.999970 1.430376
O20   O     O_3   0.895340 0.941350 0.999980 -0.361762
O21   O     O_3   0.526954 0.354631 0.731333 -0.559342
C41   C     C_3   0.523007 0.431999 0.784366 -0.212515
H16   H     H_    0.389550 0.471610 0.772280 0.156605
H17   H     H_    0.646119 0.478785 0.771998 0.110616
H18   H     H_    0.520993 0.410821 0.850796 0.144066
O22   O     O_3   0.464577 0.283959 0.104119 -0.624426
H19   H     H_    0.482256 0.235177 0.061519 0.302593
O23   O     O_3   0.098490 0.734376 0.878831 -0.636473
H20   H     H_    0.160650 0.752218 0.931639 0.295649
O24   O     O_3   0.724980 0.715779 0.851405 -0.606388
H21   H     H_    0.801135 0.658946 0.841424 0.320781
O25   O     O_3   0.070272 0.765347 0.367725 -0.542579
C42   C     C_3   0.123469 0.834450 0.424756 -0.207533
H22   H     H_    0.131656 0.903171 0.394247 0.149484
H23   H     H_    0.261884 0.817439 0.455620 0.100170
H24   H     H_    0.011892 0.838819 0.473907 0.156142
O26   O     O_3   0.737848 0.856944 0.287673 -0.549246
C43   C     C_3   0.758887 0.940748 0.244591 -0.194595
H25   H     H_    0.837415 0.933977 0.184666 0.122597
H26   H     H_    0.841544 0.988561 0.284405 0.136579
H27   H     H_    0.616375 0.973045 0.234908 0.144061
O27   O     O_3   0.827194 0.619186 0.256628 -0.639834
H28   H     H_    0.799164 0.609966 0.196720 0.286745
O28   O     O_3   0.092090 0.065571 0.708587 -0.545687
C44   C     C_3   0.233734 0.005836 0.676276 -0.246681
H29   H     H_    0.348155 0.992563 0.722794 0.122604
H30   H     H_    0.296856 0.033745 0.617945 0.138843
H31   H     H_    0.166181 0.938685 0.661347 0.153517
O29   O     O_3   0.164299 0.117972 0.258918 -0.667678
H32   H     H_    0.127988 0.061936 0.227858 0.269674

loop_
_geom_bond_atom_site_label_1
_geom_bond_atom_site_label_2
_ccdc_geom_bond_type
O23   H20   S    
O27   H28   S    
C21   C22   A    
C4    C6    S    
O2    C1    A    
C7    C8    A    
C1    O6    A    
C43   H27   S    
C44   H30   S    
C43   H25   S    
C29   C34   A    
O22   H19   S    
O29   H32   S    
C12   H4    S    
C5    C10   A    
C20   O22   S    
C19   C20   S    
C24   O23   S    
O19   V4    S    
C17   C18   A    
C20   H8    S    
O5    C3    A    
C14   C15   A    
V2    O10   S    
O12   V3    S    
C32   H13   S    
C35   H14   S    
C6    C7    A    
C15   O29   S    
C36   H15   S    
O17   V4    S    
C43   H26   S    
C30   C31   A    
C14   C40   S    
O8    V2    S    
C15   C16   A    
O12   C37   A    
C31   O25   S    
C10   C11   S    
O15   V3    S    
O1    V2    S    
O11   C38   A    
O7    V1    S    
C27   H10   S    
C34   C35   S    
O9    C4    A    
C29   C36   S    
C9    C39   S    
C21   C28   S    
C44   H29   S    
C41   H17   S    
C41   H16   S    
C21   C26   A    
O18   C39   A    
C11   C12   S    
O25   C42   S    
O4    C2    A    
V4    O20   S    
O17   V3    S    
C28   H11   S    
O14   V3    S    
C29   C30   A    
O13   V3    S    
C42   H24   S    
C35   C36   S    
C18   C19   S    
C16   C17   A    
C36   O27   S    
C23   H9    S    
C13   C14   A    
C26   C27   S    
C28   H12   S    
O26   C43   S    
C31   C32   A    
C42   H23   S    
C5    C6    A    
V3    O20   S    
O19   C40   A    
C23   C24   A    
O3    C4    A    
C35   O26   S    
C27   C28   S    
C8    C9    A    
O6    V2    S    
C27   O24   S    
O9    V2    S    
C22   C23   A    
C3    C17   S    
O2    V1    S    
C41   H18   S    
O13   C40   A    
C25   C26   A    
O1    C2    A    
O11   V4    S    
C19   H7    S    
C11   H2    S    
O21   C41   S    
O5    V1    S    
O8    C3    A    
C12   H3    S    
C13   C18   A    
C11   O28   S    
C5    C12   S    
C16   H5    S    
C19   H6    S    
C33   C34   A    
O4    V1    S    
O3    V1    S    
V1    O10   S    
C1    C22   S    
C42   H22   S    
C32   C33   A    
O15   C39   A    
C37   O16   A    
C44   H31   S    
O7    V2    S    
C7    O21   S    
C25   C38   S    
C24   C25   A    
C33   C37   S    
C8    H1    S    
O14   C38   A    
O18   V4    S    
C13   C20   S    
O28   C44   S    
C9    C10   A    
C2    C30   S    
O24   H21   S    
O16   V4    S    
