data_mof_unit_31204.cif
_audit_creation_date              2012-12-11T14:46:05-0500
_audit_creation_method            fapswitch 2.2
_symmetry_space_group_name_H-M    P1
_symmetry_Int_Tables_number       1
_space_group_crystal_system       triclinic
_cell_length_a                    10.920974
_cell_length_b                    10.928917
_cell_length_c                    18.827009
_cell_angle_alpha                 89.909773
_cell_angle_beta                  90.118465
_cell_angle_gamma                 119.968961
_cell_volume                      1946.63800775

loop_
_atom_site_label
_atom_site_type_symbol
_atom_type_description
_atom_site_fract_x
_atom_site_fract_y
_atom_site_fract_z
_atom_type_partial_charge
C1    C     C_R   0.865991 0.636900 0.604174 0.566079
C2    C     C_R   0.421441 0.624391 0.777697 -0.117293
C3    C     C_R   0.400303 0.615691 0.705409 -0.126421
C4    C     C_R   0.322122 0.671425 0.675467 0.026356
C5    C     C_R   0.836792 0.157371 0.819370 -0.030481
C6    C     C_R   0.085213 0.218488 0.821191 -0.101570
C7    C     C_R   0.205079 0.236336 0.786294 -0.171684
C8    C     C_R   0.197793 0.200784 0.714913 -0.105345
C9    C     C_R   0.073164 0.156359 0.676365 0.244665
C10   C     C_R   0.955644 0.156754 0.708698 0.018602
C11   C     C_R   0.958204 0.174874 0.783771 -0.028731
C12   C     C_R   0.270247 0.632601 0.603794 0.544906
C13   C     C_R   0.712554 0.109293 0.705700 0.001563
C14   C     C_R   0.721553 0.145251 0.777822 0.023366
C15   C     C_R   0.582515 0.058720 0.669540 -0.059606
C16   C     C_R   0.472411 0.069083 0.700283 -0.115168
C17   C     C_R   0.489795 0.127584 0.767490 -0.141795
C18   C     C_R   0.613815 0.168056 0.805459 -0.069211
C19   C     C_R   0.837052 0.141161 0.669175 -0.008294
C20   C     C_R   0.720584 0.537821 0.713232 -0.140692
C21   C     C_R   0.711631 0.545142 0.786822 -0.156163
C22   C     C_R   0.812521 0.665954 0.822732 0.030762
C23   C     C_R   0.859927 0.219787 0.601041 0.571753
C24   C     C_R   0.920074 0.779014 0.784602 -0.136077
C25   C     C_R   0.925636 0.773814 0.712514 -0.132736
C26   C     C_R   0.829225 0.652498 0.676083 0.033123
C27   C     C_R   0.245174 0.541810 0.276215 -0.121095
C28   C     C_R   0.260902 0.556952 0.203739 -0.139619
C29   C     C_R   0.338325 0.691355 0.174437 -0.009289
C30   C     C_R   0.390477 0.811745 0.217896 -0.135002
C31   C     C_R   0.376285 0.798199 0.291698 0.025216
C32   C     C_R   0.305508 0.660720 0.320968 0.026105
C33   C     C_R   0.918400 0.126088 0.290993 0.210558
C34   C     C_R   0.868524 0.637372 0.396067 0.600807
C35   C     C_R   0.915765 0.108120 0.217795 -0.105220
C36   C     C_R   0.850233 0.162596 0.173631 -0.024136
C37   C     C_R   0.796151 0.243371 0.202280 -0.142509
C38   C     C_R   0.798663 0.261651 0.274806 -0.159768
C39   C     C_R   0.855321 0.199596 0.319777 0.041091
C40   C     C_R   0.962400 0.706143 0.276859 -0.138813
C41   C     C_R   0.946835 0.708255 0.204374 -0.148059
C42   C     C_R   0.811864 0.651664 0.175335 -0.024328
C43   C     C_R   0.691656 0.583423 0.218954 -0.101533
C44   C     C_R   0.706706 0.580569 0.292137 0.208534
C45   C     C_R   0.268885 0.632784 0.395588 0.583328
C46   C     C_R   0.843236 0.646294 0.321357 0.058246
C47   C     C_R   0.806930 0.104524 0.894360 0.532839
C48   C     C_R   0.399446 0.702209 0.895409 0.542676
C49   C     C_R   0.796632 0.692574 0.896575 0.544227
C50   C     C_R   0.808827 0.107100 0.102364 0.545930
C51   C     C_R   0.394463 0.704832 0.103365 0.548971
C52   C     C_R   0.797329 0.692973 0.104220 0.548836
C53   C     C_R   0.863601 0.232942 0.394633 0.597736
C54   C     C_R   0.269941 0.741061 0.718156 -0.131063
C55   C     C_R   0.294456 0.752932 0.790815 -0.132596
C56   C     C_R   0.366703 0.690705 0.820734 0.042215
Cr1   Cr    Cr6+3 0.791660 0.390250 0.499930 1.079115
Cr2   Cr    Cr6+3 0.098520 0.708290 0.500540 1.108644
Cr3   Cr    Cr6+3 0.109770 0.401430 0.499480 1.150726
Cr4   Cr    Cr6+3 0.874790 0.925890 0.000070 1.018586
Cr5   Cr    Cr6+3 0.574120 0.948670 0.999300 1.021916
Cr6   Cr    Cr6+3 0.551420 0.625320 0.000920 1.013042
H1    H     H_    0.205569 0.781389 0.695896 0.132547
H2    H     H_    0.375330 0.035551 0.671078 0.126632
H3    H     H_    0.568686 0.017334 0.616042 0.150734
H4    H     H_    0.406492 0.139819 0.790833 0.096949
H5    H     H_    0.646199 0.441754 0.685973 0.142048
H6    H     H_    0.626410 0.458243 0.815289 0.108614
H7    H     H_    0.999325 0.875521 0.809816 0.148974
H8    H     H_    0.012507 0.862509 0.686177 0.176176
H9    H     H_    0.184332 0.435609 0.297274 0.169010
H10   H     H_    0.218930 0.463170 0.170864 0.142489
H11   H     H_    0.452616 0.916104 0.194888 0.178995
H12   H     H_    0.254157 0.806418 0.823524 0.116108
H13   H     H_    0.956185 0.043413 0.196158 0.173873
H14   H     H_    0.745806 0.286477 0.168933 0.148622
H15   H     H_    0.755866 0.324771 0.295798 0.156228
H16   H     H_    0.068558 0.751410 0.298118 0.159996
H17   H     H_    0.040424 0.760505 0.171381 0.148034
H18   H     H_    0.586394 0.540869 0.196919 0.175021
H19   H     H_    0.480747 0.578760 0.800145 0.139567
H20   H     H_    0.439633 0.560288 0.673459 0.138448
H21   H     H_    0.302991 0.274775 0.815400 0.108187
H22   H     H_    0.289142 0.206204 0.689536 0.133093
H23   H     H_    0.094515 0.245573 0.876976 0.136323
H24   H     H_    0.625324 0.220521 0.855709 0.133698
O1    O     O_R   0.766500 0.250040 0.579790 -0.522402
O2    O     O_R   0.218690 0.701900 0.425960 -0.494372
O3    O     O_R   0.249490 0.516440 0.419420 -0.469748
O4    O     O_R   0.982880 0.281910 0.424890 -0.454277
O5    O     O_3   0.999980 0.499990 0.499980 -0.309425
O6    O     O_R   0.895110 0.806860 0.920430 -0.526872
O7    O     O_R   0.872260 0.046970 0.925000 -0.499906
O8    O     O_R   0.691430 0.085060 0.918550 -0.526042
O9    O     O_R   0.451490 0.822460 0.925250 -0.496505
O10   O     O_R   0.413330 0.603360 0.920440 -0.532626
O11   O     O_R   0.676110 0.626250 0.926750 -0.510967
O12   O     O_R   0.798570 0.516780 0.574780 -0.503445
O13   O     O_R   0.895350 0.809870 0.080950 -0.514723
O14   O     O_R   0.872490 0.049760 0.073800 -0.507398
O15   O     O_R   0.691680 0.088070 0.079070 -0.515166
O16   O     O_R   0.451720 0.825250 0.074050 -0.505704
O17   O     O_R   0.413580 0.606370 0.080960 -0.515857
O18   O     O_R   0.676340 0.629040 0.075550 -0.506073
O19   O     O_3   0.666780 0.833290 0.000090 -0.243890
O20   O     O_R   0.984000 0.732950 0.581090 -0.485230
O21   O     O_R   0.218600 0.700890 0.574760 -0.508733
O22   O     O_R   0.249390 0.515350 0.579940 -0.496081
O23   O     O_R   0.982790 0.280900 0.573700 -0.442186
O24   O     O_R   0.766600 0.251130 0.419260 -0.509131
O25   O     O_R   0.798660 0.517790 0.425980 -0.479204
O26   O     O_R   0.984100 0.734040 0.420570 -0.469121
C57   C     C_2   0.442081 0.928404 0.335734 0.590803
O27   O     O_2   0.485607 0.927328 0.395502 -0.480806
O28   O     O_R   0.457198 0.053942 0.307901 -0.686558
H25   H     H_    0.502347 0.135212 0.342842 0.369345
Cl1   Cl    Cl    0.992816 0.047828 0.344732 -0.518760
Cl2   Cl    Cl    0.553519 0.502276 0.345226 -0.557714
Cl3   Cl    Cl    0.063580 0.080539 0.592160 -0.567814

loop_
_geom_bond_atom_site_label_1
_geom_bond_atom_site_label_2
_ccdc_geom_bond_type
C53   O24   A    
C7    H21   S    
C55   C56   A    
C33   Cl1   S    
C48   O9    A    
Cr6   O10   S    
C34   O26   A    
C41   C42   A    
C14   C18   A    
C20   H5    S    
Cr5   O15   S    
C35   C36   A    
Cr4   O13   S    
C27   H9    S    
C7    C8    A    
Cr6   O19   S    
C39   C53   S    
C51   O16   A    
C40   C46   A    
C5    C47   S    
C35   H13   S    
C17   H4    S    
C29   C30   A    
C6    H23   S    
Cr2   O26   S    
C28   C29   A    
C29   C51   S    
C5    C11   A    
Cr3   O3    S    
C30   C31   A    
C54   H1    S    
C51   O17   A    
O28   H25   S    
C15   H3    S    
C48   O10   A    
Cr2   O21   S    
C32   C45   S    
Cr3   O23   S    
C55   H12   S    
C33   C39   A    
Cr1   O24   S    
C8    C9    A    
C34   C46   S    
C4    C12   S    
Cr5   O19   S    
C9    C10   A    
C1    O20   A    
Cr4   O7    S    
C23   O1    A    
C21   C22   A    
C34   O25   A    
C28   H10   S    
C44   C46   A    
C24   H7    S    
Cr6   O18   S    
Cr4   O6    S    
C38   C39   A    
C23   O23   A    
C13   C19   A    
C45   O2    A    
C24   C25   A    
C6    C11   A    
C12   O22   A    
C30   H11   S    
Cr5   O8    S    
C16   C17   A    
Cr3   O5    S    
C43   H18   S    
Cr1   O1    S    
Cr2   O20   S    
Cr3   O4    S    
C19   C23   S    
C43   C44   A    
C41   H17   S    
C37   C38   A    
Cr6   O11   S    
C31   C32   A    
C44   Cl2   S    
C10   C19   A    
C3    H20   S    
C17   C18   A    
C47   O7    A    
C18   H24   S    
C5    C14   A    
C22   C49   S    
C40   C41   A    
C37   H14   S    
C13   C15   A    
C21   H6    S    
C1    C26   S    
C9    Cl3   S    
C22   C24   A    
C42   C43   A    
C49   O6    A    
C3    C4    A    
C53   O4    A    
C36   C50   S    
C57   O27   D    
Cr2   O5    S    
C48   C56   S    
C54   C55   A    
C52   O18   A    
C45   O3    A    
Cr1   O5    S    
C4    C54   A    
C27   C32   A    
C8    H22   S    
Cr4   O14   S    
Cr2   O2    S    
C1    O12   A    
Cr6   O17   S    
C12   O21   A    
Cr5   O9    S    
C6    C7    A    
C38   H15   S    
C52   O13   A    
C50   O14   A    
Cr3   O22   S    
Cr5   O16   S    
C25   C26   A    
C2    C56   A    
Cr1   O25   S    
C20   C26   A    
Cr1   O12   S    
C33   C35   A    
C47   O8    A    
C2    C3    A    
C40   H16   S    
C10   C11   A    
C49   O11   A    
C20   C21   A    
C50   O15   A    
C36   C37   A    
C27   C28   A    
C2    H19   S    
C25   H8    S    
C16   H2    S    
C13   C14   A    
C31   C57   S    
Cr4   O19   S    
C15   C16   A    
C42   C52   S    
C57   O28   S    
