data_mof_unit_53997.cif
_audit_creation_date              2012-12-10T16:51:19-0500
_audit_creation_method            fapswitch 2.2
_symmetry_space_group_name_H-M    P1
_symmetry_Int_Tables_number       1
_space_group_crystal_system       triclinic
_cell_length_a                    27.844173
_cell_length_b                    8.747174
_cell_length_c                    7.427183
_cell_angle_alpha                 103.326375
_cell_angle_beta                  94.257026
_cell_angle_gamma                 93.207769
_cell_volume                      1750.39920529

loop_
_atom_site_label
_atom_site_type_symbol
_atom_type_description
_atom_site_fract_x
_atom_site_fract_y
_atom_site_fract_z
_atom_type_partial_charge
C1    C     C_R   0.497769 0.200091 0.453755 0.835771
C2    C     C_R   0.867954 0.368348 0.446246 -0.033240
C3    C     C_R   0.354773 0.490888 0.505308 -0.053307
C4    C     C_R   0.645228 0.509143 0.494701 -0.053297
C5    C     C_R   0.969507 0.356407 0.432553 0.003843
C6    C     C_R   0.030497 0.643728 0.567619 0.003838
C7    C     C_R   0.979576 0.642105 0.581796 0.051056
C8    C     C_R   0.020426 0.358038 0.418344 0.051052
C9    C     C_R   0.949372 0.502081 0.504920 0.064014
C10   C     C_R   0.050631 0.498054 0.495229 0.064020
C11   C     C_R   0.937471 0.215515 0.387443 -0.035168
C12   C     C_R   0.502231 0.799909 0.546245 0.835767
C13   C     C_R   0.062538 0.784611 0.612769 -0.035151
C14   C     C_R   0.887862 0.224493 0.391751 -0.149351
C15   C     C_R   0.112146 0.775618 0.608479 -0.149322
C16   C     C_R   0.407532 0.497728 0.501912 0.811299
C17   C     C_R   0.592468 0.502276 0.498089 0.811291
C18   C     C_R   0.042268 0.227078 0.317789 -0.202163
C19   C     C_R   0.957728 0.773084 0.682288 -0.202143
C20   C     C_2   0.490978 0.033604 0.432302 -0.261854
C21   C     C_2   0.509022 0.966396 0.567698 -0.261852
C22   C     C_R   0.173180 0.345636 0.454356 0.549445
C23   C     C_R   0.101660 0.492670 0.494121 -0.050158
C24   C     C_R   0.826820 0.654491 0.545643 0.549426
C25   C     C_R   0.182121 0.625460 0.549527 0.574099
C26   C     C_R   0.817882 0.374645 0.450598 0.574107
C27   C     C_R   0.283723 0.539545 0.674830 0.011331
C28   C     C_R   0.716281 0.460499 0.325199 0.011357
C29   C     C_R   0.333883 0.543224 0.672405 -0.248191
C30   C     C_R   0.666119 0.456776 0.327608 -0.248186
C31   C     C_R   0.325022 0.431000 0.340414 -0.236617
C32   C     C_R   0.674976 0.569110 0.659599 -0.236616
C33   C     C_R   0.274881 0.424195 0.341069 0.013064
C34   C     C_R   0.898343 0.507459 0.506002 -0.050161
C35   C     C_R   0.725117 0.575952 0.658946 0.013044
C36   C     C_R   0.253655 0.480129 0.508465 0.264595
C37   C     C_R   0.746347 0.519977 0.491564 0.264572
C38   C     C_1   0.245777 0.360504 0.167863 0.311840
C39   C     C_1   0.754217 0.639733 0.832133 0.311814
C40   C     C_1   0.110146 0.071997 0.233346 0.345626
C41   C     C_1   0.889846 0.928233 0.766527 0.345595
C42   C     C_1   0.736169 0.397841 0.151612 0.308500
C43   C     C_1   0.263840 0.602220 0.848430 0.308549
C44   C     C_1   0.952259 0.056244 0.352245 0.244048
C45   C     C_R   0.122443 0.348500 0.429576 -0.056273
C46   C     C_1   0.047758 0.943891 0.647976 0.244081
C47   C     C_1   0.459713 0.948877 0.269763 0.311826
C48   C     C_1   0.540287 0.051123 0.730237 0.311824
C49   C     C_R   0.877557 0.651641 0.570464 -0.056263
C50   C     C_R   0.091995 0.216364 0.333184 -0.023040
C51   C     C_R   0.908000 0.783807 0.666817 -0.023047
C52   C     C_R   0.132051 0.631765 0.553920 -0.033256
Cu1   Cu    Cu3+1 0.505380 0.517380 0.684380 0.982982
Cu2   Cu    Cu3+1 0.494620 0.482620 0.315620 0.982982
H1    H     H_    0.340839 0.388563 0.210702 0.162353
H2    H     H_    0.978511 0.866486 0.782203 0.150805
H3    H     H_    0.659157 0.611581 0.789307 0.162346
H4    H     H_    0.462094 0.377338 0.947812 0.227322
H5    H     H_    0.537906 0.622661 0.052188 0.227322
H6    H     H_    0.643368 0.409845 0.199507 0.172769
H7    H     H_    0.356637 0.590112 0.800505 0.172768
H8    H     H_    0.864478 0.116300 0.354308 0.207346
H9    H     H_    0.135533 0.883802 0.645961 0.207349
H10   H     H_    0.021478 0.133694 0.217872 0.150807
N1    N     N_R   0.201874 0.483449 0.507231 -0.470618
N2    N     N_1   0.247940 0.654210 0.987202 -0.233571
N3    N     N_1   0.963307 0.927786 0.322325 -0.281436
N4    N     N_1   0.036717 0.072358 0.677898 -0.281438
N5    N     N_1   0.434857 0.882035 0.140460 -0.260819
N6    N     N_1   0.565142 0.117964 0.859540 -0.260821
N7    N     N_R   0.798128 0.516663 0.492818 -0.470630
N8    N     N_2   0.486510 0.456430 0.038510 -0.204383
N9    N     N_2   0.513490 0.543570 0.961490 -0.204382
N10   N     N_1   0.222395 0.308600 0.029395 -0.240319
N11   N     N_1   0.777597 0.691717 0.970587 -0.240267
N12   N     N_1   0.124455 0.956294 0.153195 -0.228370
N13   N     N_1   0.875536 0.043976 0.846557 -0.228335
N14   N     N_1   0.752075 0.345866 0.012849 -0.233554
O1    O     O_R   0.503500 0.286120 0.619780 -0.581501
O2    O     O_2   0.806177 0.792919 0.573112 -0.503786
O3    O     O_2   0.789073 0.239698 0.413314 -0.504384
O4    O     O_2   0.210932 0.760399 0.586840 -0.504416
O5    O     O_R   0.496500 0.713880 0.380220 -0.581503
O6    O     O_R   0.494410 0.256780 0.308360 -0.573984
O7    O     O_R   0.505590 0.743220 0.691640 -0.573987
O8    O     O_R   0.434810 0.514700 0.655690 -0.588784
O9    O     O_R   0.565190 0.485300 0.344310 -0.588780
O10   O     O_R   0.425720 0.485350 0.344280 -0.582670
O11   O     O_R   0.574280 0.514650 0.655720 -0.582662
O12   O     O_2   0.193820 0.207206 0.426804 -0.503791

loop_
_geom_bond_atom_site_label_1
_geom_bond_atom_site_label_2
_ccdc_geom_bond_type
C19   H2    S    
C23   C45   A    
C27   C29   A    
C18   H10   S    
Cu2   O6    S    
Cu1   Cu2   S    
C1    O6    A    
C46   N4    T    
C12   O7    A    
C45   C50   A    
Cu1   O1    S    
C5    C11   A    
C41   N13   T    
Cu2   O9    S    
C11   C14   A    
C14   H8    S    
C33   C36   A    
C3    C29   A    
C47   N5    T    
C24   O2    S    
C49   C51   A    
C30   H6    S    
C31   C33   A    
Cu1   O8    S    
C39   N11   T    
H5    N9    S    
C21   C48   S    
C2    C34   A    
C16   O8    A    
C26   N7    A    
C32   H3    S    
Cu2   O5    S    
C29   H7    S    
C32   C35   A    
C17   O11   A    
C36   N1    S    
C12   C21   S    
C8    C18   A    
C40   N12   T    
C12   O5    A    
C35   C39   S    
C22   N1    A    
C5    C9    A    
C27   C43   S    
C13   C15   A    
C22   O12   S    
C25   N1    A    
C11   C44   S    
C2    C26   A    
C15   C52   A    
C3    C31   A    
C4    C32   A    
C4    C17   S    
C42   N14   T    
C26   O3    S    
C7    C19   A    
C37   N7    S    
Cu1   O11   S    
C25   O4    S    
C27   C36   A    
C18   C50   A    
C1    O1    A    
C38   N10   T    
C24   C49   A    
C7    C9    A    
C1    C20   S    
C35   C37   A    
C17   O9    A    
Cu1   N9    S    
C48   N6    T    
N8    N9    D    
C6    C10   A    
C5    C8    A    
C6    C7    A    
C10   C23   A    
C33   C38   S    
C28   C30   A    
C25   C52   A    
C6    C13   A    
Cu2   O10   S    
H4    N8    S    
C23   C52   A    
C9    C34   A    
C28   C37   A    
C43   N2    T    
C40   C50   S    
C28   C42   S    
C2    C14   A    
C20   C47   S    
C19   C51   A    
C22   C45   A    
Cu2   N8    S    
C20   C21   D    
C34   C49   A    
C8    C10   A    
C16   O10   A    
C15   H9    S    
C13   C46   S    
C44   N3    T    
Cu1   O7    S    
C31   H1    S    
C41   C51   S    
C4    C30   A    
C3    C16   S    
C24   N7    A    
