data_mof_unit_7966.cif
_audit_creation_date              2012-12-10T17:17:23-0500
_audit_creation_method            fapswitch 2.2
_symmetry_space_group_name_H-M    P1
_symmetry_Int_Tables_number       1
_space_group_crystal_system       triclinic
_cell_length_a                    10.168121
_cell_length_b                    10.810411
_cell_length_c                    12.292972
_cell_angle_alpha                 90.571135
_cell_angle_beta                  109.387355
_cell_angle_gamma                 97.025408
_cell_volume                      1263.2238724

loop_
_atom_site_label
_atom_site_type_symbol
_atom_type_description
_atom_site_fract_x
_atom_site_fract_y
_atom_site_fract_z
_atom_type_partial_charge
C1    C     C_R   0.054483 0.733009 0.495735 0.952419
C2    C     C_R   0.200323 0.500644 0.838137 -0.121304
C3    C     C_2   0.091779 0.866884 0.503595 -0.395207
C4    C     C_R   0.132234 0.505181 0.714018 0.859051
C5    C     C_2   0.009577 0.936353 0.536041 -0.139560
C6    C     C_2   0.926149 0.135517 0.526876 -0.387294
C7    C     C_2   0.031230 0.069209 0.533918 -0.155205
C8    C     C_2   0.423347 0.530136 0.465924 0.089604
C9    C     C_2   0.567110 0.491515 0.479576 -0.137820
C10   C     C_R   0.949291 0.267491 0.510667 0.940099
C11   C     C_R   0.865309 0.486986 0.286004 0.876611
C12   C     C_R   0.412884 0.476556 0.994661 0.084232
C13   C     C_R   0.724835 0.328503 0.990822 -0.198462
C14   C     C_R   0.785238 0.460103 0.164827 -0.064860
C15   C     C_R   0.153448 0.567999 0.913182 -0.190398
C16   C     C_R   0.232121 0.584008 0.029835 -0.142587
C17   C     C_R   0.362600 0.541597 0.070308 -0.192247
C18   C     C_3   0.401112 0.665793 0.447731 -0.325240
C19   C     C_3   0.508024 0.745213 0.403893 -0.394225
C20   C     C_3   0.454925 0.866965 0.357580 -0.911078
C21   C     C_R   0.321842 0.441585 0.881976 0.084924
C22   C     C_R   0.550977 0.445911 0.026756 0.079899
C23   C     C_R   0.588152 0.361503 0.956184 0.174789
C24   C     C_R   0.487875 0.310828 0.853027 -0.255232
C25   C     C_R   0.356143 0.350799 0.815817 -0.197806
C26   C     C_R   0.654439 0.500948 0.125653 -0.262246
C27   C     C_R   0.822834 0.376017 0.096462 -0.197183
H1    H     H_    0.918874 0.895304 0.557744 0.184961
H2    H     H_    0.194972 0.634216 0.088123 0.143056
H3    H     H_    0.281051 0.308797 0.735475 0.167691
H4    H     H_    0.132376 0.111807 0.530556 0.183080
H5    H     H_    0.924594 0.343073 0.126801 0.160306
H6    H     H_    0.356973 0.847339 0.281699 0.260568
H7    H     H_    0.433780 0.921382 0.425727 0.258471
H8    H     H_    0.535922 0.923908 0.330265 0.260295
H9    H     H_    0.609416 0.770337 0.474905 0.225711
H10   H     H_    0.527126 0.692681 0.333677 0.231952
H11   H     H_    0.297489 0.665375 0.378966 0.234382
H12   H     H_    0.825344 0.092457 0.530383 0.149963
H13   H     H_    0.400118 0.710254 0.529260 0.203829
H14   H     H_    0.680586 0.624483 0.599105 0.164259
H15   H     H_    0.420425 0.557730 0.161355 0.129284
H16   H     H_    0.182157 0.908330 0.481800 0.146267
H17   H     H_    0.570044 0.412546 0.425677 0.156549
H18   H     H_    0.335076 0.355585 0.462161 0.153361
H19   H     H_    0.512378 0.242946 0.799646 0.144987
H20   H     H_    0.754052 0.263048 0.938355 0.138449
H21   H     H_    0.634008 0.573682 0.176408 0.147687
H22   H     H_    0.057990 0.611003 0.881213 0.159002
N1    N     N_2   0.313640 0.446500 0.454900 -0.214278
N2    N     N_2   0.686360 0.553430 0.545150 -0.198395
O1    O     O_R   0.936910 0.692950 0.509080 -0.609641
O2    O     O_R   0.138320 0.658600 0.480130 -0.631052
O3    O     O_R   0.002900 0.525670 0.675280 -0.607513
O4    O     O_R   0.204310 0.491320 0.646330 -0.604985
O5    O     O_R   0.861680 0.341400 0.519870 -0.606665
O6    O     O_R   0.063090 0.307050 0.490920 -0.621206
O7    O     O_R   0.795690 0.508680 0.353670 -0.611128
O8    O     O_R   0.997100 0.474330 0.324720 -0.610302
Zn1   Zn    Zn3+2 0.865520 0.522940 0.519330 0.923203
Zn2   Zn    Zn3+2 0.134480 0.477060 0.480670 0.914179

loop_
_geom_bond_atom_site_label_1
_geom_bond_atom_site_label_2
_ccdc_geom_bond_type
C12   C17   A    
C6    C10   S    
C2    C4    S    
C23   C24   A    
O6    Zn2   S    
C6    C7    D    
C8    N1    D    
C14   C27   A    
C11   O7    A    
C10   O5    A    
C19   C20   S    
C9    N2    D    
C26   H21   S    
C3    C5    D    
C20   H7    S    
C2    C21   A    
C18   H11   S    
C24   H19   S    
O3    Zn1   S    
C14   C26   A    
C1    O2    A    
C2    C15   A    
C3    H16   S    
C16   C17   A    
H18   N1    S    
C11   O8    A    
C20   H6    S    
O4    Zn2   S    
C11   C14   S    
C19   H9    S    
C15   H22   S    
C4    O4    A    
C1    O1    A    
O8    Zn2   S    
C7    H4    S    
C27   H5    S    
O7    Zn1   S    
C15   C16   A    
C5    H1    S    
C12   C22   A    
C10   O6    A    
O1    Zn1   S    
C24   C25   A    
C13   C23   A    
C13   H20   S    
C18   C19   S    
C22   C26   A    
C25   H3    S    
C5    C7    S    
N1    Zn2   S    
C18   H13   S    
C17   H15   S    
C13   C27   A    
C9    H17   S    
C21   C25   A    
N2    Zn1   S    
C19   H10   S    
C4    O3    A    
C16   H2    S    
C6    H12   S    
C20   H8    S    
O2    Zn2   S    
C12   C21   A    
H14   N2    S    
C22   C23   A    
C8    C18   S    
O5    Zn1   S    
C8    C9    S    
C1    C3    S    
