data_mof_unit_30656.cif
_audit_creation_date              2012-12-10T21:32:02-0500
_audit_creation_method            fapswitch 2.2
_symmetry_space_group_name_H-M    P1
_symmetry_Int_Tables_number       1
_space_group_crystal_system       triclinic
_cell_length_a                    15.374706
_cell_length_b                    16.201242
_cell_length_c                    16.737497
_cell_angle_alpha                 94.101258
_cell_angle_beta                  88.498081
_cell_angle_gamma                 111.826635
_cell_volume                      3860.3485297

loop_
_atom_site_label
_atom_site_type_symbol
_atom_type_description
_atom_site_fract_x
_atom_site_fract_y
_atom_site_fract_z
_atom_type_partial_charge
C1    C     C_R   0.500495 0.487949 0.347063 0.890930
C2    C     C_R   0.501489 0.512853 0.652818 0.872862
C3    C     C_R   0.926122 0.457494 0.602506 -0.224628
C4    C     C_R   0.102450 0.592874 0.459890 -0.227008
C5    C     C_R   0.969655 0.402853 0.628084 -0.235489
C6    C     C_R   0.059150 0.647070 0.433248 -0.235687
C7    C     C_R   0.506411 0.480984 0.260604 -0.032299
C8    C     C_R   0.516320 0.528673 0.738307 -0.052035
C9    C     C_R   0.468239 0.528725 0.216462 -0.238966
C10   C     C_R   0.574136 0.493063 0.774479 -0.231178
C11   C     C_R   0.481661 0.530247 0.134924 -0.230834
C12   C     C_R   0.590151 0.508101 0.855932 -0.217129
C13   C     C_R   0.535334 0.485274 0.095612 0.327864
C14   C     C_R   0.546908 0.557686 0.902547 0.278514
C15   C     C_R   0.570919 0.432880 0.139713 0.162911
C16   C     C_R   0.494016 0.599017 0.865523 0.170979
C17   C     C_R   0.555680 0.432175 0.222493 -0.325482
C18   C     C_R   0.478071 0.583099 0.783139 -0.274813
C19   C     C_R   0.551492 0.783491 0.536167 0.037296
C20   C     C_R   0.457955 0.218545 0.456433 0.038782
C21   C     C_R   0.545127 0.868717 0.541307 -0.134801
C22   C     C_R   0.462171 0.132641 0.455950 -0.133825
C23   C     C_R   0.326033 0.444288 0.507452 0.867464
C24   C     C_R   0.673978 0.555928 0.493852 0.884929
C25   C     C_R   0.475247 0.882359 0.496462 0.270777
C26   C     C_R   0.521122 0.116908 0.511490 0.269700
C27   C     C_R   0.413236 0.809480 0.450285 -0.312426
C28   C     C_R   0.575113 0.188093 0.563859 -0.312675
C29   C     C_R   0.421154 0.725820 0.447899 -0.027166
C30   C     C_R   0.568621 0.272074 0.562504 -0.021817
C31   C     C_R   0.225706 0.411045 0.527877 -0.122656
C32   C     C_R   0.776054 0.593269 0.484492 -0.088559
C33   C     C_R   0.097306 0.349981 0.620864 -0.215212
C34   C     C_R   0.919294 0.677682 0.416303 -0.238075
C35   C     C_R   0.185209 0.354573 0.591279 0.164017
C36   C     C_R   0.822876 0.655585 0.427351 0.163474
C37   C     C_R   0.175835 0.457236 0.495359 -0.286858
C38   C     C_R   0.825901 0.554500 0.527395 -0.301933
C39   C     C_R   0.094867 0.461972 0.532086 0.096394
C40   C     C_R   0.920038 0.569253 0.510416 0.093361
C41   C     C_R   0.053312 0.404139 0.593214 0.123023
C42   C     C_R   0.966804 0.632741 0.454469 0.136081
C43   C     C_R   0.055018 0.523460 0.510274 0.078523
C44   C     C_R   0.966247 0.517139 0.541964 0.079351
H1    H     H_    0.937436 0.359178 0.675529 0.138712
H2    H     H_    0.096808 0.697743 0.392672 0.139649
H3    H     H_    0.358279 0.817494 0.416227 0.166655
H4    H     H_    0.622393 0.178435 0.605809 0.168931
H5    H     H_    0.371916 0.670168 0.412844 0.131409
H6    H     H_    0.610769 0.326313 0.603217 0.132913
H7    H     H_    0.786527 0.506640 0.569025 0.148586
H8    H     H_    0.205533 0.494047 0.443608 0.145070
H9    H     H_    0.065612 0.308037 0.669560 0.141128
H10   H     H_    0.955660 0.724434 0.372088 0.135295
H11   H     H_    0.862442 0.453208 0.633438 0.137855
H12   H     H_    0.173920 0.607876 0.440808 0.142599
H13   H     H_    0.606919 0.453500 0.739728 0.153140
H14   H     H_    0.428580 0.565636 0.245162 0.157817
H15   H     H_    0.633797 0.478611 0.882929 0.156273
H16   H     H_    0.449972 0.567284 0.102334 0.163006
H17   H     H_    0.585578 0.395847 0.257944 0.154979
H18   H     H_    0.434283 0.611471 0.754378 0.153659
N1    N     N_2   0.547674 0.488703 0.012011 -0.188681
N2    N     N_2   0.546765 0.558888 0.986713 -0.210116
N3    N     N_R   0.489120 0.713640 0.490430 -0.103612
N4    N     N_R   0.510880 0.286360 0.509570 -0.104302
N5    N     N_2   0.462119 0.965654 0.497547 -0.165466
N6    N     N_2   0.533816 0.033792 0.512675 -0.167058
O1    O     O_R   0.503890 0.423710 0.387290 -0.605903
O2    O     O_R   0.496110 0.576290 0.612710 -0.610552
O3    O     O_R   0.496910 0.560910 0.381140 -0.620272
O4    O     O_R   0.503090 0.439090 0.618860 -0.628541
O5    O     O_R   0.373240 0.392210 0.504830 -0.617006
O6    O     O_R   0.626760 0.607790 0.495170 -0.610325
O7    O     O_R   0.366260 0.529410 0.498680 -0.607068
O8    O     O_R   0.633740 0.470590 0.501320 -0.611795
Zn1   Zn    Zn3+2 0.504660 0.408390 0.504100 0.930717
Zn2   Zn    Zn3+2 0.495340 0.591610 0.495900 0.934522
C45   C     C_R   0.397844 0.234581 0.396797 0.183346
C46   C     C_R   0.306782 0.228054 0.417480 -0.124675
C47   C     C_R   0.246976 0.236549 0.359880 -0.161363
C48   C     C_R   0.276716 0.248247 0.280432 -0.124080
C49   C     C_R   0.365805 0.250358 0.258471 -0.129834
C50   C     C_R   0.426016 0.242845 0.316298 -0.123306
H19   H     H_    0.282568 0.216421 0.478250 0.134452
H20   H     H_    0.177351 0.233203 0.376717 0.134518
H21   H     H_    0.230312 0.254443 0.235721 0.127858
H22   H     H_    0.388165 0.257667 0.196651 0.135972
H23   H     H_    0.494351 0.243123 0.298519 0.105621
C51   C     C_R   0.625177 0.770645 0.582884 0.186413
C52   C     C_R   0.610615 0.753454 0.664123 -0.102275
C53   C     C_R   0.682832 0.748390 0.710188 -0.145989
C54   C     C_R   0.770911 0.763470 0.676097 -0.125210
C55   C     C_R   0.787406 0.785569 0.596459 -0.138830
C56   C     C_R   0.715172 0.790438 0.550310 -0.145820
H24   H     H_    0.543460 0.744404 0.691616 0.112213
H25   H     H_    0.670773 0.733599 0.772477 0.137396
H26   H     H_    0.826817 0.759654 0.711784 0.129503
H27   H     H_    0.856292 0.799536 0.570642 0.135274
H28   H     H_    0.729451 0.810597 0.489599 0.099921
C57   C     C_R   0.408801 0.062101 0.394881 0.148047
C58   C     C_R   0.455598 0.037369 0.329942 -0.135309
C59   C     C_R   0.405419 0.969886 0.273211 -0.143038
C60   C     C_R   0.308475 0.926855 0.280998 -0.128738
C61   C     C_R   0.261509 0.951281 0.345502 -0.146205
C62   C     C_R   0.311411 0.018723 0.402362 -0.125195
H29   H     H_    0.530712 0.070186 0.323543 0.120717
H30   H     H_    0.441695 0.950828 0.223292 0.126211
H31   H     H_    0.269775 0.874503 0.237122 0.121863
H32   H     H_    0.186491 0.917758 0.351572 0.122254
H33   H     H_    0.274506 0.036756 0.452434 0.117052
C63   C     C_R   0.607355 0.939834 0.597622 0.150132
C64   C     C_R   0.700099 0.989379 0.575987 -0.122492
C65   C     C_R   0.758190 0.056773 0.628985 -0.139407
C66   C     C_R   0.724045 0.075032 0.703677 -0.129339
C67   C     C_R   0.631758 0.025893 0.725503 -0.147469
C68   C     C_R   0.573428 0.958432 0.672676 -0.138646
H34   H     H_    0.726962 0.976107 0.518041 0.114967
H35   H     H_    0.829586 0.094988 0.612098 0.127860
H36   H     H_    0.769051 0.127328 0.744584 0.120669
H37   H     H_    0.605402 0.040155 0.783322 0.127079
H38   H     H_    0.502016 0.920749 0.690048 0.120732
C69   C     C_3   0.772705 0.689581 0.368587 -0.444436
C70   C     C_3   0.752444 0.630815 0.290679 -0.839375
H39   H     H_    0.818923 0.635192 0.260212 0.255006
H40   H     H_    0.712162 0.560428 0.303308 0.253419
H41   H     H_    0.710667 0.652946 0.250018 0.255881
H42   H     H_    0.706288 0.692697 0.392059 0.235629
H43   H     H_    0.816990 0.759007 0.355325 0.193938
C71   C     C_3   0.233594 0.304033 0.634344 -0.415874
C72   C     C_3   0.177976 0.203435 0.627040 -0.897494
H44   H     H_    0.114419 0.185888 0.665281 0.254226
H45   H     H_    0.156073 0.180123 0.564135 0.255750
H46   H     H_    0.221926 0.167805 0.647199 0.251791
H47   H     H_    0.305314 0.315865 0.613243 0.238833
H48   H     H_    0.240477 0.327243 0.698828 0.201519
C73   C     C_3   0.626336 0.377120 0.106417 -0.420738
C74   C     C_3   0.654507 0.382391 0.018320 -0.868156
H49   H     H_    0.591634 0.354762 0.979228 0.266950
H50   H     H_    0.697709 0.452125 0.005524 0.263880
H51   H     H_    0.697758 0.341408 0.004766 0.239078
H52   H     H_    0.692125 0.397176 0.141739 0.207564
H53   H     H_    0.585043 0.306150 0.116940 0.200456
C75   C     C_3   0.448648 0.654766 0.913432 -0.430778
C76   C     C_3   0.348099 0.598386 0.935358 -0.859374
H54   H     H_    0.305536 0.570183 0.880332 0.258942
H55   H     H_    0.346780 0.543080 0.971571 0.262607
H56   H     H_    0.316469 0.640496 0.971089 0.243392
H57   H     H_    0.488970 0.685705 0.969056 0.209226
H58   H     H_    0.448703 0.710369 0.878112 0.197389

loop_
_geom_bond_atom_site_label_1
_geom_bond_atom_site_label_2
_ccdc_geom_bond_type
C73   H52   S    
C57   C58   A    
O2    Zn2   S    
O1    Zn1   S    
C71   H47   S    
C34   C42   A    
C61   H32   S    
C72   H46   S    
C76   H56   S    
C65   C66   A    
C69   H42   S    
C69   C70   S    
C39   C41   A    
C29   H5    S    
C1    O3    A    
C22   C57   S    
C21   C25   A    
C32   C36   A    
C20   N4    A    
C16   C75   S    
C45   C50   A    
C27   C29   A    
C48   H21   S    
C67   C68   A    
C15   C17   A    
C9    H14   S    
C60   C61   A    
C75   H58   S    
O4    Zn1   S    
C17   H17   S    
C52   H24   S    
C12   H15   S    
C3    H11   S    
C7    C17   A    
C25   N5    S    
C59   H30   S    
C32   C38   A    
O6    Zn2   S    
C47   H20   S    
C20   C45   S    
C64   H34   S    
C40   C42   A    
C49   H22   S    
C73   H53   S    
C69   H43   S    
C55   C56   A    
C23   O5    A    
C2    O4    A    
C63   C64   A    
C76   H55   S    
C53   H25   S    
C76   H54   S    
C62   H33   S    
C33   H9    S    
C2    C8    S    
C3    C44   A    
C67   H37   S    
N5    N6    D    
C51   C56   A    
C10   H13   S    
O8    Zn1   S    
C4    C6    A    
C23   O7    A    
C52   C53   A    
C37   H8    S    
C56   H28   S    
C24   O8    A    
C39   C43   A    
C38   H7    S    
C47   C48   A    
C3    C5    A    
C5    H1    S    
C1    O1    A    
N1    N2    D    
C23   C31   S    
C68   H38   S    
C24   C32   S    
C46   H19   S    
C49   C50   A    
C13   N1    S    
C14   N2    S    
C36   C69   S    
C58   H29   S    
C54   C55   A    
C9    C11   A    
C35   C71   S    
C30   N4    A    
C10   C12   A    
C70   H41   S    
C29   N3    A    
C16   C18   A    
C12   C14   A    
C34   H10   S    
C13   C15   A    
C43   C44   A    
C22   C26   A    
C14   C16   A    
C50   H23   S    
C11   H16   S    
C21   C63   S    
C70   H40   S    
C64   C65   A    
C61   C62   A    
C27   H3    S    
C57   C62   A    
C7    C9    A    
N4    Zn1   S    
C5    C41   A    
C28   H4    S    
N3    Zn2   S    
C6    H2    S    
C75   H57   S    
C19   C21   A    
C1    C7    S    
C71   H48   S    
C65   H35   S    
C20   C22   A    
C46   C47   A    
C72   H45   S    
C74   H51   S    
C66   H36   S    
C74   H50   S    
C4    C43   A    
C25   C27   A    
C73   C74   S    
C26   C28   A    
C75   C76   S    
C26   N6    S    
C28   C30   A    
C71   C72   S    
C33   C41   A    
C37   C39   A    
C19   C51   S    
C38   C40   A    
C11   C13   A    
C24   O6    A    
C51   C52   A    
C63   C68   A    
C55   H27   S    
C31   C35   A    
C53   C54   A    
C33   C35   A    
C19   N3    A    
C34   C36   A    
C30   H6    S    
C58   C59   A    
O7    Zn2   S    
C8    C18   A    
C74   H49   S    
C45   C46   A    
C31   C37   A    
C40   C44   A    
C8    C10   A    
C48   C49   A    
C6    C42   A    
C59   C60   A    
O5    Zn1   S    
C60   H31   S    
C18   H18   S    
C66   C67   A    
C2    O2    A    
C54   H26   S    
O3    Zn2   S    
C4    H12   S    
C72   H44   S    
C70   H39   S    
C15   C73   S    
