data_mof_unit_33509.cif
_audit_creation_date              2012-10-26T19:53:26-0400
_audit_creation_method            fapswitch 2.2
_symmetry_space_group_name_H-M    P1
_symmetry_Int_Tables_number       1
_space_group_crystal_system       triclinic
_cell_length_a                    9.091664
_cell_length_b                    7.797684
_cell_length_c                    10.66843
_cell_angle_alpha                 90.172281
_cell_angle_beta                  90.018516
_cell_angle_gamma                 89.96887
_cell_volume                      756.323284146

loop_
_atom_site_label
_atom_site_type_symbol
_atom_type_description
_atom_site_fract_x
_atom_site_fract_y
_atom_site_fract_z
_atom_type_partial_charge
C1    C     C_R   0.220073 0.500030 0.499930 0.572685
C2    C     C_3   0.624672 0.570024 0.039877 0.018121
C3    C     C_3   0.498297 0.500880 0.877382 0.044087
C4    C     C_3   0.501703 0.499120 0.122618 0.044088
C5    C     C_1   0.065386 0.500041 0.499975 -0.006639
C6    C     C_1   0.934614 0.499959 0.500025 -0.006639
C7    C     C_2   0.232807 0.351392 0.919236 0.220119
C8    C     C_2   0.767193 0.648608 0.080764 0.220119
C9    C     C_R   0.779927 0.499970 0.500070 0.572684
C10   C     C_R   0.500770 0.499684 0.258877 0.582508
C11   C     C_R   0.499230 0.500315 0.741123 0.582508
C12   C     C_3   0.384718 0.591272 0.043500 -0.157516
C13   C     C_3   0.615282 0.408728 0.956500 -0.157516
C14   C     C_3   0.509317 0.663268 0.959157 -0.143305
C15   C     C_3   0.490683 0.336732 0.040842 -0.143305
C16   C     C_3   0.375328 0.429975 0.960123 0.018121
Cu1   Cu    Cu3+1 0.500000 0.669080 0.500000 1.069181
Cu2   Cu    Cu3+1 0.500000 0.330920 0.500000 1.069181
H1    H     H_    0.289998 0.665046 0.081254 0.123380
H2    H     H_    0.710002 0.334954 0.918746 0.123380
H3    H     H_    0.517602 0.796924 0.924230 0.132224
H4    H     H_    0.482397 0.203076 0.075769 0.132224
H5    H     H_    0.156456 0.304272 0.989195 0.103302
H6    H     H_    0.843544 0.695728 0.010805 0.103302
N1    N     N_1   0.500000 0.076820 0.500000 -0.076910
N2    N     N_1   0.500000 0.923180 0.500000 -0.076910
O1    O     O_R   0.288390 0.642760 0.500000 -0.503998
O2    O     O_2   0.798522 0.659677 0.191677 -0.497114
O3    O     O_R   0.711610 0.357240 0.500000 -0.503998
O4    O     O_R   0.711610 0.642760 0.500000 -0.480891
O5    O     O_R   0.288390 0.357240 0.500000 -0.480892
O6    O     O_R   0.499960 0.642760 0.316850 -0.480275
O7    O     O_R   0.500040 0.357240 0.683150 -0.480274
O8    O     O_R   0.500040 0.642760 0.683150 -0.518960
O9    O     O_R   0.499960 0.357240 0.316850 -0.518960
O10   O     O_2   0.201478 0.340323 0.808323 -0.497114

loop_
_geom_bond_atom_site_label_1
_geom_bond_atom_site_label_2
_ccdc_geom_bond_type
C2    C4    S    
C10   O9    A    
C4    C12   S    
C7    O10   D    
C3    C13   S    
C9    O3    A    
C4    C15   S    
Cu1   Cu2   S    
C15   H4    S    
Cu2   O3    S    
Cu1   O4    S    
C3    C14   S    
Cu2   N1    S    
C9    O4    A    
C6    C9    S    
C7    H5    S    
Cu1   N2    S    
C14   H3    S    
C7    C16   S    
C8    H6    S    
C12   C14   S    
C13   C15   S    
C1    O5    A    
C5    C6    T    
C2    C14   S    
Cu2   O7    S    
C1    C5    S    
C3    C11   S    
Cu1   O8    S    
C4    C10   S    
C15   C16   S    
Cu1   O1    S    
C10   O6    A    
C11   O7    A    
C12   H1    S    
C8    O2    D    
Cu2   O9    S    
Cu1   O6    S    
C1    O1    A    
C2    C13   S    
Cu2   O5    S    
C13   H2    S    
N1    N2    T    
C11   O8    A    
C2    C8    S    
C3    C16   S    
C12   C16   S    
