data_mof_unit_12373.cif
_audit_creation_date              2012-12-10T17:05:11-0500
_audit_creation_method            fapswitch 2.2
_symmetry_space_group_name_H-M    P1
_symmetry_Int_Tables_number       1
_space_group_crystal_system       triclinic
_cell_length_a                    10.840687
_cell_length_b                    11.104012
_cell_length_c                    10.079597
_cell_angle_alpha                 110.078311
_cell_angle_beta                  100.347089
_cell_angle_gamma                 92.817576
_cell_volume                      1112.96662157

loop_
_atom_site_label
_atom_site_type_symbol
_atom_type_description
_atom_site_fract_x
_atom_site_fract_y
_atom_site_fract_z
_atom_type_partial_charge
C1    C     C_R   0.480546 0.255248 0.441970 0.827484
C2    C     C_3   0.879011 0.496701 0.500480 -0.026201
C3    C     C_3   0.946833 0.641351 0.561499 -0.074314
C4    C     C_3   0.900377 0.427970 0.340599 -0.065294
C5    C     C_2   0.443013 0.117910 0.415567 -0.113316
C6    C     C_2   0.492463 0.067696 0.517140 -0.039299
C7    C     C_2   0.489533 0.881733 0.599402 -0.168266
C8    C     C_2   0.457790 0.931592 0.496940 -0.248275
C9    C     C_2   0.509687 0.516056 0.084891 0.133527
C10   C     C_2   0.489229 0.492829 0.922993 -0.021142
C11   C     C_R   0.260506 0.497326 0.498142 0.766319
C12   C     C_R   0.500448 0.743856 0.559401 0.825178
C13   C     C_R   0.739648 0.497292 0.500422 0.757170
C14   C     C_3   0.083880 0.413078 0.579895 -0.437511
C15   C     C_3   0.945974 0.425278 0.598775 -0.167678
C16   C     C_3   0.094035 0.639192 0.575349 -0.219400
C17   C     C_3   0.043070 0.445071 0.340570 -0.403273
C18   C     C_3   0.122896 0.499240 0.497366 0.045265
Cu1   Cu    Cu3+1 0.522160 0.521810 0.644910 0.936719
Cu2   Cu    Cu3+1 0.477840 0.478190 0.355090 0.920510
H1    H     H_    0.145956 0.441621 0.689166 0.172537
H2    H     H_    0.851801 0.477650 0.270773 0.170126
H3    H     H_    0.415447 0.866064 0.390943 0.187610
H4    H     H_    0.405153 0.429554 0.854882 0.122895
H5    H     H_    0.097747 0.311374 0.519955 0.170494
H6    H     H_    0.382923 0.368486 0.063067 0.178243
H7    H     H_    0.948303 0.483784 0.713305 0.152810
H8    H     H_    0.141398 0.667522 0.691304 0.137881
H9    H     H_    0.060283 0.512311 0.283788 0.178165
H10   H     H_    0.074700 0.352186 0.279140 0.171772
N1    N     N_2   0.444530 0.445420 0.137360 -0.309348
N2    N     N_2   0.555520 0.554510 0.862630 -0.196594
O1    O     O_R   0.511820 0.332340 0.577400 -0.578669
O2    O     O_R   0.474400 0.295500 0.332650 -0.581200
O3    O     O_R   0.336400 0.518400 0.622370 -0.594315
O4    O     O_R   0.298980 0.481560 0.377620 -0.582988
O5    O     O_R   0.525600 0.704500 0.667350 -0.582578
O6    O     O_R   0.488180 0.667660 0.422600 -0.589984
O7    O     O_R   0.701020 0.518440 0.622380 -0.597399
O8    O     O_R   0.663600 0.481600 0.377630 -0.607035
C19   C     C_1   0.153195 0.734065 0.524568 0.245059
N3    N     N_1   0.196761 0.808242 0.483692 -0.300373
C20   C     C_1   0.896526 0.712066 0.467153 0.211455
N4    N     N_1   0.861630 0.770037 0.395048 -0.327853
C21   C     C_1   0.592004 0.139827 0.641985 0.344421
N5    N     N_1   0.669659 0.195846 0.743020 -0.312497
C22   C     C_1   0.495166 0.957825 0.750430 0.293229
N6    N     N_1   0.497563 0.017962 0.870279 -0.313574
C23   C     C_3   0.336792 0.037837 0.287087 -0.433120
C24   C     C_3   0.261696 0.111250 0.201604 -0.327568
C25   C     C_3   0.145997 0.025251 0.095320 -0.837518
H11   H     H_    0.175198 0.939862 0.016344 0.267543
H12   H     H_    0.082371 0.991913 0.153934 0.257429
H13   H     H_    0.093512 0.080699 0.035440 0.250010
H14   H     H_    0.229689 0.196939 0.277048 0.210603
H15   H     H_    0.321352 0.142334 0.137677 0.253890
H16   H     H_    0.376701 0.960163 0.210395 0.207340
H17   H     H_    0.267285 0.992017 0.329573 0.234588
C26   C     C_3   0.599420 0.634132 0.184364 -0.234889
C27   C     C_3   0.549692 0.758335 0.170358 -0.404386
C28   C     C_3   0.641387 0.879708 0.260790 -0.792109
H18   H     H_    0.661197 0.890865 0.376360 0.283006
H19   H     H_    0.731540 0.875292 0.222832 0.263550
H20   H     H_    0.600917 0.966129 0.249132 0.238690
H21   H     H_    0.529071 0.755956 0.057927 0.223320
H22   H     H_    0.456178 0.763287 0.197647 0.212471
H23   H     H_    0.625175 0.644391 0.295399 0.253665
H24   H     H_    0.695555 0.621640 0.168375 0.155399
C29   C     C_3   0.689321 0.605996 0.918949 -0.094011
C30   C     C_3   0.774211 0.501321 0.930022 -0.354850
C31   C     C_3   0.908816 0.559148 0.011414 -0.927041
H25   H     H_    0.951694 0.617656 0.958081 0.275726
H26   H     H_    0.909527 0.621370 0.124392 0.271023
H27   H     H_    0.967276 0.480162 0.013251 0.245945
H28   H     H_    0.735233 0.443993 0.986777 0.208236
H29   H     H_    0.776759 0.434183 0.820499 0.259301
H30   H     H_    0.719595 0.651108 0.847421 0.225484
H31   H     H_    0.709185 0.695208 0.013349 0.145293
C32   C     C_1   0.882017 0.296704 0.573305 0.214933
N7    N     N_1   0.834413 0.194236 0.551029 -0.286962
C33   C     C_1   0.923608 0.718087 0.705074 0.196358
N8    N     N_1   0.907050 0.780754 0.817194 -0.328747
C34   C     C_3   0.845679 0.282414 0.269376 -0.367452
C35   C     C_3   0.821138 0.232598 0.103890 -0.378645
C36   C     C_3   0.791200 0.085696 0.040983 -0.759513
H32   H     H_    0.871921 0.039601 0.078398 0.245963
H33   H     H_    0.706989 0.055210 0.075386 0.262842
H34   H     H_    0.772343 0.051655 0.921238 0.269166
H35   H     H_    0.738888 0.274925 0.062831 0.239101
H36   H     H_    0.904687 0.260817 0.066655 0.225155
H37   H     H_    0.912570 0.222912 0.307868 0.221394
H38   H     H_    0.754772 0.265565 0.300047 0.218898

loop_
_geom_bond_atom_site_label_1
_geom_bond_atom_site_label_2
_ccdc_geom_bond_type
C16   H8    S    
C11   C18   S    
C6    C21   S    
C17   H9    S    
C19   N3    T    
C14   C18   S    
C29   H30   S    
Cu1   Cu2   S    
C33   N8    T    
C1    O1    A    
C7    C8    D    
C36   H32   S    
C34   H38   S    
C3    C20   S    
C1    C5    S    
C14   H1    S    
C11   O4    A    
C5    C6    D    
Cu2   O8    S    
C8    H3    S    
C23   H16   S    
C12   O5    A    
C28   H19   S    
C2    C13   S    
C13   O8    A    
Cu1   O5    S    
C26   H23   S    
C15   C32   S    
C34   C35   S    
C3    C33   S    
C30   C31   S    
C9    C10   S    
Cu2   O2    S    
C4    H2    S    
C27   H22   S    
H6    N1    S    
C17   H10   S    
C5    C23   S    
C29   H31   S    
C28   H18   S    
C35   H36   S    
Cu1   N2    S    
C1    O2    A    
C24   C25   S    
C36   H33   S    
C7    C12   S    
C25   H11   S    
C35   C36   S    
Cu1   O1    S    
C31   H26   S    
C6    C8    S    
C10   H4    S    
C21   N5    T    
C24   H15   S    
C23   H17   S    
C27   C28   S    
C25   H12   S    
C7    C22   S    
C28   H20   S    
C2    C4    S    
C20   N4    T    
C26   H24   S    
Cu2   O6    S    
C15   H7    S    
C22   N6    T    
C17   C18   S    
C2    C15   S    
Cu1   O7    S    
C4    C17   S    
C27   H21   S    
C30   H29   S    
C35   H35   S    
C36   H34   S    
C31   H27   S    
N2    C29   S    
C34   H37   S    
C24   H14   S    
C25   H13   S    
C11   O3    A    
C2    C3    S    
C31   H25   S    
Cu1   O3    S    
C4    C34   S    
C14   H5    S    
C12   O6    A    
C29   C30   S    
C13   O7    A    
C9    N1    D    
C32   N7    T    
Cu2   O4    S    
C10   N2    D    
C26   C27   S    
C16   C18   S    
C23   C24   S    
C30   H28   S    
C14   C15   S    
C9    C26   S    
C16   C19   S    
C3    C16   S    
Cu2   N1    S    
