data_mof_unit_54931.cif
_audit_creation_date              2012-12-10T16:58:31-0500
_audit_creation_method            fapswitch 2.2
_symmetry_space_group_name_H-M    P1
_symmetry_Int_Tables_number       1
_space_group_crystal_system       triclinic
_cell_length_a                    7.806213
_cell_length_b                    8.672263
_cell_length_c                    23.356658
_cell_angle_alpha                 92.539705
_cell_angle_beta                  85.215374
_cell_angle_gamma                 93.662172
_cell_volume                      1571.25193894

loop_
_atom_site_label
_atom_site_type_symbol
_atom_type_description
_atom_site_fract_x
_atom_site_fract_y
_atom_site_fract_z
_atom_type_partial_charge
C1    C     C_R   0.544987 0.793935 0.498653 0.925978
C2    C     C_R   0.386647 0.391485 0.301473 0.347463
C3    C     C_R   0.397334 0.656863 0.760835 0.433191
C4    C     C_R   0.350579 0.406147 0.244757 0.435789
C5    C     C_R   0.478337 0.553944 0.793057 -0.064273
C6    C     C_R   0.448526 0.515647 0.210548 -0.074458
C7    C     C_2   0.566927 0.956269 0.505417 -0.046187
C8    C     C_2   0.435850 0.043417 0.492501 -0.046732
C9    C     C_R   0.501833 0.503677 0.610570 0.969374
C10   C     C_R   0.499199 0.501168 0.389717 0.971742
C11   C     C_R   0.425538 0.388382 0.116042 0.565208
C12   C     C_R   0.455391 0.205859 0.500803 0.936477
C13   C     C_R   0.481096 0.687450 0.886964 0.568254
C14   C     C_R   0.406756 0.661926 0.126759 0.574135
C15   C     C_R   0.384841 0.420387 0.879737 0.576529
C16   C     C_R   0.418499 0.673767 0.067140 -0.047629
C17   C     C_R   0.380461 0.409562 0.939150 -0.041165
C18   C     C_R   0.407043 0.537439 0.032755 -0.023104
C19   C     C_R   0.411347 0.545049 0.972867 -0.021739
C20   C     C_R   0.397065 0.393060 0.057970 -0.045230
C21   C     C_R   0.452067 0.687255 0.946858 -0.045709
C22   C     C_R   0.446700 0.816972 0.041216 -0.155392
C23   C     C_R   0.583619 0.442370 0.764948 0.534980
C24   C     C_R   0.351627 0.266658 0.965392 -0.148437
C25   C     C_R   0.469566 0.823328 0.981407 -0.170083
C26   C     C_R   0.366126 0.257974 0.024194 -0.165597
C27   C     C_3   0.823715 0.410166 0.810092 -0.310567
C28   C     C_3   0.819369 0.664980 0.178358 -0.288694
C29   C     C_3   0.680910 0.287399 0.675412 -0.796531
C30   C     C_3   0.699719 0.746059 0.322528 -0.770766
C31   C     C_3   0.470361 0.880305 0.660693 -0.271627
C32   C     C_3   0.412951 0.142915 0.323041 -0.245336
C33   C     C_3   0.129386 0.715344 0.796512 -0.230707
C34   C     C_R   0.573574 0.617277 0.235708 0.522581
C35   C     C_3   0.075817 0.379086 0.219027 -0.259347
C36   C     C_3   0.729742 0.016276 0.533465 -0.867205
C37   C     C_3   0.277919 0.983000 0.461978 -0.844797
C38   C     C_3   0.946229 0.303592 0.405852 -0.116798
C39   C     C_3   0.047994 0.695950 0.594185 -0.107046
C40   C     C_R   0.591587 0.422234 0.704802 -0.016189
C41   C     C_R   0.588323 0.618471 0.295269 -0.045355
C42   C     C_R   0.506591 0.524249 0.672929 -0.308775
C43   C     C_R   0.494880 0.503218 0.327807 -0.310744
C44   C     C_R   0.420689 0.647725 0.701025 0.333250
H1    H     H_    0.461720 0.922545 0.067200 0.204287
H2    H     H_    0.878493 0.743040 0.144858 0.211923
H3    H     H_    0.587117 0.217306 0.650524 0.201809
H4    H     H_    0.792265 0.329618 0.646425 0.243153
H5    H     H_    0.729997 0.209824 0.705954 0.273977
H6    H     H_    0.678087 0.754422 0.369988 0.216996
H7    H     H_    0.837655 0.726828 0.310966 0.235113
H8    H     H_    0.670182 0.859749 0.306887 0.249404
H9    H     H_    0.591623 0.842053 0.637455 0.143131
H10   H     H_    0.498386 0.942266 0.701929 0.221950
H11   H     H_    0.415626 0.963313 0.633470 0.174358
H12   H     H_    0.326565 0.160849 0.940270 0.197291
H13   H     H_    0.530024 0.162135 0.347133 0.129166
H14   H     H_    0.449946 0.117695 0.276594 0.216906
H15   H     H_    0.338963 0.038464 0.339307 0.182808
H16   H     H_    0.117492 0.617463 0.826054 0.129578
H17   H     H_    0.074190 0.680530 0.755094 0.152947
H18   H     H_    0.052459 0.808743 0.817257 0.207573
H19   H     H_    0.092475 0.461773 0.183794 0.142009
H20   H     H_    0.033257 0.438247 0.260658 0.134260
H21   H     H_    0.971913 0.291815 0.208436 0.200509
H22   H     H_    0.794827 0.923244 0.552529 0.256321
H23   H     H_    0.500252 0.934351 0.962409 0.186362
H24   H     H_    0.824540 0.070171 0.501085 0.281127
H25   H     H_    0.698641 0.099254 0.569493 0.234350
H26   H     H_    0.216810 0.076720 0.441824 0.269020
H27   H     H_    0.314176 0.898833 0.426492 0.229844
H28   H     H_    0.178765 0.929612 0.493114 0.274820
H29   H     H_    0.814299 0.253785 0.416016 0.162078
H30   H     H_    0.014858 0.211412 0.380996 0.184132
H31   H     H_    0.948316 0.404637 0.378033 0.161409
H32   H     H_    0.174454 0.757394 0.584113 0.219894
H33   H     H_    0.057257 0.592368 0.619941 0.167403
H34   H     H_    0.349992 0.146355 0.043287 0.177110
H35   H     H_    0.967862 0.776831 0.621123 0.126267
H36   H     H_    0.809187 0.520535 0.835721 0.149698
H37   H     H_    0.909642 0.428881 0.770234 0.155370
H38   H     H_    0.886345 0.330483 0.836566 0.222785
H39   H     H_    0.794903 0.549049 0.157027 0.140272
H40   H     H_    0.912917 0.660056 0.211334 0.160644
N1    N     N_R   0.424594 0.521770 0.150155 -0.327657
N2    N     N_R   0.445890 0.555113 0.854492 -0.322592
N3    N     N_2   0.950330 0.457950 0.484560 0.193511
N4    N     N_2   0.049670 0.542050 0.515440 0.184559
O1    O     O_R   0.389250 0.738570 0.503790 -0.644770
O2    O     O_2   0.547742 0.817242 0.861637 -0.514045
O3    O     O_2   0.379310 0.789122 0.160883 -0.504401
O4    O     O_2   0.331874 0.296577 0.847236 -0.520073
O5    O     O_3   0.662849 0.341349 0.796999 -0.548084
O6    O     O_3   0.667499 0.727836 0.203163 -0.545535
O7    O     O_3   0.348536 0.755118 0.669983 -0.611445
O8    O     O_3   0.308305 0.269990 0.332083 -0.591468
O9    O     O_3   0.301881 0.772505 0.787541 -0.522536
O10   O     O_3   0.228244 0.303021 0.222486 -0.520234
O11   O     O_3   0.031260 0.342243 0.455549 -0.529489
O12   O     O_R   0.610750 0.261430 0.496210 -0.649627
O13   O     O_3   0.967068 0.657552 0.543879 -0.557123
O14   O     O_R   0.678390 0.711620 0.493890 -0.580468
O15   O     O_R   0.321610 0.288380 0.506110 -0.573238
O16   O     O_R   0.355400 0.513520 0.588790 -0.630531
O17   O     O_R   0.644600 0.486480 0.411210 -0.668631
O18   O     O_R   0.644550 0.486570 0.578900 -0.601315
O19   O     O_R   0.355450 0.513430 0.421100 -0.569269
O20   O     O_2   0.459153 0.252613 0.137528 -0.514479
Zn1   Zn    Zn3+2 0.306930 0.518000 0.506610 1.030942
Zn2   Zn    Zn3+2 0.693070 0.482000 0.493390 1.001209

loop_
_geom_bond_atom_site_label_1
_geom_bond_atom_site_label_2
_ccdc_geom_bond_type
C30   H7    S    
O12   Zn2   S    
C4    O10   S    
C13   O2    S    
C28   H40   S    
C41   C43   A    
C7    C36   S    
C25   H23   S    
C32   H14   S    
O17   Zn2   S    
N4    O13   S    
C7    C8    D    
N3    Zn2   S    
C29   H5    S    
C28   H2    S    
C9    C42   S    
C26   H34   S    
C6    N1    S    
C29   H3    S    
C39   H33   S    
C19   C21   A    
C24   C26   A    
C38   H30   S    
O16   Zn1   S    
C36   H22   S    
C35   H21   S    
C23   C40   A    
O1    Zn1   S    
C28   O6    S    
C18   C19   A    
C30   H8    S    
C15   O4    S    
C33   H18   S    
C22   C25   A    
C13   N2    A    
C16   C22   A    
C30   C41   S    
C35   H20   S    
C35   O10   S    
C33   O9    S    
C40   C42   A    
C30   H6    S    
C37   H26   S    
C28   H39   S    
O19   Zn1   S    
C10   O19   A    
C34   C41   A    
C42   C44   A    
C32   H13   S    
C39   O13   S    
N3    O11   S    
C38   H31   S    
C3    C44   A    
C11   C20   A    
C17   C24   A    
C29   H4    S    
C27   H37   S    
C12   O15   A    
C4    C6    A    
C27   H36   S    
C9    O18   A    
C6    C34   A    
C39   H35   S    
C2    C4    A    
C3    O9    S    
C5    C23   A    
C2    C43   A    
C8    C12   S    
C13   C21   A    
C39   H32   S    
C31   H9    S    
C15   N2    A    
C5    N2    S    
C33   H17   S    
C32   O8    S    
C33   H16   S    
C37   H27   S    
C14   C16   A    
C27   O5    S    
C8    C37   S    
N4    Zn1   S    
C36   H25   S    
O18   Zn2   S    
C15   C17   A    
C21   C25   A    
C1    O1    A    
C10   C43   S    
C1    C7    S    
C27   H38   S    
C34   O6    S    
C14   N1    A    
C38   O11   S    
C3    C5    A    
C36   H24   S    
C24   H12   S    
O15   Zn1   S    
C2    O8    S    
C44   O7    S    
C20   C26   A    
C11   N1    A    
C9    O16   A    
C31   O7    S    
C29   C40   S    
C17   C19   A    
C18   C20   A    
C31   H10   S    
C14   O3    S    
C12   O12   A    
O14   Zn2   S    
C23   O5    S    
C22   H1    S    
N3    N4    D    
C16   C18   A    
C37   H28   S    
C11   O20   S    
C10   O17   A    
C35   H19   S    
C32   H15   S    
C31   H11   S    
C1    O14   A    
C38   H29   S    
