data_mof_unit_37817.cif
_audit_creation_date              2012-10-26T18:43:31-0400
_audit_creation_method            fapswitch 2.2
_symmetry_space_group_name_H-M    P1
_symmetry_Int_Tables_number       1
_space_group_crystal_system       triclinic
_cell_length_a                    10.732013
_cell_length_b                    10.818792
_cell_length_c                    9.583405
_cell_angle_alpha                 90.195878
_cell_angle_beta                  89.862309
_cell_angle_gamma                 90.346232
_cell_volume                      1112.67441837

loop_
_atom_site_label
_atom_site_type_symbol
_atom_type_description
_atom_site_fract_x
_atom_site_fract_y
_atom_site_fract_z
_atom_type_partial_charge
C1    C     C_R   0.497228 0.262477 0.499767 0.542563
C2    C     C_R   0.484967 0.937013 0.625016 0.022628
C3    C     C_3   0.573583 0.932596 0.744771 -0.272931
C4    C     C_R   0.259980 0.499520 0.500329 0.541541
C5    C     C_3   0.571873 0.072803 0.745155 -0.268150
C6    C     C_R   0.561042 0.590688 0.072964 0.158725
C7    C     C_R   0.432234 0.415856 0.074209 -0.025789
C8    C     C_R   0.433100 0.415157 0.925563 -0.020685
C9    C     C_R   0.555562 0.594155 0.926061 0.126053
C10   C     C_3   0.687449 0.632489 0.911996 -0.249180
C11   C     C_3   0.698568 0.620869 0.069221 -0.001268
C12   C     C_3   0.878293 0.500507 0.502574 0.057723
C13   C     C_R   0.497829 0.737605 0.500069 0.542665
C14   C     C_R   0.740126 0.500524 0.500480 0.545497
C15   C     C_3   0.071612 0.498070 0.653646 -0.229996
C16   C     C_3   0.928992 0.501463 0.654125 -0.240061
C17   C     C_3   0.073094 0.616649 0.427121 -0.236576
C18   C     C_3   0.071124 0.383667 0.424553 -0.237552
C19   C     C_3   0.122043 0.499531 0.501430 0.054275
C20   C     C_3   0.908678 0.531799 0.067485 -0.342660
C21   C     C_3   0.929391 0.618236 0.430216 -0.239149
C22   C     C_3   0.927367 0.382549 0.428864 -0.232024
C23   C     C_R   0.484137 0.064249 0.624800 0.016421
C24   C     C_R   0.484239 0.129339 0.499403 0.004456
C25   C     C_R   0.466978 0.063906 0.373852 -0.170197
C26   C     C_R   0.467495 0.934991 0.374074 -0.170069
C27   C     C_R   0.485334 0.870787 0.499833 0.004134
Cu1   Cu    Cu3+1 0.499990 0.499980 0.640670 0.914860
Cu2   Cu    Cu3+1 0.500010 0.500020 0.359330 0.929685
H1    H     H_    0.108120 0.579291 0.712824 0.127741
H2    H     H_    0.662993 0.115291 0.716446 0.133747
H3    H     H_    0.378907 0.346392 0.129585 0.106962
H4    H     H_    0.103284 0.413238 0.708323 0.118953
H5    H     H_    0.380895 0.344798 0.870038 0.111342
H6    H     H_    0.740836 0.562988 0.853189 0.167273
H7    H     H_    0.698162 0.728789 0.874710 0.082922
H8    H     H_    0.722613 0.708815 0.123543 0.121429
H9    H     H_    0.891997 0.420906 0.713573 0.118911
H10   H     H_    0.899418 0.587707 0.707689 0.110276
H11   H     H_    0.110135 0.701134 0.479528 0.109439
H12   H     H_    0.889538 0.374697 0.321648 0.142905
H13   H     H_    0.897289 0.701933 0.487520 0.098294
H14   H     H_    0.103386 0.383067 0.314141 0.116688
H15   H     H_    0.107186 0.298345 0.474502 0.105782
H16   H     H_    0.894500 0.299189 0.486317 0.102405
H17   H     H_    0.743315 0.431196 0.086110 0.264384
H18   H     H_    0.967172 0.468850 0.129693 0.135018
H19   H     H_    0.941987 0.628105 0.084590 0.139891
H20   H     H_    0.922075 0.506831 0.956339 0.123972
H21   H     H_    0.105748 0.618579 0.316822 0.124545
H22   H     H_    0.892483 0.626092 0.323252 0.159211
H23   H     H_    0.459249 0.111636 0.275107 0.125804
H24   H     H_    0.459976 0.886401 0.275415 0.130122
H25   H     H_    0.530234 0.891487 0.839460 0.132305
H26   H     H_    0.665606 0.893982 0.714552 0.125393
H27   H     H_    0.526748 0.112600 0.839557 0.129673
N1    N     N_R   0.500800 0.500930 0.147930 -0.229593
N2    N     N_R   0.500800 0.500890 0.852020 -0.232420
N3    N     N_2   0.778663 0.518145 0.107508 -0.490670
O1    O     O_R   0.500000 0.319640 0.618810 -0.504543
O2    O     O_R   0.500010 0.319680 0.381230 -0.513781
O3    O     O_R   0.317690 0.499960 0.618790 -0.509996
O4    O     O_R   0.317700 0.500000 0.381210 -0.510502
O5    O     O_R   0.499990 0.680320 0.618770 -0.495156
O6    O     O_R   0.500000 0.680360 0.381190 -0.509937
O7    O     O_R   0.682300 0.500000 0.618790 -0.521669
O8    O     O_R   0.682310 0.500040 0.381210 -0.472059

loop_
_geom_bond_atom_site_label_1
_geom_bond_atom_site_label_2
_ccdc_geom_bond_type
C17   H21   S    
Cu1   O7    S    
C14   O8    A    
Cu2   O4    S    
C20   H20   S    
Cu1   N2    S    
H17   N3    S    
C9    C10   S    
C5    H27   S    
C5    C23   S    
C6    C11   S    
C23   C24   A    
C11   N3    S    
C6    C9    A    
C2    C3    S    
C14   O7    A    
C25   H23   S    
Cu2   O8    S    
C7    C8    A    
C8    H5    S    
C18   H14   S    
C20   N3    S    
C15   C19   S    
C6    N1    A    
C26   C27   A    
C2    C27   A    
C13   O5    A    
C15   H1    S    
Cu2   O6    S    
C15   C16   S    
Cu1   O5    S    
C4    O4    A    
Cu1   Cu2   S    
C17   C19   S    
C12   C14   S    
C9    N2    A    
C18   H15   S    
Cu1   O1    S    
Cu1   O3    S    
C3    H25   S    
Cu2   O2    S    
C5    H2    S    
C20   H18   S    
C10   C11   S    
Cu2   N1    S    
C16   H10   S    
C21   H13   S    
C10   H6    S    
C26   H24   S    
C4    O3    A    
C21   H22   S    
C22   H16   S    
C12   C22   S    
C24   C25   A    
C1    C24   S    
C18   C19   S    
C1    O1    A    
C7    N1    A    
C2    C23   A    
C11   H8    S    
C3    C5    S    
C13   C27   S    
C13   O6    A    
C7    H3    S    
C20   H19   S    
C8    N2    A    
C25   C26   A    
C18   C22   S    
C4    C19   S    
C3    H26   S    
C12   C21   S    
C15   H4    S    
C17   C21   S    
C22   H12   S    
C12   C16   S    
C16   H9    S    
C10   H7    S    
C17   H11   S    
C1    O2    A    
