data_mof_unit_5903.cif
_audit_creation_date              2012-12-11T14:14:09-0500
_audit_creation_method            fapswitch 2.2
_symmetry_space_group_name_H-M    P1
_symmetry_Int_Tables_number       1
_space_group_crystal_system       triclinic
_cell_length_a                    17.035168
_cell_length_b                    7.229634
_cell_length_c                    17.001752
_cell_angle_alpha                 89.999859
_cell_angle_beta                  99.264662
_cell_angle_gamma                 90.000229
_cell_volume                      2066.58774287

loop_
_atom_site_label
_atom_site_type_symbol
_atom_type_description
_atom_site_fract_x
_atom_site_fract_y
_atom_site_fract_z
_atom_type_partial_charge
O1    O     O_R   0.414560 0.494370 0.416770 -0.547595
O2    O     O_R   0.585440 0.994370 0.583230 -0.547595
O3    O     O_R   0.578370 0.819590 0.429320 -0.542823
O4    O     O_R   0.421630 0.319590 0.570680 -0.542823
C1    C     C_R   0.605306 0.656511 0.414491 0.763822
C2    C     C_R   0.394694 0.156510 0.585509 0.763826
O5    O     O_R   0.414740 0.823790 0.407360 -0.521862
O6    O     O_R   0.585260 0.323790 0.592640 -0.521862
O7    O     O_R   0.420650 0.998510 0.561120 -0.516175
O8    O     O_R   0.579350 0.498510 0.438880 -0.516169
C3    C     C_R   0.390215 0.653752 0.382533 0.687203
C4    C     C_R   0.609785 0.153752 0.617467 0.687204
O9    O     O_3   0.502130 0.662240 0.550470 -0.376393
O10   O     O_3   0.497870 0.162240 0.449530 -0.376390
V1    V     V_3+5 0.499600 0.935390 0.490640 1.500568
V2    V     V_3+5 0.500400 0.435390 0.509360 1.500570
C5    C     C_2   0.769731 0.261494 0.805260 0.303072
C6    C     C_2   0.230268 0.761496 0.194741 0.303062
C7    C     C_2   0.828062 0.127173 0.811752 0.113670
C8    C     C_2   0.171937 0.627173 0.188249 0.113669
C9    C     C_2   0.703422 0.281675 0.734724 0.346636
C10   C     C_2   0.296577 0.781676 0.265277 0.346638
C11   C     C_2   0.669931 0.133613 0.692556 0.057810
C12   C     C_2   0.330069 0.633614 0.307444 0.057808
C13   C     C_R   0.329342 0.157524 0.634270 -0.238651
C14   C     C_R   0.670657 0.657529 0.365729 -0.238660
C15   C     C_R   0.167788 0.110356 0.863356 -0.287421
C16   C     C_R   0.832212 0.610351 0.136644 -0.287421
C17   C     C_R   0.292585 0.981669 0.832920 0.304605
C18   C     C_R   0.707421 0.481639 0.167088 0.304605
C19   C     C_R   0.232976 0.989436 0.882083 0.283056
C20   C     C_R   0.767029 0.489412 0.117923 0.283063
C21   C     C_R   0.159235 0.214754 0.792514 0.392629
C22   C     C_R   0.840760 0.714768 0.207480 0.392615
C23   C     C_R   0.216699 0.200000 0.740062 -0.161066
C24   C     C_R   0.783297 0.700011 0.259933 -0.161067
C25   C     C_R   0.280800 0.072189 0.757959 -0.152345
C26   C     C_R   0.719202 0.572178 0.242043 -0.152350
C27   C     C_R   0.334282 0.045133 0.702240 0.343053
C28   C     C_R   0.665722 0.545121 0.297765 0.343051
C29   C     C_R   0.266261 0.286630 0.617051 0.177526
C30   C     C_R   0.733730 0.786657 0.382939 0.177530
C31   C     C_R   0.211439 0.311056 0.670546 0.403645
C32   C     C_R   0.788549 0.811090 0.329441 0.403634
O11   O     O_R   0.920750 0.773600 0.061260 -0.535504
O12   O     O_R   0.079250 0.273600 0.938740 -0.535505
O13   O     O_R   0.085340 0.439850 0.092570 -0.546385
O14   O     O_R   0.914660 0.939850 0.907430 -0.546387
C33   C     C_R   0.111945 0.609750 0.114813 0.731586
C34   C     C_R   0.888054 0.109750 0.885187 0.731594
O15   O     O_R   0.921720 0.444130 0.070790 -0.530782
O16   O     O_R   0.078280 0.944130 0.929210 -0.530787
O17   O     O_R   0.914480 0.269530 0.916840 -0.532861
O18   O     O_R   0.085520 0.769530 0.083160 -0.532863
C35   C     C_R   0.895429 0.611216 0.085494 0.787783
C36   C     C_R   0.104571 0.111217 0.914506 0.787790
O19   O     O_3   0.997840 0.601520 0.949550 -0.388022
O20   O     O_3   0.002160 0.101520 0.050450 -0.388023
V3    V     V_3+5 0.000400 0.328340 0.009360 1.448127
V4    V     V_3+5 0.999600 0.828340 0.990640 1.448118
O21   O     O_3   0.767666 0.379346 0.869417 -0.559292
C37   C     C_3   0.801316 0.552269 0.854435 -0.033336
H1    H     H_    0.755830 0.646096 0.821994 0.179536
H2    H     H_    0.852697 0.540801 0.821509 0.113202
H3    H     H_    0.823465 0.618770 0.912508 0.147006
O22   O     O_3   0.232332 0.879352 0.130584 -0.559293
C38   C     C_3   0.198682 0.052272 0.145568 -0.033328
H4    H     H_    0.244167 0.146099 0.178010 0.179537
H5    H     H_    0.147300 0.040799 0.178492 0.113196
H6    H     H_    0.176534 0.118775 0.087495 0.147010
O23   O     O_3   0.093622 0.329378 0.774649 -0.523399
C39   C     C_3   0.030480 0.226979 0.731165 -0.106092
H7    H     H_    0.012420 0.109669 0.766586 0.098881
H8    H     H_    0.046003 0.174736 0.674042 0.146935
H9    H     H_    0.978184 0.319403 0.716522 0.148263
O24   O     O_3   0.906367 0.829412 0.225339 -0.523403
C40   C     C_3   0.969513 0.727040 0.268829 -0.106084
H10   H     H_    0.987579 0.609726 0.233416 0.098868
H11   H     H_    0.953992 0.674809 0.325954 0.146939
H12   H     H_    0.021804 0.819479 0.283468 0.148258
O25   O     O_3   0.840896 0.016995 0.748556 -0.642555
H13   H     H_    0.823318 0.085327 0.698282 0.288608
O26   O     O_3   0.159104 0.516994 0.251444 -0.642553
H14   H     H_    0.176682 0.585324 0.301718 0.288610
O27   O     O_3   0.674110 0.458020 0.716130 -0.569786
C41   C     C_3   0.607801 0.488734 0.755091 -0.150790
H15   H     H_    0.625375 0.491408 0.820899 0.169492
H16   H     H_    0.560279 0.383590 0.738638 0.118965
H17   H     H_    0.581706 0.625499 0.736559 0.168715
O28   O     O_3   0.325889 0.958021 0.283871 -0.569786
C42   C     C_3   0.392198 0.988738 0.244909 -0.150789
H18   H     H_    0.374624 0.991413 0.179102 0.169493
H19   H     H_    0.439720 0.883595 0.261362 0.118961
H20   H     H_    0.418293 0.125503 0.263442 0.168717
O29   O     O_3   0.688119 0.959567 0.724858 -0.644610
H21   H     H_    0.666540 0.861885 0.686855 0.329564
O30   O     O_3   0.311880 0.459568 0.275142 -0.644612
H22   H     H_    0.333459 0.361885 0.313145 0.329564
O31   O     O_3   0.392172 0.910094 0.712637 -0.611577
H23   H     H_    0.366458 0.794389 0.726773 0.326103
O32   O     O_3   0.607840 0.410062 0.287376 -0.611574
H24   H     H_    0.633561 0.294363 0.273245 0.326102
O33   O     O_3   0.255858 0.390210 0.547689 -0.647686
H25   H     H_    0.278689 0.322811 0.505969 0.292812
O34   O     O_3   0.744134 0.890244 0.452299 -0.647682
H26   H     H_    0.721311 0.822842 0.494023 0.292817
O35   O     O_3   0.364437 0.894856 0.859130 -0.629370
H27   H     H_    0.370905 0.874529 0.917424 0.326653
O36   O     O_3   0.635574 0.394803 0.140883 -0.629372
H28   H     H_    0.629106 0.374464 0.082589 0.326652
O37   O     O_3   0.152792 0.445279 0.656719 -0.612843
H29   H     H_    0.158469 0.519875 0.609198 0.332735
O38   O     O_3   0.847186 0.945337 0.343259 -0.612847
H30   H     H_    0.841470 0.020021 0.390742 0.332731
O39   O     O_3   0.240308 0.886235 0.951642 -0.543164
C43   C     C_3   0.225042 0.698142 0.931954 -0.098652
H31   H     H_    0.274171 0.635330 0.905332 0.124831
H32   H     H_    0.167755 0.678986 0.890850 0.149759
H33   H     H_    0.220668 0.620860 0.987439 0.144190
O40   O     O_3   0.759701 0.386196 0.048368 -0.543165
C44   C     C_3   0.774975 0.198110 0.068064 -0.098632
H34   H     H_    0.725848 0.135289 0.094685 0.124828
H35   H     H_    0.832261 0.178972 0.109170 0.149775
H36   H     H_    0.779355 0.120824 0.012582 0.144181

loop_
_geom_bond_atom_site_label_1
_geom_bond_atom_site_label_2
_ccdc_geom_bond_type
C18   C20   A    
O11   V4    S    
O32   H24   S    
O12   V3    S    
O29   H21   S    
O1    C3    A    
O2    C4    A    
C2    O7    A    
O30   H22   S    
O17   V3    S    
O13   C33   A    
O18   V4    S    
C40   H10   S    
C15   C21   A    
O5    C3    A    
C4    C11   S    
C8    C33   S    
C31   O37   S    
O26   H14   S    
C23   C25   A    
C41   H16   S    
C2    C13   S    
C33   O18   A    
C3    C12   S    
C43   H31   S    
C18   C26   A    
C44   H36   S    
C37   H2    S    
O16   V4    S    
C5    O21   S    
C28   O32   S    
O37   H29   S    
C43   H32   S    
O35   H27   S    
C23   C31   A    
C6    C8    D    
O14   C34   A    
O22   C38   S    
C16   C22   A    
O6    V2    S    
C29   C31   A    
C30   C32   A    
C20   O40   S    
C39   H9    S    
C19   O39   S    
C16   C35   S    
O14   V4    S    
C40   H11   S    
C9    O27   S    
C34   O17   A    
C18   O36   S    
C15   C19   A    
C12   O30   S    
C16   C20   A    
O24   C40   S    
C39   H8    S    
C13   C29   A    
C42   H18   S    
C15   C36   S    
C5    C7    D    
O19   V4    S    
O20   V3    S    
O27   C41   S    
O25   H13   S    
C38   H4    S    
C38   H5    S    
O4    V2    S    
C37   H1    S    
C42   H19   S    
C27   O31   S    
O31   H23   S    
O6    C4    A    
C10   O28   S    
O1    V2    S    
O2    V1    S    
C44   H34   S    
C41   H15   S    
O4    C2    A    
C32   O38   S    
C9    C11   D    
C10   C12   D    
C24   C32   A    
O15   V3    S    
C17   C25   A    
O3    V1    S    
O40   C44   S    
C14   C30   A    
O38   H30   S    
C40   H12   S    
C37   H3    S    
C6    C10   S    
C39   H7    S    
O3    C1    A    
C41   H17   S    
C8    O26   S    
C6    O22   S    
O34   H26   S    
C43   H33   S    
C38   H6    S    
C24   C26   A    
O7    V1    S    
C1    O8    A    
C25   C27   A    
O8    V2    S    
O36   H28   S    
C13   C27   A    
C42   H20   S    
C26   C28   A    
C7    C34   S    
C14   C28   A    
O28   C42   S    
O16   C36   A    
O5    V1    S    
C21   C23   A    
C22   C24   A    
C11   O29   S    
O15   C35   A    
O21   C37   S    
C30   O34   S    
C5    C9    S    
C44   H35   S    
C21   O23   S    
O13   V3    S    
C1    C14   S    
C29   O33   S    
O23   C39   S    
O11   C35   A    
C17   C19   A    
O9    V2    S    
O12   C36   A    
O33   H25   S    
O10   V1    S    
C17   O35   S    
C7    O25   S    
O39   C43   S    
C22   O24   S    
