data_mof_unit_15595.cif
_audit_creation_date              2012-12-10T20:36:37-0500
_audit_creation_method            fapswitch 2.2
_symmetry_space_group_name_H-M    P1
_symmetry_Int_Tables_number       1
_space_group_crystal_system       triclinic
_cell_length_a                    10.512157
_cell_length_b                    10.673358
_cell_length_c                    9.905088
_cell_angle_alpha                 89.813639
_cell_angle_beta                  90.306048
_cell_angle_gamma                 90.618692
_cell_volume                      1111.26470424

loop_
_atom_site_label
_atom_site_type_symbol
_atom_type_description
_atom_site_fract_x
_atom_site_fract_y
_atom_site_fract_z
_atom_type_partial_charge
C1    C     C_R   0.495823 0.260032 0.500131 0.877184
C2    C     C_3   0.959227 0.601429 0.439720 0.372336
C3    C     C_3   0.039383 0.501718 0.370222 -0.252409
C4    C     C_3   0.122763 0.499850 0.498258 -0.159673
C5    C     C_R   0.468573 0.063222 0.621930 0.120860
C6    C     C_R   0.474915 0.128397 0.500152 -0.106487
C7    C     C_R   0.456767 0.064587 0.377826 -0.180861
C8    C     C_R   0.456642 0.935169 0.377641 -0.197863
C9    C     C_R   0.475245 0.871066 0.499789 -0.091148
C10   C     C_R   0.468925 0.935338 0.621742 0.162810
C11   C     C_3   0.552723 0.928913 0.744014 -0.461813
C12   C     C_R   0.257548 0.500060 0.499496 0.944466
C13   C     C_3   0.552222 0.070983 0.744254 -0.464815
C14   C     C_R   0.438976 0.406718 0.071260 0.057782
C15   C     C_R   0.569882 0.586192 0.069658 0.437161
C16   C     C_R   0.568505 0.585716 0.926765 -0.108315
C17   C     C_R   0.438635 0.407080 0.928775 0.106358
C18   C     C_3   0.300268 0.375695 0.920428 -0.544516
C19   C     C_3   0.299662 0.376603 0.074224 0.272112
C20   C     C_R   0.496088 0.739893 0.499828 0.911264
C21   C     C_R   0.742419 0.499995 0.500587 0.942832
C22   C     C_3   0.042080 0.395261 0.562408 -0.223372
C23   C     C_3   0.956020 0.397223 0.434865 -0.160783
C24   C     C_3   0.877177 0.499244 0.502301 -0.097107
C25   C     C_3   0.960610 0.497327 0.630250 -0.274697
C26   C     C_3   0.043366 0.600568 0.565190 0.604957
H1    H     H_    0.915658 0.313873 0.382532 0.171436
H2    H     H_    0.647732 0.889008 0.722245 0.215754
H3    H     H_    0.501871 0.110979 0.832381 0.204974
H4    H     H_    0.646956 0.113733 0.722682 0.213177
H5    H     H_    0.622423 0.655857 0.871639 0.169773
H6    H     H_    0.243507 0.452638 0.875240 0.212200
H7    H     H_    0.282810 0.282054 0.874651 0.206988
H8    H     H_    0.241978 0.452702 0.118083 0.142413
H9    H     H_    0.081163 0.310559 0.612267 0.173827
H10   H     H_    0.925364 0.496002 0.735717 0.182189
H11   H     H_    0.073032 0.505745 0.264424 0.174195
H12   H     H_    0.452520 0.113509 0.282083 0.187431
H13   H     H_    0.451645 0.886674 0.281803 0.191858
H14   H     H_    0.502777 0.886806 0.832099 0.217649
N1    N     N_R   0.499140 0.499140 0.142800 -0.184392
N2    N     N_R   0.499140 0.499180 0.857150 -0.130408
O1    O     O_R   0.500020 0.316790 0.614690 -0.619866
O2    O     O_R   0.500000 0.316760 0.385350 -0.607952
O3    O     O_R   0.313960 0.499990 0.614650 -0.601659
O4    O     O_R   0.313940 0.499950 0.385310 -0.625887
O5    O     O_R   0.500000 0.683240 0.614650 -0.617968
O6    O     O_R   0.499980 0.683210 0.385310 -0.636215
O7    O     O_R   0.686060 0.500050 0.614690 -0.631530
O8    O     O_R   0.686040 0.500010 0.385350 -0.629385
Zn1   Zn    Zn3+2 0.500010 0.500020 0.653130 0.964725
Zn2   Zn    Zn3+2 0.499990 0.499980 0.346870 0.972100
O9    O     O_3   0.642192 0.678275 0.130272 -0.755829
H15   H     H_    0.656853 0.654150 0.224478 0.405145
O10   O     O_3   0.272543 0.258808 0.132229 -0.731539
H16   H     H_    0.328547 0.195581 0.090333 0.331079
F1    F     F_    0.092501 0.705420 0.629394 -0.659992
O11   O     O_3   0.910351 0.708650 0.377846 -0.740270
H17   H     H_    0.985642 0.756212 0.345103 0.349716

loop_
_geom_bond_atom_site_label_1
_geom_bond_atom_site_label_2
_ccdc_geom_bond_type
C4    C26   S    
C23   C24   S    
C2    O11   S    
C6    C7    A    
C8    H13   S    
C23   H1    S    
C4    C12   S    
C4    C22   S    
C9    C10   A    
N1    Zn2   S    
C5    C13   S    
O6    Zn2   S    
N2    Zn1   S    
O10   H16   S    
O2    Zn2   S    
C21   O7    A    
C17   C18   S    
O11   H17   S    
C7    C8    A    
C2    C26   S    
O9    H15   S    
C16   H5    S    
C22   H9    S    
C11   C13   S    
C14   C17   A    
O1    Zn1   S    
C20   O6    A    
C11   H2    S    
C14   N1    A    
C5    C6    A    
C15   O9    S    
C13   H3    S    
C21   O8    A    
C26   F1    S    
C7    H12   S    
C2    C3    S    
C2    C24   S    
C11   H14   S    
C18   H7    S    
C20   O5    A    
C18   H6    S    
C10   C11   S    
O3    Zn1   S    
C25   H10   S    
C9    C20   S    
C1    C6    S    
C22   C25   S    
O4    Zn2   S    
C13   H4    S    
C5    C10   A    
C24   C25   S    
C15   N1    A    
C12   O4    A    
C18   C19   S    
C21   C24   S    
C19   O10   S    
O8    Zn2   S    
C17   N2    A    
C12   O3    A    
O5    Zn1   S    
C1    O2    A    
C25   C26   S    
C22   C23   S    
C16   N2    A    
C3    C23   S    
C14   C19   S    
C1    O1    A    
C3    C4    S    
C15   C16   A    
C3    H11   S    
C8    C9    A    
O7    Zn1   S    
C19   H8    S    
