data_mof_unit_44677.cif
_audit_creation_date              2013-03-05T15:56:51-0500
_audit_creation_method            fapswitch 2.2
_symmetry_space_group_name_H-M    P1
_symmetry_Int_Tables_number       1
_space_group_crystal_system       triclinic
_cell_length_a                    21.439295
_cell_length_b                    21.096226
_cell_length_c                    13.879317
_cell_angle_alpha                 89.999722
_cell_angle_beta                  90.000316
_cell_angle_gamma                 89.997386
_cell_volume                      6277.45147135

loop_
_atom_site_label
_atom_site_type_symbol
_atom_site_description
_atom_site_fract_x
_atom_site_fract_y
_atom_site_fract_z
_atom_type_partial_charge
O1    O     O_R   0.064880 0.435140 0.582280 -0.556805
O2    O     O_R   0.935120 0.564860 0.417720 -0.591709
O3    O     O_R   0.935120 0.564860 0.582280 -0.556811
O4    O     O_R   0.064880 0.435140 0.417720 -0.591709
O5    O     O_R   0.935120 0.435140 0.417720 -0.555720
O6    O     O_R   0.064880 0.564860 0.582280 -0.509937
O7    O     O_R   0.064880 0.564860 0.417720 -0.555720
O8    O     O_R   0.935120 0.435140 0.582280 -0.509933
O9    O     O_R   0.564880 0.935140 0.582280 -0.555943
O10   O     O_R   0.435120 0.064860 0.417720 -0.516095
O11   O     O_R   0.435120 0.064860 0.582280 -0.555958
O12   O     O_R   0.564880 0.935140 0.417720 -0.516107
O13   O     O_R   0.435120 0.935140 0.417720 -0.559959
O14   O     O_R   0.564880 0.064860 0.582280 -0.591756
O15   O     O_R   0.564880 0.064860 0.417720 -0.559952
O16   O     O_R   0.435120 0.935140 0.582280 -0.591740
C1    C     C_R   0.084677 0.413586 0.500161 0.834013
C2    C     C_R   0.915324 0.586414 0.500160 0.834018
C3    C     C_R   0.913413 0.415766 0.499918 0.852024
C4    C     C_R   0.086587 0.584234 0.499918 0.852026
C5    C     C_R   0.584756 0.914033 0.500084 0.857579
C6    C     C_R   0.415243 0.085966 0.500083 0.857525
C7    C     C_R   0.416235 0.912842 0.499805 0.836376
C8    C     C_R   0.583765 0.087158 0.499804 0.836344
Cu1   Cu    Cu3+1 0.000000 0.500000 0.597420 1.044528
Cu2   Cu    Cu3+1 0.000000 0.500000 0.402580 0.986780
Cu3   Cu    Cu3+1 0.500000 0.000000 0.597420 0.987446
Cu4   Cu    Cu3+1 0.500000 0.000000 0.402580 1.038621
C9    C     C_R   0.126362 0.689116 0.547805 0.521361
C10   C     C_R   0.873637 0.310885 0.547810 0.521364
C11   C     C_R   0.876622 0.692456 0.551821 0.459528
C12   C     C_R   0.123380 0.307545 0.551827 0.459529
C13   C     C_R   0.624230 0.189987 0.437363 0.452641
C14   C     C_R   0.375773 0.810010 0.437373 0.452635
C15   C     C_R   0.380512 0.194996 0.463126 0.469428
C16   C     C_R   0.619486 0.805001 0.463137 0.469433
C17   C     C_R   0.135854 0.631517 0.500136 -0.194292
C18   C     C_R   0.864146 0.368483 0.500135 -0.194297
C19   C     C_R   0.867697 0.635710 0.500446 -0.189226
C20   C     C_R   0.132304 0.364290 0.500448 -0.189228
C21   C     C_R   0.630095 0.137529 0.499282 -0.199878
C22   C     C_R   0.369905 0.862471 0.499283 -0.199875
C23   C     C_R   0.367716 0.134668 0.500435 -0.182638
C24   C     C_R   0.632283 0.865331 0.500437 -0.182634
C25   C     C_R   0.190985 0.620241 0.449887 -0.266825
C26   C     C_R   0.809016 0.379758 0.449880 -0.266823
C27   C     C_R   0.812589 0.624791 0.449914 -0.277863
C28   C     C_R   0.187410 0.375209 0.449914 -0.277858
C29   C     C_R   0.680663 0.132077 0.561385 -0.274799
C30   C     C_R   0.319334 0.867926 0.561379 -0.274811
C31   C     C_R   0.310140 0.120914 0.541129 -0.257556
C32   C     C_R   0.689861 0.879086 0.541124 -0.257568
C33   C     C_R   0.237887 0.666358 0.447637 -0.011579
C34   C     C_R   0.762115 0.333641 0.447630 -0.011578
C35   C     C_R   0.764444 0.669367 0.451572 -0.013105
C36   C     C_R   0.235555 0.330633 0.451572 -0.013103
C37   C     C_R   0.728967 0.176211 0.559041 -0.013392
C38   C     C_R   0.271031 0.823791 0.559036 -0.013387
C39   C     C_R   0.263107 0.166516 0.542121 -0.016617
C40   C     C_R   0.736894 0.833484 0.542118 -0.016616
C41   C     C_R   0.230783 0.722351 0.502700 -0.123945
C42   C     C_R   0.769216 0.277649 0.502698 -0.123944
C43   C     C_R   0.774428 0.728429 0.497186 -0.112973
C44   C     C_R   0.225573 0.271571 0.497187 -0.112970
C45   C     C_R   0.722221 0.231198 0.501529 -0.111383
C46   C     C_R   0.277778 0.768803 0.501531 -0.111383
C47   C     C_R   0.273338 0.225797 0.497246 -0.117818
C48   C     C_R   0.726662 0.774203 0.497245 -0.117805
C49   C     C_R   0.175856 0.732412 0.557177 -0.130096
C50   C     C_R   0.824142 0.267590 0.557181 -0.130099
C51   C     C_R   0.832271 0.741777 0.542509 -0.133480
C52   C     C_R   0.167731 0.258223 0.542514 -0.133478
C53   C     C_R   0.668192 0.239934 0.443753 -0.129298
C54   C     C_R   0.331810 0.760064 0.443763 -0.129300
C55   C     C_R   0.331903 0.239772 0.454885 -0.136673
C56   C     C_R   0.668096 0.760227 0.454889 -0.136696
C57   C     C_R   0.291790 0.657088 0.391876 0.363336
C58   C     C_R   0.708214 0.342909 0.391861 0.363333
C59   C     C_R   0.706698 0.655840 0.407876 0.381122
C60   C     C_R   0.293301 0.344160 0.407875 0.381098
C61   C     C_R   0.783026 0.166945 0.615391 0.390724
C62   C     C_R   0.216970 0.833059 0.615381 0.390726
C63   C     C_R   0.205461 0.152897 0.584971 0.376934
C64   C     C_R   0.794541 0.847103 0.584965 0.376933
C65   C     C_R   0.830015 0.213469 0.616319 0.406247
C66   C     C_R   0.169982 0.786534 0.616310 0.406244
C67   C     C_R   0.156004 0.196144 0.576507 0.401075
C68   C     C_R   0.843998 0.803857 0.576501 0.401079
C69   C     C_R   0.340510 0.701743 0.394987 0.387378
C70   C     C_R   0.659493 0.298254 0.394972 0.387378
C71   C     C_R   0.659381 0.701802 0.406702 0.384293
C72   C     C_R   0.340617 0.298198 0.406699 0.384344
H1    H     H_    0.196384 0.575932 0.411151 0.219141
H2    H     H_    0.803618 0.424065 0.411140 0.219149
H3    H     H_    0.806668 0.580064 0.412471 0.203579
H4    H     H_    0.193330 0.419935 0.412469 0.203581
H5    H     H_    0.682532 0.091980 0.609961 0.201655
H6    H     H_    0.317463 0.908026 0.609950 0.201654
H7    H     H_    0.302447 0.074329 0.572018 0.203068
H8    H     H_    0.697556 0.925673 0.572009 0.203061
C73   C     C_R   0.054111 0.512890 0.793305 0.569739
C74   C     C_R   0.950138 0.475750 0.204314 0.570691
C75   C     C_R   0.945889 0.487110 0.793305 0.569746
C76   C     C_R   0.049862 0.524250 0.204314 0.570690
C77   C     C_R   0.550240 0.976495 0.795605 0.568175
C78   C     C_R   0.445383 0.010892 0.207005 0.569559
C79   C     C_R   0.449760 0.023505 0.795604 0.568177
C80   C     C_R   0.554618 0.989110 0.207006 0.569508
N1    N     N_R   0.000000 0.500000 0.743810 -0.280026
N2    N     N_R   0.000000 0.500000 0.256190 -0.281647
N3    N     N_R   0.500000 1.000000 0.743810 -0.280400
N4    N     N_R   0.500000 1.000000 0.256190 -0.282059
C81   C     C_R   0.945995 0.482177 0.895892 -0.235390
C82   C     C_R   0.053229 0.518369 0.101810 -0.229587
C83   C     C_R   0.054005 0.517824 0.895892 -0.235391
C84   C     C_R   0.946771 0.481631 0.101810 -0.229586
C85   C     C_R   0.446497 0.017717 0.898179 -0.230456
C86   C     C_R   0.554382 0.983399 0.104273 -0.239490
C87   C     C_R   0.553503 0.982283 0.898180 -0.230451
C88   C     C_R   0.445618 0.016602 0.104272 -0.239479
C89   C     C_R   1.000000 0.500000 0.947267 -0.123611
C90   C     C_R   1.000000 0.500000 0.050233 -0.127300
C91   C     C_R   0.500000 1.000000 0.949789 -0.124525
C92   C     C_R   0.500000 0.000000 0.052845 -0.128622
C93   C     C_R   0.893285 0.461218 0.948683 0.394015
C94   C     C_R   0.108111 0.533311 0.049665 0.412993
C95   C     C_R   0.106715 0.538783 0.948684 0.394017
C96   C     C_R   0.891888 0.466689 0.049664 0.412994
C97   C     C_R   0.391506 0.032225 0.950423 0.403678
C98   C     C_R   0.607180 0.962696 0.051403 0.415523
C99   C     C_R   0.608495 0.967774 0.950424 0.403670
C100  C     C_R   0.392821 0.037304 0.051402 0.415547
O17   O     O_3   0.066294 0.707496 0.570467 -0.516875
C101  C     C_3   0.039482 0.733481 0.485953 -0.280975
H9    H     H_    0.071494 0.766257 0.446765 0.096492
H10   H     H_    0.998602 0.762092 0.506087 0.242357
H11   H     H_    0.023315 0.695229 0.436922 0.144705
O18   O     O_3   0.933704 0.292507 0.570479 -0.516876
C102  C     C_3   0.960519 0.266519 0.485969 -0.280973
H12   H     H_    0.928508 0.233741 0.446782 0.096492
H13   H     H_    0.001398 0.237910 0.506109 0.242364
H14   H     H_    0.976686 0.304770 0.436935 0.144701
O19   O     O_3   0.929633 0.699062 0.608148 -0.534841
C103  C     C_3   0.913931 0.700598 0.707204 -0.194264
H15   H     H_    0.945858 0.668242 0.746421 0.164516
H16   H     H_    0.864983 0.686355 0.723954 0.077875
H17   H     H_    0.922088 0.748754 0.736532 0.191945
O20   O     O_3   0.070372 0.300940 0.608160 -0.534842
C104  C     C_3   0.086080 0.299402 0.707215 -0.194287
H18   H     H_    0.054150 0.331751 0.746438 0.164519
H19   H     H_    0.135026 0.313653 0.723959 0.077881
H20   H     H_    0.077932 0.251243 0.736540 0.191944
O21   O     O_3   0.572225 0.194477 0.378353 -0.517971
C105  C     C_3   0.588188 0.180592 0.281723 -0.169619
H21   H     H_    0.639290 0.178941 0.266505 0.084409
H22   H     H_    0.567443 0.217295 0.234305 0.190805
H23   H     H_    0.566725 0.134807 0.260954 0.154636
O22   O     O_3   0.427783 0.805514 0.378376 -0.517975
C106  C     C_3   0.411831 0.819406 0.281744 -0.169575
H24   H     H_    0.360730 0.821080 0.266519 0.084396
H25   H     H_    0.432562 0.782693 0.234329 0.190790
H26   H     H_    0.433315 0.865181 0.260978 0.154680
O23   O     O_3   0.441443 0.211221 0.441762 -0.512893
C107  C     C_3   0.468380 0.236537 0.526394 -0.221653
H27   H     H_    0.473191 0.199583 0.582990 0.110057
H28   H     H_    0.441415 0.277686 0.554543 0.125982
H29   H     H_    0.515708 0.254050 0.509879 0.211216
O24   O     O_3   0.558552 0.788775 0.441794 -0.512889
C108  C     C_3   0.531643 0.763423 0.526424 -0.221676
H30   H     H_    0.526925 0.800336 0.583120 0.109934
H31   H     H_    0.558582 0.722205 0.554434 0.126142
H32   H     H_    0.484273 0.745992 0.509951 0.211191
O25   O     O_3   0.298136 0.603095 0.336208 -0.603524
C109  C     C_3   0.283889 0.618614 0.239839 -0.245576
H33   H     H_    0.311464 0.659705 0.212979 0.161042
H34   H     H_    0.233170 0.628107 0.231490 0.188497
H35   H     H_    0.296151 0.577692 0.193648 0.195733
O26   O     O_3   0.701871 0.396898 0.336185 -0.603524
C110  C     C_3   0.716119 0.381374 0.239819 -0.245573
H36   H     H_    0.688542 0.340283 0.212963 0.161039
H37   H     H_    0.766838 0.371877 0.231475 0.188491
H38   H     H_    0.703861 0.422294 0.193622 0.195739
O27   O     O_3   0.697121 0.598626 0.361400 -0.573387
C111  C     C_3   0.667718 0.556719 0.426238 -0.289571
H39   H     H_    0.621803 0.575336 0.450771 0.166089
H40   H     H_    0.698153 0.546434 0.489316 0.144380
H41   H     H_    0.658846 0.511309 0.388541 0.224768
O28   O     O_3   0.302878 0.401375 0.361401 -0.573398
C112  C     C_3   0.332282 0.443280 0.426240 -0.289555
H42   H     H_    0.378196 0.424660 0.450777 0.166095
H43   H     H_    0.301847 0.453567 0.489315 0.144386
H44   H     H_    0.341159 0.488689 0.388542 0.224777
O29   O     O_3   0.789111 0.114225 0.674205 -0.581359
C113  C     C_3   0.809722 0.061944 0.618594 -0.325833
H45   H     H_    0.838839 0.075236 0.555132 0.120388
H46   H     H_    0.769543 0.033182 0.593775 0.197916
H47   H     H_    0.838850 0.031140 0.665069 0.208555
O30   O     O_3   0.210883 0.885781 0.674191 -0.581356
C114  C     C_3   0.190271 0.938060 0.618573 -0.325834
H48   H     H_    0.161149 0.924764 0.555118 0.120381
H49   H     H_    0.230450 0.966818 0.593744 0.197909
H50   H     H_    0.161147 0.968867 0.665048 0.208569
O31   O     O_3   0.195921 0.095570 0.630983 -0.607002
C115  C     C_3   0.202182 0.105360 0.731019 -0.298798
H51   H     H_    0.169099 0.141932 0.758165 0.165772
H52   H     H_    0.250991 0.118416 0.749830 0.190188
H53   H     H_    0.190852 0.060524 0.768641 0.183407
O32   O     O_3   0.804082 0.904430 0.630977 -0.607000
C116  C     C_3   0.797820 0.894640 0.731013 -0.298806
H54   H     H_    0.830903 0.858068 0.758160 0.165775
H55   H     H_    0.749010 0.881583 0.749823 0.190185
H56   H     H_    0.809149 0.939476 0.768636 0.183403
O33   O     O_3   0.876719 0.211660 0.685570 -0.539680
C117  C     C_3   0.920115 0.163141 0.665278 -0.161759
H57   H     H_    0.921842 0.149282 0.587856 0.096132
H58   H     H_    0.910185 0.121139 0.710768 0.167953
H59   H     H_    0.967283 0.180314 0.685257 0.212033
O34   O     O_3   0.123278 0.788343 0.685561 -0.539683
C118  C     C_3   0.079880 0.836861 0.665265 -0.161755
H60   H     H_    0.078152 0.850717 0.587841 0.096136
H61   H     H_    0.089811 0.878865 0.710750 0.167953
H62   H     H_    0.032713 0.819688 0.685247 0.212035
O35   O     O_3   0.096179 0.177045 0.600292 -0.558639
C119  C     C_3   0.074557 0.134707 0.528711 -0.329709
H63   H     H_    0.100043 0.088895 0.530406 0.201338
H64   H     H_    0.077464 0.156049 0.455421 0.134841
H65   H     H_    0.024978 0.123644 0.542952 0.153377
O36   O     O_3   0.903823 0.822956 0.600284 -0.558634
C120  C     C_3   0.925443 0.865294 0.528702 -0.329705
H66   H     H_    0.899957 0.911106 0.530397 0.201338
H67   H     H_    0.922534 0.843953 0.455412 0.134839
H68   H     H_    0.975022 0.876358 0.542940 0.153375
O37   O     O_3   0.395826 0.689045 0.347175 -0.550317
C121  C     C_3   0.429654 0.642491 0.398353 -0.220271
H69   H     H_    0.412231 0.594303 0.380901 0.176868
H70   H     H_    0.428609 0.650058 0.477822 0.107353
H71   H     H_    0.479133 0.644761 0.375324 0.219175
O38   O     O_3   0.604178 0.310949 0.347154 -0.550322
C122  C     C_3   0.570354 0.357516 0.398309 -0.220334
H72   H     H_    0.587774 0.405699 0.380820 0.176909
H73   H     H_    0.571408 0.349972 0.477782 0.107356
H74   H     H_    0.520873 0.355239 0.375292 0.219168
O39   O     O_3   0.603906 0.687941 0.360402 -0.542746
C123  C     C_3   0.608523 0.708382 0.263943 -0.214864
H75   H     H_    0.645597 0.682016 0.224641 0.152281
H76   H     H_    0.617125 0.760333 0.259423 0.146283
H77   H     H_    0.563540 0.698662 0.227317 0.178431
O40   O     O_3   0.396092 0.312060 0.360400 -0.542727
C124  C     C_3   0.391472 0.291628 0.263937 -0.214870
H78   H     H_    0.354400 0.318001 0.224641 0.152289
H79   H     H_    0.382864 0.239678 0.259407 0.146281
H80   H     H_    0.436456 0.301347 0.227312 0.178432
O41   O     O_3   0.108587 0.522259 0.741922 -0.516018
C125  C     C_3   0.145561 0.466851 0.746376 -0.219075
H81   H     H_    0.178272 0.466974 0.684427 0.164921
H82   H     H_    0.117585 0.422842 0.742084 0.124615
H83   H     H_    0.173853 0.465370 0.813156 0.171040
O42   O     O_3   0.903279 0.443189 0.250826 -0.515342
C126  C     C_3   0.914041 0.377395 0.238269 -0.246684
H84   H     H_    0.879143 0.350668 0.280903 0.169462
H85   H     H_    0.961090 0.363279 0.264783 0.133966
H86   H     H_    0.908458 0.362571 0.161934 0.140923
O43   O     O_3   0.891413 0.477743 0.741920 -0.516017
C127  C     C_3   0.854438 0.533151 0.746375 -0.219075
H87   H     H_    0.821728 0.533029 0.684424 0.164920
H88   H     H_    0.882415 0.577160 0.742084 0.124605
H89   H     H_    0.826146 0.534630 0.813154 0.171042
O44   O     O_3   0.096721 0.556809 0.250827 -0.515344
C128  C     C_3   0.085962 0.622604 0.238269 -0.246681
H90   H     H_    0.120860 0.649329 0.280903 0.169463
H91   H     H_    0.038913 0.636721 0.264782 0.133964
H92   H     H_    0.091544 0.637428 0.161933 0.140926
O45   O     O_3   0.597855 0.945281 0.748733 -0.516737
C129  C     C_3   0.589083 0.879171 0.761330 -0.234061
H93   H     H_    0.625082 0.853595 0.719195 0.171058
H94   H     H_    0.542566 0.863635 0.734529 0.129677
H95   H     H_    0.594636 0.864426 0.837684 0.142447
O46   O     O_3   0.391044 0.020097 0.259302 -0.520383
C130  C     C_3   0.348338 0.969697 0.244478 -0.216520
H96   H     H_    0.301162 0.989952 0.232996 0.197698
H97   H     H_    0.345050 0.940339 0.310291 0.154679
H98   H     H_    0.359021 0.938388 0.181854 0.094073
O47   O     O_3   0.402145 0.054720 0.748731 -0.516737
C131  C     C_3   0.410917 0.120830 0.761326 -0.234055
H99   H     H_    0.374913 0.146405 0.719200 0.171062
H100  H     H_    0.457431 0.136366 0.734514 0.129677
H101  H     H_    0.405372 0.135574 0.837681 0.142435
O48   O     O_3   0.608956 0.979896 0.259306 -0.520383
C132  C     C_3   0.651673 0.030285 0.244479 -0.216527
H102  H     H_    0.698863 0.010017 0.233149 0.197654
H103  H     H_    0.654896 0.059706 0.310238 0.154639
H104  H     H_    0.641048 0.061538 0.181758 0.094223
O49   O     O_3   0.841511 0.436412 0.902829 -0.554500
C133  C     C_3   0.849746 0.370352 0.893988 -0.191337
H105  H     H_    0.852736 0.347215 0.965943 0.134099
H106  H     H_    0.891731 0.358762 0.850140 0.169436
H107  H     H_    0.808643 0.350322 0.856180 0.187635
O50   O     O_3   0.164243 0.543003 0.096455 -0.551453
C134  C     C_3   0.193004 0.483363 0.108852 -0.229322
H108  H     H_    0.203735 0.460933 0.038143 0.138058
H109  H     H_    0.163810 0.451066 0.153506 0.155201
H110  H     H_    0.237724 0.489917 0.147452 0.189122
O51   O     O_3   0.158488 0.563589 0.902831 -0.554498
C135  C     C_3   0.150254 0.629648 0.893988 -0.191337
H111  H     H_    0.147264 0.652786 0.965942 0.134098
H112  H     H_    0.108269 0.641238 0.850139 0.169432
H113  H     H_    0.191356 0.649679 0.856181 0.187634
O52   O     O_3   0.835757 0.456997 0.096454 -0.551454
C136  C     C_3   0.806996 0.516636 0.108849 -0.229319
H114  H     H_    0.796263 0.539066 0.038140 0.138058
H115  H     H_    0.836190 0.548934 0.153502 0.155198
H116  H     H_    0.762276 0.510082 0.147451 0.189128
O53   O     O_3   0.335558 0.043202 0.903716 -0.551966
C137  C     C_3   0.305287 0.984393 0.891328 -0.208083
H117  H     H_    0.295193 0.961473 0.961909 0.140593
H118  H     H_    0.333071 0.951965 0.844803 0.160619
H119  H     H_    0.260068 0.992556 0.854817 0.183437
O54   O     O_3   0.659087 0.938117 0.097071 -0.547450
C138  C     C_3   0.650473 0.872233 0.107924 -0.256573
H120  H     H_    0.647313 0.848216 0.036665 0.142991
H121  H     H_    0.608422 0.861441 0.152073 0.153256
H122  H     H_    0.691461 0.852437 0.146312 0.176640
O55   O     O_3   0.664442 0.956798 0.903719 -0.551969
C139  C     C_3   0.694713 0.015606 0.891330 -0.208075
H123  H     H_    0.704807 0.038527 0.961910 0.140593
H124  H     H_    0.666930 0.048034 0.844802 0.160619
H125  H     H_    0.739933 0.007443 0.854821 0.183435
O56   O     O_3   0.340917 0.061889 0.097068 -0.547473
C140  C     C_3   0.349536 0.127772 0.107919 -0.256595
H126  H     H_    0.352699 0.151788 0.036659 0.142992
H127  H     H_    0.391587 0.138560 0.152070 0.153267
H128  H     H_    0.308548 0.147571 0.146304 0.176645

loop_
_geom_bond_atom_site_label_1
_geom_bond_atom_site_label_2
_geom_bond_distance
_ccdc_geom_bond_type
C9    O17   1.381193 S    
C94   C95   1.406608 A    
C10   O18   1.381194 S    
C140  H127  1.113598 S    
C113  H46   1.108567 S    
O35   C119  1.414114 S    
C14   C22   1.406775 A    
C57   C69   1.407292 A    
C131  H99   1.108486 S    
C62   O30   1.385766 S    
C38   C62   1.411781 A    
C102  H14   1.111075 S    
O6    Cu1   1.962499 S    
O19   C103  1.415823 S    
C16   O24   1.382608 S    
C123  H75   1.112957 S    
C10   C18   1.398450 A    
C129  H93   1.108486 S    
C125  H82   1.106946 S    
C135  H113  1.109273 S    
C139  H123  1.113679 S    
C106  H25   1.109262 S    
C78   O46   1.386281 S    
C114  H48   1.115415 S    
C8    C21   1.454628 S    
C121  H70   1.114693 S    
C21   C29   1.389805 A    
O36   C120  1.414115 S    
C9    C49   1.406147 A    
C70   O38   1.385121 S    
O55   C139  1.410686 S    
C137  H117  1.113679 S    
C15   O23   1.382606 S    
C121  H71   1.108948 S    
C67   O35   1.384351 S    
C60   C72   1.403367 A    
C73   O41   1.382668 S    
O27   C111  1.410268 S    
C120  H66   1.110456 S    
O51   C135  1.410081 S    
O11   Cu3   1.962410 S    
O2    Cu2   1.962413 S    
C86   C92   1.411187 A    
C109  H35   1.106982 S    
C105  H21   1.116301 S    
C12   O20   1.386468 S    
C13   C53   1.416533 A    
O24   C108  1.413716 S    
C43   C51   1.418778 A    
C128  H91   1.114249 S    
O22   C106  1.414777 S    
C73   C83   1.427642 A    
C16   C24   1.401134 A    
O50   C134  1.411638 S    
C17   C25   1.392854 A    
C19   C27   1.393139 A    
C20   C28   1.393141 A    
C28   H4    1.084678 S    
C131  H101  1.110840 S    
C64   C68   1.403687 A    
C103  H15   1.109351 S    
C126  H85   1.114249 S    
C102  H12   1.115805 S    
C87   C91   1.403034 A    
C123  H77   1.109305 S    
C98   C99   1.405889 A    
C76   N2    1.386693 A    
O9    C5    1.296666 A    
C139  H125  1.107394 S    
C130  H97   1.105854 S    
C11   O19   1.386464 S    
C29   H5    1.082444 S    
C51   C68   1.414559 A    
C113  H47   1.108291 S    
O29   C113  1.416847 S    
C73   N1    1.375392 A    
C138  H121  1.113598 S    
C83   C89   1.410830 A    
C25   H1    1.084518 S    
C116  H56   1.107415 S    
O26   C110  1.410487 S    
C72   O40   1.383113 S    
C91   C92   1.430351 A    
C42   C50   1.415443 A    
C124  H78   1.112957 S    
O7    Cu2   1.962498 S    
C53   C70   1.416630 A    
C120  H68   1.106060 S    
C104  H19   1.116067 S    
O41   C125  1.413671 S    
C82   C94   1.416938 A    
C117  H58   1.108659 S    
C46   C54   1.420818 A    
C29   C37   1.393015 A    
C111  H39   1.113196 S    
O13   C7    1.297380 A    
C66   O34   1.388477 S    
C69   O37   1.385116 S    
C112  H43   1.113213 S    
C109  H33   1.113550 S    
C32   C40   1.393697 A    
C39   C47   1.414237 A    
C33   C41   1.415122 A    
C127  H87   1.109556 S    
C35   C43   1.413905 A    
C114  H50   1.108293 S    
C87   C99   1.417543 A    
C36   C44   1.413904 A    
C15   C23   1.401139 A    
O37   C121  1.412433 S    
C59   C71   1.403367 A    
Cu1   N1    2.031793 S    
C24   C32   1.388138 A    
O16   Cu3   1.962501 S    
C135  H112  1.113719 S    
C25   C33   1.399529 A    
C108  H31   1.113907 S    
C103  H17   1.108324 S    
C116  H54   1.113659 S    
C136  H115  1.113616 S    
C30   H6    1.082444 S    
O8    C3    1.300154 A    
C125  H83   1.108126 S    
Cu1   Cu2   2.704245 S    
C61   O29   1.385767 S    
C32   H8    1.084844 S    
C74   O42   1.377658 S    
O49   C133  1.410082 S    
C80   O48   1.386285 S    
C5    C24   1.446996 S    
C64   O32   1.382862 S    
C6    C23   1.446991 S    
C26   H2    1.084518 S    
C132  H102  1.109546 S    
C60   O28   1.383874 S    
C122  H73   1.114687 S    
C22   C30   1.389805 A    
O15   C8    1.297378 A    
O16   C7    1.302143 A    
C138  H120  1.113334 S    
C47   C55   1.417435 A    
C52   C67   1.414558 A    
C43   C48   1.407516 A    
C124  H80   1.109305 S    
C79   N3    1.386650 A    
C71   O39   1.383114 S    
O56   C140  1.410186 S    
C101  H9    1.115805 S    
C97   O53   1.382955 S    
C48   C56   1.417434 A    
O1    C1    1.298437 A    
C36   C60   1.407828 A    
C111  H41   1.108013 S    
C77   O45   1.378006 S    
C97   C100  1.405889 A    
C131  H100  1.113727 S    
O42   C126  1.417802 S    
C118  H62   1.109402 S    
C4    C17   1.452838 S    
C102  H13   1.100215 S    
C68   O36   1.384350 S    
C58   C70   1.407298 A    
C127  H89   1.108125 S    
C108  H32   1.104042 S    
C59   O27   1.383874 S    
C129  H94   1.113728 S    
C134  H110  1.106970 S    
C18   C26   1.392853 A    
C56   C71   1.414716 A    
O15   Cu4   1.962498 S    
C100  O56   1.381649 S    
C81   C89   1.410832 A    
C115  H51   1.113659 S    
C139  H124  1.113444 S    
O47   C131  1.418120 S    
O46   C130  1.418172 S    
C14   C54   1.416527 A    
C50   C65   1.411773 A    
C61   C65   1.406562 A    
C63   C67   1.403688 A    
C129  H95   1.110841 S    
C122  H72   1.109814 S    
C119  H63   1.110456 S    
C101  H11   1.111076 S    
O43   C127  1.413672 S    
C12   C52   1.415399 A    
O33   C117  1.411578 S    
O10   C6    1.298699 A    
C84   C90   1.401773 A    
O12   Cu4   1.962410 S    
C96   O52   1.382677 S    
C107  H27   1.111490 S    
C39   C63   1.401324 A    
Cu4   N4    2.031793 S    
C133  H105  1.113434 S    
C137  H118  1.113445 S    
O39   C123  1.409999 S    
C132  H104  1.115514 S    
C140  H126  1.113333 S    
O32   C116  1.410114 S    
C130  H96   1.109466 S    
O13   Cu4   1.962502 S    
O14   Cu3   1.962499 S    
C105  H22   1.109262 S    
C110  H38   1.106983 S    
C137  H119  1.107392 S    
C113  H45   1.115413 S    
C77   N3    1.386648 A    
C128  H90   1.108090 S    
O8    Cu1   1.962501 S    
C10   C50   1.406148 A    
C30   C38   1.393016 A    
O3    Cu1   1.962410 S    
C133  H107  1.109272 S    
C63   O31   1.382863 S    
C118  H60   1.114250 S    
C34   C42   1.415121 A    
O25   C109  1.410486 S    
C80   N4    1.374746 A    
C1    C20   1.457412 S    
C33   C57   1.404534 A    
C2    C19   1.457412 S    
C125  H81   1.109556 S    
C86   C98   1.417918 A    
C3    C18   1.452838 S    
C35   C59   1.407829 A    
C106  H24   1.116301 S    
C115  H53   1.107416 S    
C26   C34   1.399527 A    
C106  H26   1.108063 S    
C89   C90   1.429096 A    
C105  H23   1.108067 S    
O4    C1    1.302350 A    
C103  H16   1.116062 S    
O17   C101  1.416625 S    
C74   N2    1.386695 A    
C121  H69   1.109825 S    
C119  H65   1.106063 S    
O40   C124  1.409998 S    
O9    Cu3   1.962413 S    
O10   Cu4   1.962413 S    
O38   C122  1.412433 S    
C57   O25   1.383068 S    
C58   O26   1.383068 S    
C107  H29   1.103921 S    
C79   O47   1.378007 S    
C37   C45   1.415506 A    
O4    Cu2   1.962410 S    
O5    C3    1.298156 A    
C110  H36   1.113551 S    
O6    C4    1.300154 A    
C75   N1    1.375394 A    
C13   C21   1.406780 A    
C120  H67   1.114151 S    
C62   C66   1.406563 A    
C104  H18   1.109358 S    
C23   C31   1.388137 A    
O53   C137  1.410686 S    
C111  H40   1.113214 S    
C13   O21   1.386678 S    
C112  H42   1.113195 S    
C109  H34   1.111705 S    
O18   C102  1.416624 S    
O5    Cu2   1.962502 S    
O44   C128  1.417799 S    
C40   C48   1.414237 A    
C127  H88   1.106945 S    
O7    C4    1.298158 A    
C128  H92   1.111139 S    
C9    C17   1.398451 A    
C114  H49   1.108568 S    
C77   C87   1.430602 A    
C79   C85   1.430601 A    
C99   O55   1.382955 S    
C34   C58   1.404535 A    
O31   C115  1.410113 S    
O2    C2    1.302350 A    
C108  H30   1.111689 S    
O23   C107  1.413701 S    
C134  H108  1.113542 S    
C126  H86   1.111137 S    
C45   C53   1.420819 A    
C78   N4    1.374738 A    
C136  H114  1.113541 S    
C15   C55   1.411141 A    
C7    C22   1.454627 S    
C54   C69   1.416629 A    
C75   C81   1.427642 A    
C95   O51   1.382386 S    
C81   C93   1.417552 A    
O14   C8    1.302147 A    
C83   C95   1.417552 A    
O3    C2    1.298435 A    
C130  H98   1.115444 S    
C16   C56   1.411144 A    
C116  H55   1.113145 S    
C41   C46   1.405632 A    
C38   C46   1.415504 A    
C98   O54   1.381654 S    
C123  H76   1.113164 S    
C93   C96   1.406610 A    
O30   C114  1.416847 S    
Cu2   N2    2.031793 S    
C12   C20   1.406489 A    
C138  H122  1.109254 S    
O1    Cu1   1.962413 S    
C31   H7    1.084845 S    
C124  H79   1.113163 S    
C44   C47   1.407518 A    
C80   C86   1.430959 A    
O20   C104  1.415827 S    
C104  H20   1.108332 S    
C117  H57   1.114249 S    
C101  H10   1.100215 S    
O12   C5    1.298699 A    
O28   C112  1.410268 S    
C112  H44   1.108010 S    
O54   C138  1.410186 S    
C65   O33   1.388476 S    
C118  H61   1.108660 S    
O45   C129  1.418119 S    
C134  H109  1.113616 S    
C55   C72   1.414718 A    
C76   C82   1.429905 A    
C14   O22   1.386671 S    
C135  H111  1.113436 S    
C115  H52   1.113143 S    
C140  H128  1.109252 S    
C37   C61   1.411781 A    
C31   C39   1.393695 A    
C126  H84   1.108089 S    
C85   C97   1.417543 A    
O52   C136  1.411637 S    
C27   C35   1.396497 A    
C136  H116  1.106973 S    
C41   C49   1.415440 A    
C28   C36   1.396497 A    
C27   H3    1.084679 S    
C42   C45   1.405632 A    
C78   C88   1.430952 A    
C88   C100  1.417911 A    
C76   O44   1.377658 S    
C117  H59   1.109401 S    
C119  H64   1.114150 S    
C93   O49   1.382386 S    
C94   O50   1.382678 S    
O11   C6    1.296664 A    
O48   C132  1.418169 S    
C107  H28   1.113740 S    
C85   C91   1.403033 A    
C133  H106  1.113720 S    
C40   C64   1.401324 A    
O34   C118  1.411578 S    
C11   C51   1.415398 A    
C132  H103  1.105902 S    
C11   C19   1.406489 A    
C122  H74   1.108948 S    
C44   C52   1.418778 A    
C74   C84   1.429905 A    
Cu3   N3    2.031793 S    
C82   C90   1.401774 A    
C84   C96   1.416938 A    
Cu3   Cu4   2.704245 S    
C75   O43   1.382667 S    
O21   C105  1.414788 S    
C49   C66   1.411774 A    
C88   C92   1.411186 A    
C110  H37   1.111707 S    
