data_mof_unit_21524.cif
_audit_creation_date              2012-12-11T15:27:02-0500
_audit_creation_method            fapswitch 2.2
_symmetry_space_group_name_H-M    P1
_symmetry_Int_Tables_number       1
_space_group_crystal_system       monoclinic
_cell_length_a                    13.945855
_cell_length_b                    13.945851
_cell_length_c                    27.422002
_cell_angle_alpha                 90.0
_cell_angle_beta                  90.0
_cell_angle_gamma                 119.999888
_cell_volume                      4618.70735852

loop_
_atom_site_label
_atom_site_type_symbol
_atom_type_description
_atom_site_fract_x
_atom_site_fract_y
_atom_site_fract_z
_atom_type_partial_charge
C1    C     C_R   0.234170 0.787298 0.568632 0.541242
C2    C     C_R   0.212702 0.446872 0.568632 0.541243
C3    C     C_R   0.553128 0.765830 0.568632 0.541244
C4    C     C_3   0.700394 0.752494 0.785091 0.060423
C5    C     C_3   0.247505 0.947900 0.785091 0.060423
C6    C     C_3   0.052099 0.299603 0.785091 0.060423
C7    C     C_3   0.678709 0.740411 0.729274 -0.180143
C8    C     C_3   0.259588 0.938298 0.729274 -0.180143
C9    C     C_3   0.061702 0.321289 0.729273 -0.180143
C10   C     C_1   0.710923 0.863246 0.858126 -0.015413
C11   C     C_1   0.136754 0.847677 0.858126 -0.015413
C12   C     C_1   0.152323 0.289077 0.858126 -0.015413
C13   C     C_1   0.631220 0.816644 0.657831 -0.072607
C14   C     C_1   0.183356 0.814575 0.657831 -0.072607
C15   C     C_1   0.185425 0.368780 0.657831 -0.072607
C16   C     C_1   0.602522 0.797831 0.615869 -0.011235
C17   C     C_1   0.202169 0.804691 0.615869 -0.011235
C18   C     C_1   0.195309 0.397478 0.615869 -0.011235
C19   C     C_R   0.106809 0.219830 0.948806 0.557322
C20   C     C_R   0.780170 0.886979 0.948806 0.557322
C21   C     C_R   0.113021 0.893191 0.948806 0.557322
C22   C     C_R   0.614347 0.807230 0.385585 0.025234
C23   C     C_R   0.192770 0.807117 0.385585 0.025234
C24   C     C_R   0.192883 0.385653 0.385585 0.025234
C25   C     C_R   0.608576 0.891947 0.360419 -0.125754
C26   C     C_R   0.108053 0.716629 0.360419 -0.125754
C27   C     C_R   0.283371 0.391425 0.360419 -0.125754
C28   C     C_R   0.637188 0.910703 0.311542 -0.122873
C29   C     C_R   0.089297 0.726485 0.311542 -0.122873
C30   C     C_R   0.273515 0.362813 0.311542 -0.122873
C31   C     C_R   0.674152 0.846650 0.287438 0.036456
C32   C     C_R   0.153350 0.827501 0.287438 0.036456
C33   C     C_R   0.172499 0.325848 0.287438 0.036456
C34   C     C_R   0.233210 0.787542 0.431561 0.542602
C35   C     C_R   0.212458 0.445668 0.431561 0.542603
C36   C     C_R   0.554332 0.766790 0.431561 0.542603
C37   C     C_R   0.690946 0.770027 0.313862 -0.120306
C38   C     C_R   0.229973 0.920918 0.313862 -0.120306
C39   C     C_R   0.079082 0.309054 0.313862 -0.120306
C40   C     C_R   0.660543 0.749887 0.362674 -0.127152
C41   C     C_R   0.250112 0.910656 0.362674 -0.127152
C42   C     C_R   0.089344 0.339456 0.362674 -0.127152
C43   C     C_R   0.655424 0.759336 0.206342 -0.119840
C44   C     C_R   0.240664 0.896088 0.206342 -0.119840
C45   C     C_R   0.103911 0.344576 0.206342 -0.119839
C46   C     C_R   0.676444 0.767881 0.156568 -0.130138
C47   C     C_R   0.232120 0.908564 0.156568 -0.130137
C48   C     C_R   0.091435 0.323555 0.156568 -0.130137
C49   C     C_R   0.754799 0.967055 0.161601 -0.124893
C50   C     C_R   0.032945 0.787744 0.161601 -0.124893
C51   C     C_R   0.212257 0.245202 0.161600 -0.124893
C52   C     C_R   0.735723 0.958752 0.211467 -0.121562
C53   C     C_R   0.041248 0.776971 0.211467 -0.121562
C54   C     C_R   0.223029 0.264277 0.211467 -0.121562
C55   C     C_R   0.688845 0.855180 0.234397 0.035399
C56   C     C_R   0.144820 0.833665 0.234397 0.035399
C57   C     C_R   0.166335 0.311155 0.234397 0.035398
C58   C     C_R   0.729544 0.872160 0.134315 0.023826
C59   C     C_R   0.127840 0.857384 0.134315 0.023826
C60   C     C_R   0.142616 0.270456 0.134315 0.023826
C61   C     C_R   0.106582 0.221506 0.086182 0.548853
C62   C     C_R   0.778494 0.885076 0.086182 0.548852
C63   C     C_R   0.114924 0.893418 0.086182 0.548852
C64   C     C_3   0.550464 0.817401 0.737964 -0.217090
C65   C     C_3   0.182600 0.733064 0.737964 -0.217090
C66   C     C_3   0.266935 0.449536 0.737964 -0.217090
C67   C     C_3   0.753799 0.945754 0.722554 -0.230008
C68   C     C_3   0.054245 0.808044 0.722554 -0.230008
C69   C     C_3   0.191958 0.246203 0.722554 -0.230008
C70   C     C_3   0.774589 0.957688 0.778437 -0.252858
C71   C     C_3   0.042311 0.816899 0.778437 -0.252858
C72   C     C_3   0.183102 0.225413 0.778437 -0.252858
C73   C     C_1   0.736676 0.873372 0.900495 0.023236
C74   C     C_1   0.126628 0.863303 0.900495 0.023236
C75   C     C_1   0.136696 0.263325 0.900495 0.023236
C76   C     C_3   0.653795 0.830446 0.710477 0.039129
C77   C     C_3   0.169554 0.823349 0.710477 0.039129
C78   C     C_3   0.176651 0.346205 0.710477 0.039129
C79   C     C_3   0.571689 0.831092 0.793702 -0.198849
C80   C     C_3   0.168909 0.740597 0.793702 -0.198850
C81   C     C_3   0.259401 0.428312 0.793702 -0.198850
C82   C     C_3   0.688844 0.850694 0.805391 0.066725
C83   C     C_3   0.149306 0.838150 0.805391 0.066725
C84   C     C_3   0.161850 0.311156 0.805391 0.066725
Cr1   Cr    Cr6+3 0.164410 0.584450 0.499910 1.020751
Cr2   Cr    Cr6+3 0.415550 0.579960 0.499910 1.020751
Cr3   Cr    Cr6+3 0.420040 0.835590 0.499910 1.020751
Cr4   Cr    Cr6+3 0.156760 0.076070 0.017830 1.044163
Cr5   Cr    Cr6+3 0.923930 0.080690 0.017830 1.044163
Cr6   Cr    Cr6+3 0.919310 0.843240 0.017830 1.044163
H1    H     H_    0.564124 0.902489 0.806885 0.165698
H2    H     H_    0.097513 0.661636 0.806885 0.165697
H3    H     H_    0.338363 0.435878 0.806885 0.165698
H4    H     H_    0.477584 0.734367 0.730385 0.118349
H5    H     H_    0.265635 0.743218 0.730385 0.118349
H6    H     H_    0.256780 0.522416 0.730385 0.118350
H7    H     H_    0.507282 0.756276 0.812940 0.166715
H8    H     H_    0.243726 0.751007 0.812940 0.166714
H9    H     H_    0.248991 0.492718 0.812940 0.166714
H10   H     H_    0.786366 0.769849 0.791819 0.128687
H11   H     H_    0.230149 0.016517 0.791819 0.128687
H12   H     H_    0.983483 0.213631 0.791819 0.128686
H13   H     H_    0.573625 0.937927 0.377209 0.132831
H14   H     H_    0.062073 0.635698 0.377209 0.132831
H15   H     H_    0.364302 0.426376 0.377209 0.132831
H16   H     H_    0.615565 0.678110 0.223068 0.105052
H17   H     H_    0.321890 0.937454 0.223068 0.105052
H18   H     H_    0.062545 0.384435 0.223068 0.105052
H19   H     H_    0.656248 0.693874 0.135938 0.122071
H20   H     H_    0.306126 0.962374 0.135938 0.122071
H21   H     H_    0.037625 0.343752 0.135938 0.122071
H22   H     H_    0.623556 0.970328 0.292010 0.100541
H23   H     H_    0.029673 0.653229 0.292010 0.100541
H24   H     H_    0.346772 0.376445 0.292010 0.100541
H25   H     H_    0.762346 0.033850 0.232315 0.101929
H26   H     H_    0.966150 0.728496 0.232315 0.101929
H27   H     H_    0.271505 0.237655 0.232314 0.101929
H28   H     H_    0.796875 0.048629 0.145164 0.131146
H29   H     H_    0.951371 0.748247 0.145164 0.131147
H30   H     H_    0.251754 0.203126 0.145164 0.131146
H31   H     H_    0.723167 0.722451 0.296266 0.101644
H32   H     H_    0.277549 0.000715 0.296266 0.101643
H33   H     H_    0.999285 0.276833 0.296266 0.101644
H34   H     H_    0.529566 0.880256 0.724779 0.137113
H35   H     H_    0.119746 0.649310 0.724779 0.137113
H36   H     H_    0.350689 0.470437 0.724780 0.137113
H37   H     H_    0.667297 0.685313 0.381572 0.126830
H38   H     H_    0.314686 0.981984 0.381572 0.126830
H39   H     H_    0.018016 0.332702 0.381572 0.126830
H40   H     H_    0.829210 0.956929 0.703518 0.111532
H41   H     H_    0.043069 0.872279 0.703518 0.111532
H42   H     H_    0.127723 0.170790 0.703518 0.111532
H43   H     H_    0.737730 0.011931 0.709417 0.136019
H44   H     H_    0.988069 0.725797 0.709417 0.136019
H45   H     H_    0.274205 0.262273 0.709417 0.136019
H46   H     H_    0.769099 0.030037 0.791987 0.146898
H47   H     H_    0.969963 0.739060 0.791988 0.146898
H48   H     H_    0.260941 0.230904 0.791988 0.146899
H49   H     H_    0.860149 0.974790 0.786094 0.097124
H50   H     H_    0.025208 0.885356 0.786094 0.097124
H51   H     H_    0.114646 0.139852 0.786094 0.097124
H52   H     H_    0.608004 0.656987 0.720374 0.162638
H53   H     H_    0.343012 0.951018 0.720374 0.162638
H54   H     H_    0.048980 0.391992 0.720374 0.162638
O1    O     O_R   0.137310 0.468260 0.552980 -0.508033
O2    O     O_R   0.531740 0.669050 0.552980 -0.508033
O3    O     O_R   0.330950 0.862690 0.552980 -0.508033
O4    O     O_R   0.180530 0.983530 0.965090 -0.493573
O5    O     O_R   0.016470 0.197000 0.965090 -0.493574
O6    O     O_R   0.803000 0.819470 0.965090 -0.493573
O7    O     O_R   0.174120 0.688790 0.549730 -0.497807
O8    O     O_R   0.311210 0.485330 0.549730 -0.497808
O9    O     O_R   0.514670 0.825880 0.549730 -0.497808
O10   O     O_R   0.139940 0.470480 0.446230 -0.521602
O11   O     O_R   0.529520 0.669460 0.446230 -0.521602
O12   O     O_R   0.330540 0.860060 0.446230 -0.521602
O13   O     O_R   0.176560 0.690850 0.450770 -0.506208
O14   O     O_R   0.309150 0.485710 0.450770 -0.506208
O15   O     O_R   0.514290 0.823440 0.450770 -0.506208
O16   O     O_3   0.333333 0.666667 0.499990 -0.265937
O17   O     O_3   1.000000 1.000000 0.017910 -0.229894
O18   O     O_R   0.149710 0.171070 0.967700 -0.498714
O19   O     O_R   0.828930 0.978640 0.967700 -0.498714
O20   O     O_R   0.021360 0.850290 0.967700 -0.498715
O21   O     O_R   0.178510 0.985930 0.071830 -0.517659
O22   O     O_R   0.014070 0.192580 0.071830 -0.517660
O23   O     O_R   0.807420 0.821490 0.071830 -0.517659
O24   O     O_R   0.147830 0.173300 0.066650 -0.501118
O25   O     O_R   0.826700 0.974530 0.066650 -0.501118
O26   O     O_R   0.025470 0.852170 0.066650 -0.501118
H55   H     H_    0.752708 0.748022 0.710217 0.099260
H56   H     H_    0.251976 0.004685 0.710217 0.099260
H57   H     H_    0.995315 0.247289 0.710217 0.099260
Br1   Br    Br    0.603130 0.612548 0.818210 -0.576724
Br2   Br    Br    0.387452 0.990584 0.818209 -0.576723
Br3   Br    Br    0.009414 0.396866 0.818209 -0.576722

loop_
_geom_bond_atom_site_label_1
_geom_bond_atom_site_label_2
_ccdc_geom_bond_type
C58   C62   S    
C15   C18   T    
C7    H55   S    
Cr6   O23   S    
C2    C18   S    
C53   H26   S    
C24   C42   A    
C71   H50   S    
C68   H44   S    
C14   C17   T    
C35   O10   A    
Cr6   O6    S    
C6    C9    S    
C71   H47   S    
C28   H22   S    
C25   C28   A    
C45   C57   A    
C33   C39   A    
Cr3   O3    S    
C50   C59   A    
C67   H43   S    
Cr1   O1    S    
C37   C40   A    
C4    C7    S    
C5    C83   S    
C10   C73   T    
C45   C48   A    
C15   C78   S    
C27   H15   S    
Cr4   O17   S    
C3    O9    A    
C39   H33   S    
Cr3   O16   S    
C12   C84   S    
C45   H18   S    
C61   O22   A    
C23   C26   A    
C64   H4    S    
C36   O15   A    
C26   H14   S    
C20   O6    A    
Cr4   O24   S    
C22   C25   A    
C24   C27   A    
C9    H57   S    
Cr1   O16   S    
C32   C38   A    
C42   H39   S    
C79   H1    S    
C44   C47   A    
Cr1   O10   S    
C49   C52   A    
C72   H48   S    
C62   O23   A    
C70   H49   S    
C69   H45   S    
C21   O20   A    
C4    Br1   S    
C46   C58   A    
C27   C30   A    
C70   H46   S    
C5    Br2   S    
C41   H38   S    
C69   C78   S    
Cr1   O13   S    
C80   C83   S    
Cr2   O2    S    
Cr5   O17   S    
C9    H54   S    
C48   C60   A    
C39   C42   A    
C71   C83   S    
C2    O8    A    
C72   H51   S    
C66   C78   S    
C5    H11   S    
C52   H25   S    
C24   C35   S    
C6    C84   S    
Cr6   O17   S    
C50   H29   S    
C50   C53   A    
C21   O4    A    
C65   C77   S    
C38   C41   A    
C14   C77   S    
C25   H13   S    
C63   O26   A    
C81   H9    S    
C11   C83   S    
C64   H34   S    
C20   O19   A    
C21   C74   S    
C10   C82   S    
C49   C58   A    
C66   H36   S    
Cr6   O20   S    
C60   C61   S    
C2    O1    A    
C19   O18   A    
C65   H35   S    
C80   H2    S    
C68   H41   S    
Cr2   O11   S    
Cr1   O7    S    
Cr2   O8    S    
C5    C8    S    
C81   H3    S    
C44   C56   A    
C49   H28   S    
C13   C76   S    
C63   O21   A    
C23   C34   S    
C22   C40   A    
Cr6   O26   S    
Cr3   O9    S    
C51   H30   S    
C64   C76   S    
C72   C84   S    
Cr2   O14   S    
C38   H32   S    
C26   C29   A    
C37   H31   S    
C43   C55   A    
C4    H10   S    
C8    C77   S    
C64   C79   S    
C13   C16   T    
C67   H40   S    
C69   H42   S    
C81   C84   S    
C66   H6    S    
C30   H24   S    
C44   H17   S    
C68   C77   S    
C62   O25   A    
C29   H23   S    
C33   C57   S    
C30   C33   A    
C80   H8    S    
C59   C63   S    
C79   H7    S    
C28   C31   A    
C69   C72   S    
C11   C74   T    
C79   C82   S    
C52   C55   A    
C7    C76   S    
C40   H37   S    
C34   O12   A    
C29   C32   A    
C47   H20   S    
C22   C36   S    
C1    C17   S    
C23   C41   A    
C51   C54   A    
C67   C70   S    
C51   C60   A    
C19   C75   S    
C35   O14   A    
Cr5   O25   S    
C66   C81   S    
Cr5   O19   S    
Cr4   O4    S    
C6    Br3   S    
C61   O24   A    
C68   C71   S    
Cr4   O18   S    
Cr5   O5    S    
C19   O5    A    
Cr3   O15   S    
C20   C73   S    
C1    O7    A    
C8    H53   S    
C9    C78   S    
C6    H12   S    
C32   C56   S    
C70   C82   S    
C43   C46   A    
C53   C56   A    
Cr5   O22   S    
C1    O3    A    
C12   C75   T    
C47   C59   A    
C34   O13   A    
C31   C37   A    
C65   H5    S    
C48   H21   S    
C4    C82   S    
C3    O2    A    
Cr4   O21   S    
C54   H27   S    
C46   H19   S    
C65   C80   S    
Cr3   O12   S    
C67   C76   S    
C31   C55   S    
Cr2   O16   S    
C43   H16   S    
C7    H52   S    
C3    C16   S    
C8    H56   S    
C36   O11   A    
C54   C57   A    
