data_mof_unit_23955.cif
_audit_creation_date              2012-10-26T18:47:54-0400
_audit_creation_method            fapswitch 2.2
_symmetry_space_group_name_H-M    P1
_symmetry_Int_Tables_number       1
_space_group_crystal_system       triclinic
_cell_length_a                    15.856089
_cell_length_b                    8.686009
_cell_length_c                    7.491363
_cell_angle_alpha                 103.016322
_cell_angle_beta                  94.557576
_cell_angle_gamma                 92.196701
_cell_volume                      1000.38716285

loop_
_atom_site_label
_atom_site_type_symbol
_atom_type_description
_atom_site_fract_x
_atom_site_fract_y
_atom_site_fract_z
_atom_type_partial_charge
C1    C     C_R   0.497478 0.199874 0.453316 0.545692
C2    C     C_2   0.503702 0.968162 0.572723 -0.158056
C3    C     C_R   0.340450 0.499878 0.501663 0.545297
C4    C     C_R   0.502511 0.800126 0.546684 0.545647
C5    C     C_R   0.659547 0.500068 0.498228 0.547895
C6    C     C_3   0.052186 0.425180 0.647211 -0.257595
C7    C     C_3   0.040265 0.392211 0.303165 0.078528
C8    C     C_3   0.941318 0.397493 0.300758 0.103422
C9    C     C_1   0.748985 0.499209 0.494710 -0.032298
C10   C     C_3   0.082710 0.496275 0.489802 0.060246
C11   C     C_3   0.135642 0.331724 0.054244 -0.326673
C12   C     C_3   0.954278 0.417116 0.639672 -0.265802
C13   C     C_3   0.883878 0.591853 0.118129 -0.286302
C14   C     C_3   0.916419 0.497661 0.488836 0.074985
C15   C     C_3   0.957202 0.669666 0.536348 -0.213895
C16   C     C_3   0.053559 0.668030 0.520069 -0.215420
C17   C     C_1   0.824430 0.498527 0.492643 -0.057056
C18   C     C_1   0.175178 0.498125 0.498428 -0.068542
C19   C     C_1   0.250918 0.499526 0.503428 -0.043285
C20   C     C_2   0.496275 0.031838 0.427275 -0.158432
Cu1   Cu    Cu3+1 0.509300 0.517380 0.684380 0.955928
Cu2   Cu    Cu3+1 0.490700 0.482620 0.315620 0.955105
H1    H     H_    0.929533 0.291680 0.614267 0.103142
H2    H     H_    0.054833 0.267080 0.301780 0.099469
H3    H     H_    0.917843 0.273707 0.295823 0.090962
H4    H     H_    0.087097 0.742680 0.648520 0.105988
H5    H     H_    0.069870 0.723721 0.406817 0.105723
H6    H     H_    0.946190 0.727358 0.680518 0.103187
H7    H     H_    0.084148 0.551952 0.147128 0.253064
H8    H     H_    0.168250 0.388546 0.958137 0.136500
H9    H     H_    0.103876 0.217549 0.976224 0.138092
H10   H     H_    0.184816 0.308225 0.157037 0.156333
H11   H     H_    0.911207 0.355334 0.013973 0.256121
H12   H     H_    0.078123 0.501930 0.781314 0.142694
H13   H     H_    0.851200 0.589316 0.980972 0.127147
H14   H     H_    0.944447 0.664066 0.135021 0.132417
H15   H     H_    0.839108 0.646153 0.216706 0.154580
H16   H     H_    0.935758 0.478245 0.775096 0.135499
H17   H     H_    0.928524 0.747343 0.453126 0.103339
H18   H     H_    0.489278 0.960179 0.287187 0.134411
H19   H     H_    0.510697 0.039821 0.712812 0.135201
H20   H     H_    0.434783 0.376356 0.948879 0.237026
H21   H     H_    0.565214 0.623645 0.051126 0.238879
H22   H     H_    0.075541 0.304718 0.638490 0.106750
N1    N     N_2   0.476670 0.456430 0.038530 -0.256191
N2    N     N_2   0.523330 0.543570 0.961470 -0.254538
N3    N     N_2   0.073164 0.433493 0.142295 -0.519270
N4    N     N_2   0.898970 0.432037 0.134434 -0.501213
O1    O     O_R   0.506050 0.286130 0.619770 -0.504267
O2    O     O_R   0.490330 0.256780 0.308370 -0.498477
O3    O     O_R   0.387300 0.514690 0.655770 -0.500395
O4    O     O_R   0.371580 0.485340 0.344370 -0.497393
O5    O     O_R   0.509670 0.743220 0.691630 -0.498311
O6    O     O_R   0.493950 0.713870 0.380230 -0.505270
O7    O     O_R   0.628420 0.514660 0.655630 -0.495519
O8    O     O_R   0.612700 0.485310 0.344230 -0.495069

loop_
_geom_bond_atom_site_label_1
_geom_bond_atom_site_label_2
_ccdc_geom_bond_type
C6    C10   S    
C7    C10   S    
C2    C4    S    
C3    O4    A    
C8    N4    S    
C5    C9    S    
C4    O5    A    
C13   N4    S    
C1    O2    A    
C5    O8    A    
C13   H15   S    
C14   C17   S    
Cu2   O8    S    
Cu2   O2    S    
C3    C19   S    
C16   H5    S    
Cu1   O1    S    
C11   N3    S    
C11   H9    S    
C7    C8    S    
Cu2   O6    S    
C10   C16   S    
N1    N2    D    
Cu1   O5    S    
C8    H3    S    
C12   H1    S    
C15   H17   S    
C15   H6    S    
C10   C18   S    
C16   H4    S    
C9    C17   T    
H7    N3    S    
C11   H10   S    
C18   C19   T    
C6    C12   S    
C20   H18   S    
H21   N2    S    
C2    H19   S    
C2    C20   D    
C15   C16   S    
C12   H16   S    
C6    H12   S    
Cu1   O3    S    
Cu2   N1    S    
C6    H22   S    
C13   H14   S    
Cu2   O4    S    
Cu1   N2    S    
Cu1   O7    S    
H11   N4    S    
C3    O3    A    
C14   C15   S    
C1    C20   S    
C8    C14   S    
C4    O6    A    
Cu1   Cu2   S    
C1    O1    A    
C5    O7    A    
C13   H13   S    
C7    H2    S    
C11   H8    S    
C12   C14   S    
H20   N1    S    
C7    N3    S    
