data_mof_unit_15805.cif
_audit_creation_date              2012-12-11T18:37:15-0500
_audit_creation_method            fapswitch 2.2
_symmetry_space_group_name_H-M    P1
_symmetry_Int_Tables_number       1
_space_group_crystal_system       triclinic
_cell_length_a                    8.219404
_cell_length_b                    14.328879
_cell_length_c                    26.978353
_cell_angle_alpha                 93.598929
_cell_angle_beta                  92.824581
_cell_angle_gamma                 88.358045
_cell_volume                      3166.21122868

loop_
_atom_site_label
_atom_site_type_symbol
_atom_type_description
_atom_site_fract_x
_atom_site_fract_y
_atom_site_fract_z
_atom_type_partial_charge
Ba1   Ba    Ba6+2 0.849670 0.455410 0.524690 1.634923
Ba2   Ba    Ba6+2 0.340150 0.544510 0.475310 1.634257
C1    C     C_3   0.617548 0.129906 0.676513 -0.239973
C2    C     C_R   0.917918 0.591331 0.174649 0.571515
C3    C     C_2   0.766453 0.558569 0.270105 -0.084653
C4    C     C_3   0.159515 0.248034 0.663987 0.273908
C5    C     C_3   0.751969 0.590951 0.323989 -0.046294
C6    C     C_1   0.981686 0.484920 0.343251 0.035322
C7    C     C_2   0.023396 0.480714 0.295702 -0.106792
C8    C     C_2   0.907948 0.517099 0.255321 0.190113
C9    C     C_R   0.029267 0.509737 0.101056 -0.079605
C10   C     C_R   0.064192 0.431777 0.129483 -0.036273
C11   C     C_R   0.140019 0.352627 0.106574 -0.060376
C12   C     C_3   0.655290 0.219564 0.651941 0.337097
C13   C     C_R   0.954680 0.589587 0.123940 -0.024060
C14   C     C_2   0.852665 0.533070 0.359119 -0.291472
C15   C     C_2   0.351985 0.481624 0.640835 -0.275386
C16   C     C_3   0.156567 0.221525 0.717531 -0.359384
C17   C     C_R   0.195823 0.428710 0.976840 0.019644
C18   C     C_R   0.060269 0.583281 0.969634 0.020363
C19   C     C_R   0.147826 0.505435 0.947895 0.050315
C20   C     C_R   0.289203 0.355039 0.953885 -0.100332
C21   C     C_R   0.330469 0.355772 0.904341 -0.061673
C22   C     C_R   0.280112 0.429647 0.875007 -0.031348
C23   C     C_3   0.528914 0.695774 0.623026 0.297778
C24   C     C_R   0.188030 0.504470 0.896666 -0.077394
C25   C     C_R   0.136794 0.578606 0.867160 -0.033383
C26   C     C_R   0.177342 0.576912 0.816631 0.589731
C27   C     C_R   0.320445 0.430124 0.824481 0.580266
C28   C     C_3   0.162475 0.257919 0.423109 0.310358
C29   C     C_2   0.462788 0.491437 0.728900 -0.065239
C30   C     C_3   0.503295 0.493952 0.674416 -0.049683
C31   C     C_1   0.213216 0.517849 0.655791 0.051056
C32   C     C_2   0.174706 0.515585 0.703002 -0.109338
C33   C     C_2   0.306343 0.501974 0.742978 0.199674
C34   C     C_3   0.502622 0.735800 0.675691 -0.377287
C35   C     C_R   0.150347 0.428434 0.027505 0.019630
C36   C     C_R   0.068947 0.508083 0.049748 0.050030
C37   C     C_R   0.026957 0.586319 0.021277 0.020083
C38   C     C_R   0.182614 0.350960 0.057003 -0.099692
C39   C     C_R   0.919360 0.667295 0.095857 -0.059998
C40   C     C_3   0.162393 0.152416 0.412234 -0.383132
C41   C     C_R   0.008071 0.655555 0.938578 -0.100633
C42   C     C_R   0.045595 0.653154 0.888715 -0.062471
C43   C     C_R   0.954141 0.665805 0.045870 -0.103021
C44   C     C_R   0.684277 0.063525 0.468531 -0.039645
C45   C     C_3   0.085413 0.743796 0.332114 0.341475
C46   C     C_R   0.510637 0.197902 0.500388 0.056942
C47   C     C_R   0.375272 0.229484 0.526396 -0.288415
C48   C     C_R   0.275461 0.166693 0.546507 0.015695
C49   C     C_R   0.320661 0.072293 0.545934 -0.144366
C50   C     C_R   0.458415 0.038848 0.520963 -0.007154
C51   C     C_R   0.552573 0.100835 0.496172 -0.023032
C52   C     C_3   0.037572 0.751263 0.584601 0.306058
C53   C     C_R   0.632894 0.906718 0.493568 -0.024665
C54   C     C_R   0.726331 0.967468 0.467588 0.000266
C55   C     C_R   0.679752 0.811104 0.494112 0.025688
C56   C     C_3   0.103145 0.769427 0.278836 -0.316914
C57   C     C_R   0.815857 0.777218 0.469467 -0.279984
C58   C     C_R   0.913107 0.837113 0.446140 0.015167
C59   C     C_R   0.866568 0.931896 0.443731 -0.151203
C60   C     C_R   0.500286 0.943729 0.520106 -0.042392
C61   C     C_3   0.067302 0.853031 0.602975 -0.232785
C62   C     C_3   0.658783 0.340055 0.380005 0.300924
C63   C     C_3   0.662480 0.316062 0.324348 -0.365688
C64   C     C_3   0.974877 0.922894 0.571704 -0.497864
C65   C     C_3   0.697783 0.044381 0.650469 -0.482428
C66   C     C_3   0.549525 0.793617 0.353683 0.365532
C67   C     C_3   0.519179 0.887428 0.330978 -0.363774
C68   C     C_R   0.021344 0.434115 0.180056 0.598328
H1    H     H_    0.788383 0.223333 0.648566 0.108625
H2    H     H_    0.571459 0.399572 0.386315 0.082314
H3    H     H_    0.755551 0.259938 0.316734 0.132470
H4    H     H_    0.692873 0.378524 0.304800 0.069089
H5    H     H_    0.541156 0.291867 0.309742 0.134973
H6    H     H_    0.592547 0.217641 0.614451 0.012692
H7    H     H_    0.483599 0.120872 0.675209 0.114641
H8    H     H_    0.409397 0.672847 0.606325 0.034458
H9    H     H_    0.615605 0.635048 0.624336 0.032750
H10   H     H_    0.423076 0.799714 0.674636 0.131177
H11   H     H_    0.442691 0.684133 0.697146 0.080747
H12   H     H_    0.249122 0.131730 0.382962 0.128911
H13   H     H_    0.621441 0.753992 0.694714 0.123012
H14   H     H_    0.662401 0.135106 0.716123 0.145574
H15   H     H_    0.226222 0.272709 0.741914 0.146887
H16   H     H_    0.152917 0.676570 0.337520 0.086844
H17   H     H_    0.954081 0.735317 0.337814 -0.055103
H18   H     H_    0.225485 0.797195 0.273998 0.147803
H19   H     H_    0.088723 0.706100 0.253530 0.119763
H20   H     H_    0.009373 0.823181 0.268724 0.117990
H21   H     H_    0.683481 0.780003 0.355519 -0.067570
H22   H     H_    0.504662 0.798963 0.391978 0.078631
H23   H     H_    0.198924 0.115892 0.446160 0.064866
H24   H     H_    0.588319 0.942267 0.353243 0.071020
H25   H     H_    0.387789 0.907341 0.330743 0.149851
H26   H     H_    0.104670 0.319486 0.661846 0.076771
H27   H     H_    0.560261 0.883521 0.292282 0.122951
H28   H     H_    0.142850 0.453213 0.286125 0.138260
H29   H     H_    0.167609 0.291036 0.127084 0.121630
H30   H     H_    0.561899 0.485775 0.756760 0.102802
H31   H     H_    0.402534 0.297421 0.888976 0.120650
H32   H     H_    0.335436 0.295949 0.973490 0.068873
H33   H     H_    0.238500 0.286638 0.042642 0.069014
H34   H     H_    0.038232 0.130380 0.399260 0.117548
H35   H     H_    0.674139 0.581973 0.243192 0.122072
H36   H     H_    0.863718 0.730412 0.112505 0.122765
H37   H     H_    0.934774 0.714875 0.951344 0.068867
H38   H     H_    0.288248 0.248025 0.653122 0.005017
H39   H     H_    0.002299 0.710673 0.866945 0.120797
H40   H     H_    0.049377 0.526678 0.713128 0.132546
H41   H     H_    0.925073 0.729510 0.027851 0.068951
H42   H     H_    0.837974 0.548523 0.398568 0.082651
H43   H     H_    0.358174 0.445748 0.604246 0.074410
H44   H     H_    0.341388 0.303121 0.528261 0.065645
H45   H     H_    0.906156 0.740381 0.576468 0.014799
H46   H     H_    0.247600 0.024849 0.564177 0.073248
H47   H     H_    0.943585 0.978134 0.425691 0.073546
H48   H     H_    0.853254 0.704501 0.471735 0.062600
H49   H     H_    0.757137 0.108236 0.448269 0.096638
H50   H     H_    0.028935 0.221980 0.729338 0.123444
H51   H     H_    0.427878 0.899451 0.540755 0.101820
H52   H     H_    0.212437 0.150692 0.721322 0.120605
H53   H     H_    0.288071 0.279808 0.432982 0.001720
H54   H     H_    0.083027 0.276027 0.454573 0.064571
H55   H     H_    0.843021 0.909530 0.571171 0.139886
H56   H     H_    0.106658 0.733390 0.550785 0.051001
H57   H     H_    0.993278 0.994580 0.588460 0.172355
H58   H     H_    0.021028 0.918676 0.533830 0.141940
H59   H     H_    0.832163 0.047716 0.656203 0.164307
H60   H     H_    0.664376 0.041103 0.610066 0.144217
H61   H     H_    0.656858 0.979808 0.666294 0.153316
H62   H     H_    0.027480 0.864807 0.641756 0.147701
H63   H     H_    0.199931 0.866475 0.603334 0.104824
H64   H     H_    0.781710 0.360251 0.394346 0.011567
N1    N     N_R   0.949459 0.513724 0.202633 -0.421087
N2    N     N_R   0.267471 0.502822 0.795474 -0.424155
O1    O     O_2   0.918080 0.549800 0.616640 -0.473687
O2    O     O_2   0.250691 0.835201 0.457656 -0.489794
O3    O     O_3   0.149966 0.814855 0.364769 -0.599869
O4    O     O_3   0.150070 0.549720 0.556460 -0.489144
O5    O     O_3   0.546340 0.387390 0.478340 -0.487211
O6    O     O_2   0.398940 0.728800 0.517420 -0.464054
O7    O     O_3   0.594419 0.765206 0.596294 -0.652392
O8    O     O_2   0.417748 0.542223 0.321450 -0.497873
O9    O     O_3   0.466536 0.723123 0.324620 -0.592898
O10   O     O_2   0.046179 0.364591 0.203586 -0.597252
O11   O     O_2   0.402074 0.365309 0.806321 -0.599665
O12   O     O_3   0.610921 0.261238 0.403130 -0.640941
O13   O     O_2   0.858858 0.663089 0.193923 -0.620232
O14   O     O_2   0.134326 0.642379 0.791705 -0.599300
O15   O     O_3   0.658250 0.379560 0.591530 -0.482803
O16   O     O_2   0.828469 0.418452 0.676540 -0.507671
O17   O     O_3   0.091031 0.697713 0.623817 -0.640602
O18   O     O_3   0.599196 0.296573 0.681581 -0.611333
O19   O     O_2   0.790750 0.271170 0.482550 -0.468937
O20   O     O_3   0.062300 0.331660 0.568480 -0.484748
O21   O     O_2   0.934540 0.164907 0.543968 -0.489893
O22   O     O_3   0.068941 0.183300 0.633637 -0.618290
O23   O     O_2   0.271610 0.450170 0.383330 -0.460047
O24   O     O_3   0.039630 0.450200 0.443530 -0.497874
O25   O     O_3   0.531440 0.620360 0.408460 -0.476460
O26   O     O_3   0.105374 0.300679 0.380282 -0.623556
O27   O     O_3   0.643350 0.612530 0.521650 -0.472250
O28   O     O_3   0.127390 0.668260 0.431510 -0.486363
P1    P     P_3+3 0.090020 0.577590 0.608380 0.994674
P2    P     P_3+3 0.614340 0.285150 0.467650 0.975173
P3    P     P_3+3 0.083695 0.210595 0.571912 0.925291
P4    P     P_3+3 0.099670 0.422330 0.391610 0.992454
P5    P     P_3+3 0.110434 0.789534 0.425453 0.945770
P6    P     P_3+3 0.652322 0.400295 0.655945 0.968072
P7    P     P_3+3 0.584615 0.730132 0.532980 0.929604
P8    P     P_3+3 0.540397 0.615031 0.343940 0.947663

loop_
_geom_bond_atom_site_label_1
_geom_bond_atom_site_label_2
_ccdc_geom_bond_type
C33   N2    S    
C53   C54   A    
C26   O14   D    
C7    H28   S    
Ba2   P4    S    
C9    C36   A    
C40   H23   S    
O12   P2    S    
C12   H1    S    
C40   H12   S    
C19   C24   A    
O21   P3    D    
C52   O17   S    
O1    P1    D    
C15   H43   S    
C3    H35   S    
O23   P4    D    
C2    O13   D    
C52   H56   S    
C24   C25   A    
O15   P6    S    
C58   P5    S    
C61   H63   S    
C25   C26   A    
C17   C19   A    
C22   C24   A    
C32   C33   S    
C35   C38   A    
C36   C37   A    
C55   C57   A    
C52   C61   S    
C34   H13   S    
C53   C60   A    
C66   H21   S    
C63   H3    S    
C64   H57   S    
O18   P6    S    
Ba1   Ba2   S    
Ba1   O19   S    
C22   C27   A    
C11   C38   A    
C30   P6    S    
C17   C35   A    
O25   P8    S    
C9    C13   A    
C25   C42   A    
C66   C67   S    
C21   C22   A    
O3    P5    S    
C68   O10   D    
C6    P4    S    
C7    C8    S    
C37   C43   A    
C42   H39   S    
O24   P4    S    
C47   H44   S    
C61   C64   S    
C57   C58   A    
C6    C14   D    
C23   H9    S    
C5    P8    S    
C62   O12   S    
O2    P5    D    
O28   P5    S    
C65   H59   S    
C15   C31   D    
C20   H32   S    
Ba2   O25   S    
C4    O22   S    
O22   P3    S    
C48   C49   A    
C46   C51   A    
C4    C16   S    
C62   H64   S    
C16   H15   S    
C39   H36   S    
C59   H47   S    
C23   H8    S    
C45   H16   S    
C17   C20   A    
C8    N1    S    
C13   C39   A    
C67   H24   S    
C34   H10   S    
Ba2   O28   S    
C3    C5    S    
C18   C37   A    
C6    C7    D    
O27   P7    S    
O20   P3    S    
C29   H30   S    
C63   H4    S    
C49   C50   A    
C56   H18   S    
C58   C59   A    
C45   H17   S    
C11   H29   S    
Ba1   O20   S    
C41   C42   A    
C35   C36   A    
O16   P6    D    
C39   C43   A    
C29   C30   S    
Ba1   P1    S    
C34   H11   S    
C52   H45   S    
C31   C32   D    
O5    P2    S    
C54   C59   A    
C41   H37   S    
C61   H62   S    
C10   C11   A    
C28   H53   S    
C56   H20   S    
Ba1   O4    S    
C65   H61   S    
C16   H52   S    
C2    N1    Am   
O26   P4    S    
C46   C47   A    
C28   H54   S    
C57   H48   S    
C4    H26   S    
C53   C55   A    
C68   N1    Am   
Ba2   O6    S    
C29   C33   D    
C65   H60   S    
Ba2   O23   S    
C45   O3    S    
C1    H7    S    
C16   H50   S    
C1    H14   S    
C18   C41   A    
Ba1   O1    S    
C50   C51   A    
C14   H42   S    
O4    P1    S    
C15   C30   S    
C10   C68   A    
C5    C14   S    
C4    H38   S    
O17   P1    S    
C26   N2    Am   
Ba1   O24   S    
C31   P1    S    
C67   H25   S    
C40   H34   S    
Ba2   O27   S    
C27   O11   D    
C9    C10   A    
C43   H41   S    
C1    C12   S    
O8    P8    D    
C49   H46   S    
C63   H5    S    
C64   H55   S    
Ba2   O4    S    
C62   C63   S    
C2    C13   A    
O7    P7    S    
C3    C8    D    
C50   C60   A    
C38   H33   S    
C21   H31   S    
C1    C65   S    
Ba1   P2    S    
C32   H40   S    
C23   O7    S    
C44   C51   A    
C66   H22   S    
C64   H58   S    
C44   H49   S    
Ba1   O15   S    
C62   H2    S    
C56   H19   S    
O9    P8    S    
Ba1   O5    S    
C23   C34   S    
C27   N2    Am   
C46   P2    S    
C18   C19   A    
Ba1   O27   S    
Ba2   O24   S    
C47   C48   A    
C44   C54   A    
C48   P3    S    
Ba2   O5    S    
C28   O26   S    
C20   C21   A    
C28   C40   S    
O19   P2    D    
C55   P7    S    
C60   H51   S    
C12   O18   S    
C66   O9    S    
C12   H6    S    
O6    P7    D    
C45   C56   S    
C67   H27   S    
