data_mof_unit_37476.cif
_audit_creation_date              2013-03-05T16:08:30-0500
_audit_creation_method            fapswitch 2.2
_symmetry_space_group_name_H-M    P1
_symmetry_Int_Tables_number       1
_space_group_crystal_system       triclinic
_cell_length_a                    14.81193
_cell_length_b                    6.926618
_cell_length_c                    13.51037
_cell_angle_alpha                 89.999895
_cell_angle_beta                  99.82753
_cell_angle_gamma                 90.000219
_cell_volume                      1365.77787852

loop_
_atom_site_label
_atom_site_type_symbol
_atom_site_description
_atom_site_fract_x
_atom_site_fract_y
_atom_site_fract_z
_atom_type_partial_charge
O1    O     O_R   0.586930 0.505770 0.416350 -0.594202
O2    O     O_R   0.413070 0.005770 0.583650 -0.594208
O3    O     O_R   0.397900 0.173100 0.389630 -0.588529
O4    O     O_R   0.602100 0.673100 0.610370 -0.588526
C1    C     C_R   0.364205 0.345412 0.362905 0.968960
C2    C     C_R   0.635795 0.845412 0.637095 0.968968
O5    O     O_R   0.585280 0.175870 0.404330 -0.598625
O6    O     O_R   0.414720 0.675870 0.595670 -0.598630
O7    O     O_R   0.601790 0.008380 0.598460 -0.585004
O8    O     O_R   0.398210 0.508380 0.401540 -0.585005
C3    C     C_R   0.614739 0.344765 0.382882 0.954511
C4    C     C_R   0.385260 0.844764 0.617117 0.954501
O9    O     O_3   0.505200 0.340120 0.563670 -0.275990
O10   O     O_3   0.494800 0.840120 0.436330 -0.275987
V1    V     V_3+5 0.499040 0.064180 0.488190 1.169392
V2    V     V_3+5 0.500960 0.564180 0.511810 1.169393
C5    C     C_R   0.248421 0.999473 0.672645 0.182365
C6    C     C_R   0.751578 0.499487 0.327357 0.182449
C7    C     C_R   0.314205 0.852263 0.682113 -0.212375
C8    C     C_R   0.685795 0.352267 0.317886 -0.212411
C9    C     C_R   0.306470 0.704445 0.751935 -0.179126
C10   C     C_R   0.693529 0.204450 0.248064 -0.179134
H1    H     H_    0.354223 0.585045 0.760698 0.123686
H2    H     H_    0.645774 0.085053 0.239299 0.123699
C11   C     C_R   0.241015 0.716169 0.816284 -0.075679
C12   C     C_R   0.758984 0.216174 0.183717 -0.075620
H3    H     H_    0.240480 0.605299 0.872612 0.112170
H4    H     H_    0.759515 0.105309 0.127386 0.112173
C13   C     C_R   0.180861 0.875195 0.812171 -0.251087
C14   C     C_R   0.819142 0.375194 0.187835 -0.251109
C15   C     C_R   0.182970 0.009755 0.735233 0.125065
C16   C     C_R   0.817037 0.509762 0.264773 0.125100
C17   C     C_3   0.186783 0.225126 0.737476 0.169872
C18   C     C_3   0.813183 0.725133 0.262477 0.169805
C19   C     C_3   0.258790 0.213505 0.669188 -0.592784
C20   C     C_3   0.741161 0.713522 0.330743 -0.592795
H5    H     H_    0.212618 0.284268 0.813512 0.054841
H6    H     H_    0.787355 0.784203 0.186421 0.054847
H7    H     H_    0.327911 0.260987 0.706454 0.174455
H8    H     H_    0.672035 0.760912 0.293439 0.174422
H9    H     H_    0.236442 0.272459 0.592371 0.236891
H10   H     H_    0.763476 0.772583 0.407544 0.236903
C21   C     C_1   0.783551 0.877095 0.782759 -0.216711
C22   C     C_1   0.216449 0.377095 0.217241 -0.216726
C23   C     C_1   0.716282 0.860112 0.716704 -0.228687
C24   C     C_1   0.283718 0.360112 0.283296 -0.228705
O11   O     O_R   0.101720 0.231700 0.098560 -0.590035
O12   O     O_R   0.898280 0.731700 0.901440 -0.590037
O13   O     O_R   0.914700 0.558980 0.095690 -0.606468
O14   O     O_R   0.085300 0.058980 0.904310 -0.606474
C25   C     C_R   0.885380 0.389646 0.117328 0.957926
C26   C     C_R   0.114621 0.889647 0.882674 0.957932
O15   O     O_R   0.102080 0.561590 0.110390 -0.590915
O16   O     O_R   0.897920 0.061590 0.889610 -0.590910
O17   O     O_R   0.086950 0.728940 0.916330 -0.574125
O18   O     O_R   0.913050 0.228940 0.083670 -0.574095
C27   C     C_R   0.136042 0.391900 0.137538 0.984076
C28   C     C_R   0.863959 0.891900 0.862462 0.984089
O19   O     O_3   0.994770 0.394510 0.936380 -0.247243
O20   O     O_3   0.005230 0.894510 0.063620 -0.247220
V3    V     V_3+5 0.000970 0.670520 0.011800 1.227797
V4    V     V_3+5 0.999030 0.170520 0.988200 1.227803
N1    N     N_R   0.100651 0.312215 0.688345 0.267707
O21   O     O_R   0.059164 0.250637 0.601293 -0.337216
O22   O     O_R   0.063669 0.450127 0.733038 -0.364939
N2    N     N_R   0.899295 0.812315 0.311612 0.267702
O23   O     O_R   0.940754 0.750877 0.398707 -0.337214
O24   O     O_R   0.936288 0.950159 0.266878 -0.364955

loop_
_geom_bond_atom_site_label_1
_geom_bond_atom_site_label_2
_geom_bond_distance
_ccdc_geom_bond_type
O4    V2    1.976254 S    
N2    O24   1.300065 A    
C14   C25   1.482912 S    
N1    O22   1.300032 A    
O9    V2    1.699548 S    
O12   C28   1.294477 A    
C7    C9    1.410036 A    
C2    C23   1.466536 S    
C11   H3    1.082128 S    
O16   V4    1.976216 S    
C1    C24   1.466537 S    
C20   H10   1.111834 S    
O1    C3    1.296694 A    
C26   O17   1.295174 A    
O6    C4    1.298503 A    
C22   C27   1.466529 S    
C17   N1    1.463915 S    
O2    C4    1.296694 A    
C18   N2    1.463940 S    
C2    O7    1.307905 A    
O5    V1    2.001970 S    
N2    O23   1.302358 A    
O7    V1    1.977654 S    
O3    V1    1.976257 S    
C1    O8    1.307904 A    
C13   C15   1.400445 A    
O1    V2    2.002283 S    
O8    V2    1.977653 S    
C14   C16   1.400476 A    
O2    V1    2.002280 S    
C21   C23   1.224548 T    
O12   V3    1.985462 S    
C6    C20   1.492057 S    
O11   V4    1.985459 S    
C19   H9    1.111807 S    
O17   V3    2.002507 S    
C4    C7    1.482216 S    
O20   V4    2.160969 S    
C12   H4    1.082133 S    
C17   C19   1.526798 S    
C18   C20   1.526765 S    
C8    C10   1.410027 A    
C17   H5    1.111471 S    
O5    C3    1.298506 A    
O18   V4    2.002508 S    
O9    V1    2.160943 S    
C9    H1    1.081526 S    
C11   C13   1.411879 A    
C19   H7    1.110811 S    
C5    C15   1.392754 A    
O10   V2    2.160939 S    
C3    C8    1.482224 S    
O19   V3    2.160971 S    
O14   V4    2.002175 S    
C6    C16   1.392807 A    
C15   C17   1.492976 S    
N1    O21   1.302319 A    
C20   H8    1.110838 S    
O13   V3    2.002169 S    
C6    C8    1.401097 A    
O4    C2    1.320028 A    
C25   O18   1.295178 A    
C10   C12   1.410695 A    
C10   H2    1.081536 S    
O16   C28   1.306178 A    
O14   C26   1.301196 A    
C9    C11   1.410712 A    
O10   V1    1.699549 S    
O19   V4    1.698876 S    
O15   C27   1.306180 A    
O6    V2    2.001977 S    
C5    C19   1.492010 S    
C21   C28   1.466530 S    
C5    C7    1.401065 A    
C18   H6    1.111491 S    
O15   V3    1.976218 S    
C13   C26   1.482900 S    
O11   C27   1.294477 A    
O13   C25   1.301198 A    
C22   C24   1.224548 T    
O20   V3    1.698878 S    
O3    C1    1.320029 A    
C12   C14   1.411872 A    
C16   C18   1.493005 S    
