data_mof_unit_43042.cif
_audit_creation_date              2012-12-10T20:25:45-0500
_audit_creation_method            fapswitch 2.2
_symmetry_space_group_name_H-M    P1
_symmetry_Int_Tables_number       1
_space_group_crystal_system       triclinic
_cell_length_a                    8.572722
_cell_length_b                    10.69087
_cell_length_c                    9.93936
_cell_angle_alpha                 89.500203
_cell_angle_beta                  97.619619
_cell_angle_gamma                 90.857028
_cell_volume                      902.775605386

loop_
_atom_site_label
_atom_site_type_symbol
_atom_type_description
_atom_site_fract_x
_atom_site_fract_y
_atom_site_fract_z
_atom_type_partial_charge
Br1   Br    Br    0.655864 0.135677 0.898378 -0.605822
C1    C     C_R   0.506408 0.260088 0.500863 0.887173
C2    C     C_R   0.444604 0.399982 0.924883 0.227921
C3    C     C_3   0.284623 0.338343 0.908751 -0.065723
C4    C     C_R   0.201687 0.501268 0.464623 0.974785
C5    C     C_3   0.312778 0.312125 0.061925 -0.042070
C6    C     C_R   0.506187 0.739872 0.499966 0.872166
C7    C     C_R   0.797915 0.504871 0.534389 0.970554
C8    C     C_2   0.036656 0.499048 0.444502 -0.377004
C9    C     C_2   0.961614 0.520087 0.549660 -0.407234
C10   C     C_R   0.573295 0.063123 0.622830 0.144240
C11   C     C_R   0.535144 0.128881 0.501535 -0.152153
C12   C     C_R   0.531600 0.936710 0.376939 -0.216936
C13   C     C_R   0.531818 0.065915 0.377618 -0.196009
C14   C     C_3   0.164403 0.556642 0.890019 -0.747975
C15   C     C_3   0.059493 0.264911 0.137960 -0.707136
C16   C     C_R   0.534811 0.871370 0.500199 -0.099889
C17   C     C_R   0.572155 0.935112 0.622027 0.081286
C18   C     C_3   0.504004 0.925128 0.752352 -0.511271
C19   C     C_3   0.505555 0.066918 0.753468 0.087102
C20   C     C_R   0.456511 0.395020 0.066961 0.139742
C21   C     C_R   0.565745 0.596286 0.078419 -0.139282
C22   C     C_R   0.568632 0.594939 0.935110 -0.126603
H1    H     H_    0.977178 0.475709 0.344264 0.181839
H2    H     H_    0.385975 0.106611 0.741269 0.117800
H3    H     H_    0.615597 0.675516 0.136877 0.153184
H4    H     H_    0.071471 0.390646 0.790768 0.246313
H5    H     H_    0.044531 0.594959 0.888487 0.225105
H6    H     H_    0.221580 0.602865 0.808832 0.256227
H7    H     H_    0.233018 0.581408 0.988477 0.231329
H8    H     H_    0.155591 0.443873 0.127811 0.270817
H9    H     H_    0.976260 0.298394 0.205657 0.229593
H10   H     H_    0.102308 0.171728 0.175506 0.234872
H11   H     H_    0.995665 0.255940 0.033618 0.275207
H12   H     H_    0.623121 0.671857 0.886973 0.146682
H13   H     H_    0.276054 0.251813 0.848133 0.118640
H14   H     H_    0.347843 0.213765 0.086304 0.141259
H15   H     H_    0.020015 0.551151 0.645937 0.183047
H16   H     H_    0.516435 0.114870 0.281056 0.184240
H17   H     H_    0.515703 0.889302 0.280083 0.175315
H18   H     H_    0.383255 0.883577 0.739623 0.185595
H19   H     H_    0.587330 0.882824 0.834579 0.225432
N1    N     N_R   0.498950 0.499140 0.142680 -0.115830
N2    N     N_R   0.498950 0.499180 0.857030 -0.101721
N3    N     N_2   0.152708 0.421904 0.869279 -0.275002
N4    N     N_2   0.190040 0.352399 0.138862 -0.248692
O1    O     O_R   0.500020 0.316790 0.614690 -0.602928
O2    O     O_R   0.500000 0.316760 0.385350 -0.612818
O3    O     O_R   0.271760 0.500010 0.587850 -0.615494
O4    O     O_R   0.271740 0.499970 0.358500 -0.619390
O5    O     O_R   0.500000 0.683240 0.614650 -0.631135
O6    O     O_R   0.499980 0.683210 0.385310 -0.634193
O7    O     O_R   0.728260 0.500030 0.641500 -0.612709
O8    O     O_R   0.728240 0.499990 0.412150 -0.613112
Zn1   Zn    Zn3+2 0.500010 0.500020 0.653130 0.959364
Zn2   Zn    Zn3+2 0.499990 0.499980 0.346870 0.951304

loop_
_geom_bond_atom_site_label_1
_geom_bond_atom_site_label_2
_ccdc_geom_bond_type
C7    O7    A    
C10   C11   A    
C3    H13   S    
C8    H1    S    
C4    C8    S    
C15   H10   S    
C15   H9    S    
C8    C9    D    
N1    Zn2   S    
C22   H12   S    
C21   N1    A    
C18   H19   S    
C12   C16   A    
C9    H15   S    
C1    C11   S    
H4    N3    S    
C18   C19   S    
C16   C17   A    
C5    H14   S    
C6    O5    A    
C10   C17   A    
O3    Zn1   S    
C12   C13   A    
N2    Zn1   S    
C4    O3    A    
C14   H5    S    
C2    N2    A    
O1    Zn1   S    
C1    O2    A    
C11   C13   A    
C6    O6    A    
C14   H6    S    
O5    Zn1   S    
C3    N3    S    
O7    Zn1   S    
C1    O1    A    
O8    Zn2   S    
C10   C19   S    
C2    C20   A    
C19   H2    S    
C14   N3    S    
C7    O8    A    
C2    C3    S    
O6    Zn2   S    
C4    O4    A    
C14   H7    S    
C3    C5    S    
C17   C18   S    
C21   H3    S    
C15   N4    S    
O2    Zn2   S    
C21   C22   A    
C12   H17   S    
C5    N4    S    
C15   H11   S    
C13   H16   S    
C20   N1    A    
C5    C20   S    
C7    C9    S    
O4    Zn2   S    
C22   N2    A    
C18   H18   S    
Br1   C19   S    
H8    N4    S    
C6    C16   S    
