data_mof_unit_53311.cif
_audit_creation_date              2013-03-05T15:41:15-0500
_audit_creation_method            fapswitch 2.2
_symmetry_space_group_name_H-M    P1
_symmetry_Int_Tables_number       1
_space_group_crystal_system       triclinic
_cell_length_a                    7.877594
_cell_length_b                    8.689936
_cell_length_c                    13.587478
_cell_angle_alpha                 93.585623
_cell_angle_beta                  77.500721
_cell_angle_gamma                 93.467864
_cell_volume                      905.265470504

loop_
_atom_site_label
_atom_site_type_symbol
_atom_site_description
_atom_site_fract_x
_atom_site_fract_y
_atom_site_fract_z
_atom_type_partial_charge
O1    O     O_R   0.388300 0.738660 0.506400 -0.619653
O2    O     O_R   0.611700 0.261340 0.493600 -0.602084
O3    O     O_R   0.679920 0.711490 0.489690 -0.537277
O4    O     O_R   0.320080 0.288510 0.510310 -0.540834
C1    C     C_R   0.544891 0.793719 0.497588 0.873635
C2    C     C_R   0.454467 0.206740 0.504857 0.874751
O5    O     O_R   0.333200 0.515510 0.649910 -0.667015
O6    O     O_R   0.666800 0.484490 0.350090 -0.654294
O7    O     O_R   0.624820 0.488340 0.633200 -0.577985
O8    O     O_R   0.375180 0.511660 0.366800 -0.595498
C3    C     C_R   0.468990 0.504312 0.687310 0.881398
C4    C     C_R   0.530461 0.493309 0.312711 0.882633
Zn1   Zn    Zn3+2 0.305280 0.518140 0.511160 1.079417
Zn2   Zn    Zn3+2 0.694720 0.481860 0.488840 1.100019
C5    C     C_1   0.549906 0.470813 0.207905 -0.127141
C6    C     C_1   0.445454 0.511450 0.792657 -0.132984
C7    C     C_2   0.548388 0.436334 0.016593 0.166665
C8    C     C_2   0.432067 0.519720 0.985731 0.186440
C9    C     C_1   0.432174 0.516785 0.881464 0.041189
C10   C     C_1   0.556689 0.451406 0.119917 0.029849
C11   C     C_2   0.565917 0.956106 0.505703 -0.042817
C12   C     C_2   0.430726 0.044792 0.502547 -0.027149
N1    N     N_2   0.954190 0.457600 0.473930 0.191571
N2    N     N_2   0.045810 0.542400 0.526070 0.175268
N3    N     N_R   0.317205 0.621683 0.053263 0.201524
O9    O     O_R   0.159879 0.634969 0.040576 -0.388670
O10   O     O_R   0.376465 0.718168 0.116454 -0.362533
N4    N     N_R   0.659908 0.329855 0.950323 0.204246
O11   O     O_R   0.805324 0.295043 0.972116 -0.389195
O12   O     O_R   0.605652 0.249662 0.877993 -0.354115
N5    N     N_R   0.729506 0.017342 0.525253 0.243892
O13   O     O_R   0.871599 0.992217 0.458620 -0.285329
O14   O     O_R   0.738616 0.075600 0.614671 -0.314531
N6    N     N_R   0.263271 0.984170 0.489098 0.241769
O15   O     O_R   0.127287 0.010725 0.560227 -0.307629
O16   O     O_R   0.243209 0.933569 0.399934 -0.318796
O17   O     O_3   0.040067 0.339599 0.420581 -0.500060
C13   C     C_3   0.040057 0.354276 0.317539 0.213485
H1    H     H_    0.177109 0.355729 0.274960 0.145664
H2    H     H_    0.986851 0.463703 0.301185 0.149174
C14   C     C_3   0.945256 0.214378 0.276445 -0.379372
H3    H     H_    0.008504 0.107687 0.287211 0.290186
H4    H     H_    0.807391 0.206505 0.317532 0.247843
C15   C     C_3   0.951811 0.225360 0.164144 -0.794153
H5    H     H_    0.894301 0.333593 0.150795 0.286627
H6    H     H_    0.876671 0.125495 0.136912 0.295639
H7    H     H_    0.088583 0.224170 0.120703 0.273883
O18   O     O_3   0.954341 0.660411 0.576075 -0.512810
C16   C     C_3   0.014105 0.705166 0.664386 0.222648
H8    H     H_    0.957796 0.817853 0.692431 0.199676
H9    H     H_    0.156195 0.727143 0.650034 0.172638
C17   C     C_3   0.949438 0.590932 0.747507 -0.439364
H10   H     H_    0.806122 0.574479 0.760460 0.249083
H11   H     H_    0.006452 0.477047 0.724671 0.269491
C18   C     C_3   0.995760 0.651790 0.846543 -0.774301
H12   H     H_    0.137769 0.678946 0.835695 0.268973
H13   H     H_    0.957241 0.563412 0.903671 0.315350
H14   H     H_    0.925341 0.757964 0.875210 0.270960

loop_
_geom_bond_atom_site_label_1
_geom_bond_atom_site_label_2
_geom_bond_distance
_ccdc_geom_bond_type
Zn2   N1    2.032477 S    
O5    C3    1.290756 A    
O7    Zn2   1.917352 S    
N5    O14   1.301537 A    
O17   C13   1.413814 S    
N3    O10   1.301623 A    
C14   H4    1.108686 S    
C14   H3    1.110688 S    
N5    O13   1.298650 A    
C15   H7    1.111165 S    
O6    C4    1.291624 A    
C18   H12   1.109022 S    
C16   C17   1.533133 S    
N4    O12   1.301647 A    
C7    C8    1.351013 D    
C1    C11   1.411046 S    
C18   H13   1.108531 S    
C8    N3    1.442810 S    
C11   C12   1.361305 D    
C15   H5    1.109596 S    
C12   N6    1.435022 S    
C13   H2    1.115463 S    
C11   N5    1.435956 S    
O2    C2    1.280107 A    
O3    Zn2   2.005069 S    
O8    C4    1.296790 A    
C6    C9    1.186627 T    
O1    C1    1.279363 A    
N4    O11   1.300537 A    
C17   C18   1.524402 S    
C15   H6    1.110360 S    
N6    O15   1.299500 A    
C4    C5    1.401415 S    
N6    O16   1.301513 A    
O7    C3    1.297656 A    
C5    C10   1.186946 T    
O2    Zn2   1.987385 S    
C14   C15   1.524338 S    
O1    Zn1   1.987386 S    
N1    N2    1.287454 D    
N2    O18   1.350121 S    
O5    Zn1   1.946432 S    
C7    C10   1.417074 S    
C13   H1    1.108775 S    
C17   H10   1.106184 S    
C13   C14   1.527473 S    
O4    C2    1.296768 A    
C8    C9    1.415168 S    
C3    C6    1.400905 S    
C18   H14   1.110927 S    
O4    Zn1   2.005070 S    
C16   H8    1.110677 S    
O18   C16   1.405965 S    
O6    Zn2   1.946429 S    
C16   H9    1.100780 S    
N3    O9    1.300505 A    
N1    O17   1.346578 S    
C7    N4    1.445845 S    
Zn1   N2    2.032478 S    
C17   H11   1.110160 S    
O3    C1    1.298665 A    
O8    Zn1   1.917351 S    
C2    C12   1.407722 S    
