data_mof_unit_65972.cif
_audit_creation_date              2012-12-10T19:18:41-0500
_audit_creation_method            fapswitch 2.2
_symmetry_space_group_name_H-M    P1
_symmetry_Int_Tables_number       1
_space_group_crystal_system       triclinic
_cell_length_a                    14.763574
_cell_length_b                    15.996742
_cell_length_c                    17.31533
_cell_angle_alpha                 90.016772
_cell_angle_beta                  85.501326
_cell_angle_gamma                 89.943721
_cell_volume                      4076.74471938

loop_
_atom_site_label
_atom_site_type_symbol
_atom_type_description
_atom_site_fract_x
_atom_site_fract_y
_atom_site_fract_z
_atom_type_partial_charge
C1    C     C_R   0.499985 0.659127 0.499912 0.829592
C2    C     C_1   0.500282 0.823195 0.499946 0.023466
C3    C     C_1   0.499951 0.748176 0.499873 -0.113650
C4    C     C_1   0.500049 0.251823 0.500125 -0.113666
C5    C     C_R   0.050840 0.436244 0.461423 0.189852
C6    C     C_R   0.949160 0.563755 0.538578 0.189857
C7    C     C_R   0.097218 0.499341 0.499594 -0.048462
C8    C     C_R   0.902781 0.500658 0.500407 -0.048463
C9    C     C_R   0.045018 0.562750 0.537971 -0.195982
C10   C     C_R   0.954981 0.437249 0.462030 -0.195986
C11   C     C_1   0.197334 0.499800 0.499888 0.232173
C12   C     C_R   0.500015 0.340873 0.500088 0.829571
C13   C     C_1   0.802666 0.500199 0.500112 0.232183
C14   C     C_R   0.487939 0.497442 0.650205 0.823857
C15   C     C_R   0.512061 0.502557 0.349795 0.823858
C16   C     C_R   0.480000 0.494549 0.734560 -0.099598
C17   C     C_R   0.519999 0.505463 0.265443 -0.099563
C18   C     C_R   0.540053 0.446472 0.775407 0.147266
C19   C     C_R   0.460000 0.553611 0.224605 0.147246
C20   C     C_R   0.532350 0.448148 0.855718 -0.155046
C21   C     C_R   0.467714 0.551968 0.144292 -0.155053
C22   C     C_R   0.466077 0.497483 0.896512 0.041886
C23   C     C_R   0.421906 0.042992 0.480576 0.180495
C24   C     C_R   0.533940 0.502589 0.103492 0.041837
C25   C     C_R   0.403482 0.544048 0.855899 0.007529
C26   C     C_R   0.596464 0.455933 0.144098 0.007576
C27   C     C_R   0.411076 0.541119 0.774865 -0.244678
C28   C     C_R   0.588869 0.458836 0.225133 -0.244692
C29   C     C_2   0.462114 0.496789 0.981368 -0.136788
C30   C     C_2   0.537913 0.503312 0.018637 -0.136856
C31   C     C_2   0.332106 0.598755 0.894953 0.855158
C32   C     C_2   0.667764 0.401159 0.105033 0.855182
C33   C     C_R   0.578095 0.957008 0.519420 0.180495
C34   C     C_R   0.499075 0.087307 0.499857 0.045308
C35   C     C_R   0.500926 0.912693 0.500139 0.045307
C36   C     C_R   0.576719 0.044266 0.519169 -0.212281
C37   C     C_R   0.423282 0.955734 0.480827 -0.212275
C38   C     C_1   0.499718 0.176804 0.500051 0.023459
Cu1   Cu    Cu3+1 0.410780 0.500000 0.499980 1.038878
Cu2   Cu    Cu3+1 0.589220 0.500000 0.500020 1.038884
H1    H     H_    0.634682 0.422004 0.257413 0.196686
H2    H     H_    0.078835 0.611884 0.567714 0.172561
H3    H     H_    0.211558 0.657092 0.888622 0.355006
H4    H     H_    0.788221 0.342669 0.111354 0.355010
H5    H     H_    0.365215 0.577888 0.742582 0.196709
H6    H     H_    0.603827 0.508450 0.986388 0.182139
H7    H     H_    0.396206 0.491643 0.013625 0.182175
H8    H     H_    0.422258 0.590583 0.113397 0.196981
H9    H     H_    0.577853 0.409585 0.886614 0.197001
H10   H     H_    0.363764 0.921509 0.465961 0.182316
H11   H     H_    0.636238 0.078491 0.534035 0.182312
H12   H     H_    0.921165 0.388116 0.432287 0.172562
I1    I     I_    0.639718 0.364626 0.721535 -0.276722
I2    I     I_    0.360409 0.635510 0.278501 -0.276780
I3    I     I_    0.302007 0.104348 0.450761 -0.246066
I4    I     I_    0.697994 0.895652 0.549235 -0.246075
I5    I     I_    0.122314 0.337587 0.401811 -0.242768
I6    I     I_    0.877686 0.662412 0.598191 -0.242767
N1    N     N_1   0.723290 0.500020 0.499980 -0.138232
N2    N     N_1   0.276710 0.499980 0.500020 -0.138236
O1    O     O_R   0.424680 0.619690 0.499960 -0.569763
O2    O     O_R   0.254898 0.618974 0.856818 -0.746304
O3    O     O_2   0.658651 0.372021 0.040815 -0.587039
O4    O     O_R   0.744929 0.380813 0.143174 -0.746320
O5    O     O_R   0.575320 0.380310 0.500040 -0.569770
O6    O     O_R   0.575360 0.619690 0.500000 -0.556167
O7    O     O_R   0.424640 0.380310 0.500000 -0.556165
O8    O     O_R   0.415920 0.500010 0.613580 -0.583508
O9    O     O_R   0.584080 0.499990 0.386420 -0.583491
O10   O     O_R   0.566610 0.500010 0.613610 -0.548072
O11   O     O_R   0.433390 0.499990 0.386390 -0.548074
O12   O     O_2   0.341195 0.627952 0.959153 -0.587015

loop_
_geom_bond_atom_site_label_1
_geom_bond_atom_site_label_2
_ccdc_geom_bond_type
C2    C35   S    
C25   C31   S    
C7    C11   S    
C5    C7    A    
C26   C32   S    
C20   H9    S    
C13   N1    T    
C22   C29   S    
C25   C27   A    
C15   O11   A    
Cu1   O8    S    
C6    I6    S    
C26   C28   A    
C5    I5    S    
C21   H8    S    
C10   H12   S    
C23   C34   A    
C6    C9    A    
C2    C3    T    
C5    C10   A    
Cu2   N1    S    
Cu2   O6    S    
H4    O4    S    
C23   I3    S    
C37   H10   S    
C14   O10   A    
C31   O2    S    
C27   H5    S    
C9    H2    S    
C29   C30   D    
C36   H11   S    
Cu2   O10   S    
C34   C38   S    
C29   H7    S    
C15   O9    A    
Cu1   N2    S    
C6    C8    A    
C19   I2    S    
C16   C27   A    
C31   O12   D    
C33   C35   A    
C4    C38   T    
C1    O6    A    
C34   C36   A    
Cu2   O5    S    
Cu1   O1    S    
C12   O7    A    
C24   C30   S    
H3    O2    S    
C1    C3    S    
C4    C12   S    
Cu2   O9    S    
C11   N2    T    
C8    C13   S    
C7    C9    A    
C28   H1    S    
C33   C36   A    
C32   O4    S    
C18   C20   A    
C16   C18   A    
C33   I4    S    
C12   O5    A    
C21   C24   A    
Cu1   Cu2   S    
C15   C17   S    
Cu1   O11   S    
C17   C19   A    
C14   O8    A    
C18   I1    S    
C35   C37   A    
C14   C16   S    
C23   C37   A    
C17   C28   A    
Cu1   O7    S    
C30   H6    S    
C8    C10   A    
C24   C26   A    
C32   O3    D    
C20   C22   A    
C19   C21   A    
C22   C25   A    
C1    O1    A    
