data_mof_unit_46767.cif
_audit_creation_date              2012-12-10T20:36:38-0500
_audit_creation_method            fapswitch 2.2
_symmetry_space_group_name_H-M    P1
_symmetry_Int_Tables_number       1
_space_group_crystal_system       triclinic
_cell_length_a                    10.50582
_cell_length_b                    10.614006
_cell_length_c                    9.849218
_cell_angle_alpha                 90.599825
_cell_angle_beta                  89.207833
_cell_angle_gamma                 90.152396
_cell_volume                      1098.10621807

loop_
_atom_site_label
_atom_site_type_symbol
_atom_type_description
_atom_site_fract_x
_atom_site_fract_y
_atom_site_fract_z
_atom_type_partial_charge
C1    C     C_R   0.496872 0.259312 0.499305 0.873208
C2    C     C_3   0.964606 0.495638 0.370818 0.043079
C3    C     C_3   0.044796 0.394989 0.440583 -0.211026
C4    C     C_3   0.123048 0.502371 0.502472 0.001939
C5    C     C_R   0.455735 0.065226 0.620473 0.087336
C6    C     C_R   0.471892 0.127592 0.498232 -0.095010
C7    C     C_R   0.449871 0.062663 0.376100 -0.226478
C8    C     C_R   0.440541 0.932540 0.378027 -0.204937
C9    C     C_R   0.452666 0.869800 0.502256 -0.149722
C10   C     C_R   0.436998 0.938049 0.623967 0.016412
C11   C     C_3   0.500998 0.929034 0.760210 0.278277
C12   C     C_R   0.257482 0.501008 0.500940 0.869796
C13   C     C_3   0.532641 0.068280 0.746322 -0.472161
C14   C     C_R   0.441349 0.405494 0.070651 0.132050
C15   C     C_R   0.572862 0.584481 0.073507 0.530035
C16   C     C_R   0.573350 0.582795 0.927466 -0.278372
C17   C     C_R   0.442806 0.404475 0.928567 0.207210
C18   C     C_3   0.307403 0.363227 0.922447 -0.490009
C19   C     C_3   0.304532 0.367989 0.077037 -0.491055
C20   C     C_R   0.487882 0.739718 0.500965 0.875778
C21   C     C_R   0.742653 0.500357 0.498865 0.886163
C22   C     C_3   0.037998 0.508579 0.630107 -0.161940
C23   C     C_3   0.956607 0.401381 0.567792 -0.195121
C24   C     C_3   0.877605 0.501499 0.496246 -0.061386
C25   C     C_3   0.957793 0.607200 0.557085 0.038494
C26   C     C_3   0.045470 0.603187 0.430550 -0.265734
H1    H     H_    0.916454 0.319395 0.623043 0.150436
H2    H     H_    0.586164 0.867246 0.762953 0.114782
H3    H     H_    0.489705 0.129776 0.826622 0.226212
H4    H     H_    0.635262 0.086305 0.724763 0.157713
H5    H     H_    0.631605 0.647842 0.870189 0.163452
H6    H     H_    0.245230 0.433219 0.874110 0.205455
H7    H     H_    0.298072 0.266049 0.880581 0.207546
H8    H     H_    0.242388 0.443814 0.119486 0.222454
H9    H     H_    0.290808 0.273933 0.123687 0.201932
H10   H     H_    0.071197 0.515115 0.736353 0.141843
H11   H     H_    0.085857 0.685122 0.375294 0.138666
H12   H     H_    0.085257 0.308517 0.392621 0.138332
H13   H     H_    0.450259 0.110185 0.279271 0.171768
H14   H     H_    0.436961 0.881923 0.282106 0.163295
N1    N     N_R   0.499140 0.499140 0.142800 -0.144658
N2    N     N_R   0.499140 0.499180 0.857150 -0.131808
O1    O     O_R   0.500020 0.316790 0.614690 -0.611213
O2    O     O_R   0.500000 0.316760 0.385350 -0.624784
O3    O     O_R   0.313960 0.499990 0.614650 -0.637350
O4    O     O_R   0.313940 0.499950 0.385310 -0.629909
O5    O     O_R   0.500000 0.683240 0.614650 -0.652560
O6    O     O_R   0.499980 0.683210 0.385310 -0.585242
O7    O     O_R   0.686060 0.500050 0.614690 -0.613182
O8    O     O_R   0.686040 0.500010 0.385350 -0.573867
Zn1   Zn    Zn3+2 0.500010 0.500020 0.653130 0.930285
Zn2   Zn    Zn3+2 0.499990 0.499980 0.346870 0.982231
O9    O     O_3   0.653272 0.661000 0.149400 -0.602158
C27   C     C_3   0.666197 0.784716 0.098937 0.042480
H15   H     H_    0.652727 0.850632 0.186196 0.178184
H16   H     H_    0.593149 0.811140 0.023772 0.150552
C28   C     C_3   0.801142 0.803860 0.042269 -0.349756
H17   H     H_    0.870806 0.782165 0.122611 0.236475
H18   H     H_    0.818870 0.738511 0.955367 0.229290
C29   C     C_3   0.822191 0.939113 0.995907 -0.925279
H19   H     H_    0.755047 0.962657 0.914060 0.268788
H20   H     H_    0.920974 0.949907 0.956103 0.270267
H21   H     H_    0.808026 0.005867 0.082382 0.262938
C30   C     C_1   0.906810 0.722867 0.619832 0.131942
N3    N     N_1   0.866417 0.814065 0.669023 -0.242336
C31   C     C_1   0.926036 0.487720 0.228263 0.198230
N4    N     N_1   0.896015 0.481317 0.115802 -0.203320
O10   O     O_3   0.417932 0.916052 0.874236 -0.649985
C32   C     C_3   0.329197 0.817232 0.858942 0.095800
H22   H     H_    0.376959 0.727486 0.831036 0.170139
H23   H     H_    0.258804 0.841601 0.780066 0.159528
C33   C     C_3   0.258753 0.800700 0.994648 -0.346701
H24   H     H_    0.324923 0.760618 0.069946 0.208693
H25   H     H_    0.225984 0.894108 0.033305 0.238718
C34   C     C_3   0.143184 0.714636 0.981187 -0.969912
H26   H     H_    0.073439 0.755582 0.910451 0.273738
H27   H     H_    0.096729 0.702926 0.082201 0.265029
H28   H     H_    0.172691 0.620985 0.942603 0.259998

loop_
_geom_bond_atom_site_label_1
_geom_bond_atom_site_label_2
_ccdc_geom_bond_type
C8    C9    A    
C3    C23   S    
C21   O7    A    
C7    C8    A    
O9    C27   S    
C16   H5    S    
C29   H21   S    
C15   O9    S    
C13   H3    S    
C5    C6    A    
C28   H18   S    
O3    Zn1   S    
C15   C16   A    
O4    Zn2   S    
C29   H20   S    
C18   C19   S    
C32   H23   S    
C17   N2    A    
C9    C20   S    
C1    O1    A    
C3    H12   S    
O10   C32   S    
O7    Zn1   S    
C22   C25   S    
O8    Zn2   S    
C23   C24   S    
C23   H1    S    
C4    C12   S    
C9    C10   A    
N1    Zn2   S    
C5    C13   S    
N2    Zn1   S    
O2    Zn2   S    
C31   N4    T    
C14   C17   A    
C33   C34   S    
C21   O8    A    
C18   H7    S    
C27   H16   S    
C1    C6    S    
C13   H4    S    
C24   C25   S    
C15   N1    A    
C33   H25   S    
C33   H24   S    
C28   C29   S    
O5    Zn1   S    
C25   C26   S    
C29   H19   S    
C25   C30   S    
C32   C33   S    
C34   H26   S    
C4    C22   S    
C1    O2    A    
C17   C18   S    
C2    C26   S    
C34   H27   S    
C20   O6    A    
C14   N1    A    
C12   O4    A    
C2    C24   S    
C18   H6    S    
C3    C4    S    
C16   N2    A    
C11   O10   S    
C27   H15   S    
C14   C19   S    
C12   O3    A    
C2    C31   S    
C19   H8    S    
C4    C26   S    
C26   H11   S    
C6    C7    A    
C22   H10   S    
C30   N3    T    
C2    C3    S    
C5    C10   A    
C19   H9    S    
C11   C13   S    
O1    Zn1   S    
C28   H17   S    
C11   H2    S    
C32   H22   S    
C34   H28   S    
C20   O5    A    
C10   C11   S    
O6    Zn2   S    
C21   C24   S    
C7    H13   S    
C22   C23   S    
C8    H14   S    
C27   C28   S    
