data_mof_unit_27777.cif
_audit_creation_date              2012-10-26T18:40:22-0400
_audit_creation_method            fapswitch 2.2
_symmetry_space_group_name_H-M    P1
_symmetry_Int_Tables_number       1
_space_group_crystal_system       triclinic
_cell_length_a                    8.848277
_cell_length_b                    15.114075
_cell_length_c                    14.012273
_cell_angle_alpha                 89.06989
_cell_angle_beta                  97.943167
_cell_angle_gamma                 94.088382
_cell_volume                      1851.17015671

loop_
_atom_site_label
_atom_site_type_symbol
_atom_type_description
_atom_site_fract_x
_atom_site_fract_y
_atom_site_fract_z
_atom_type_partial_charge
C1    C     C_R   0.499157 0.330702 0.500686 0.587116
C2    C     C_R   0.549857 0.574719 0.897400 -0.040275
C3    C     C_R   0.499752 0.495987 0.054708 0.004107
C4    C     C_R   0.503335 0.496835 0.946092 0.017166
C5    C     C_R   0.204787 0.501616 0.475462 0.573635
C6    C     C_R   0.795553 0.499468 0.524772 0.565297
C7    C     C_2   0.039857 0.506740 0.462215 0.254735
C8    C     C_2   0.961153 0.496277 0.538854 0.265030
C9    C     C_R   0.341315 0.094605 0.503188 0.056546
C10   C     C_R   0.499577 0.910627 0.414738 0.011806
C11   C     C_R   0.350562 0.188192 0.501168 0.191699
C12   C     C_R   0.490899 0.669839 0.498316 0.572405
C13   C     C_R   0.501953 0.817403 0.412917 0.198655
C14   C     C_R   0.493926 0.234655 0.502561 0.009567
C15   C     C_R   0.470152 0.766396 0.494344 -0.012833
C16   C     C_R   0.629334 0.189827 0.506651 0.266041
C17   C     C_R   0.416011 0.808137 0.571665 0.194738
C18   C     C_R   0.620612 0.097503 0.509087 0.315853
C19   C     C_R   0.426734 0.901050 0.577207 0.281456
C20   C     C_R   0.476355 0.049462 0.505077 -0.019583
C21   C     C_R   0.466312 0.951750 0.498445 -0.037126
C22   C     C_2   0.192823 0.043994 0.507940 0.633123
C23   C     C_R   0.628860 0.527526 0.117457 0.214085
C24   C     C_2   0.540993 0.965231 0.331613 0.604790
C25   C     C_2   0.704936 0.626565 0.255934 0.649133
C26   C     C_2   0.364179 0.348676 0.735070 0.698580
C27   C     C_2   0.260138 0.400933 0.239549 0.677137
C28   C     C_2   0.654008 0.645134 0.756325 0.621561
C29   C     C_2   0.225452 0.435666 0.033724 0.631174
C30   C     C_2   0.582022 0.659885 0.950980 0.690705
C31   C     C_R   0.460646 0.419911 0.889909 0.210387
C32   C     C_R   0.614841 0.545046 0.215032 0.171346
C33   C     C_R   0.443638 0.425898 0.788062 0.213421
C34   C     C_R   0.381346 0.455536 0.199222 0.128663
C35   C     C_R   0.563053 0.571712 0.797156 0.132101
C36   C     C_R   0.370411 0.462925 0.096676 -0.029266
Cu1   Cu    Cu3+1 0.500000 0.499990 0.596430 1.104370
Cu2   Cu    Cu3+1 0.500000 0.500010 0.403570 1.109096
H1    H     H_    0.038517 0.551371 0.330530 0.357152
H2    H     H_    0.382317 0.901513 0.710250 0.404585
H3    H     H_    0.850106 0.549730 0.135648 0.366348
H4    H     H_    0.484308 0.337021 0.998019 0.345671
H5    H     H_    0.807077 0.746353 0.227601 0.377168
H6    H     H_    0.354917 0.216789 0.712135 0.367250
H7    H     H_    0.036304 0.382907 0.253649 0.368141
H8    H     H_    0.686017 0.776736 0.732822 0.352921
H9    H     H_    0.054731 0.341537 0.997395 0.368997
H10   H     H_    0.806937 0.669692 0.936976 0.339397
H11   H     H_    0.963483 0.469104 0.677035 0.369094
H12   H     H_    0.022477 0.013004 0.586681 0.376181
H13   H     H_    0.687370 0.989716 0.234465 0.372987
H14   H     H_    0.128527 0.198545 0.478156 0.383983
H15   H     H_    0.497114 0.809066 0.273784 0.366273
H16   H     H_    0.766770 0.298056 0.508530 0.313013
H17   H     H_    0.286203 0.708537 0.608378 0.346060
H18   H     H_    0.741414 0.993957 0.533730 0.318045
N1    N     N_R   0.500000 0.500020 0.258690 -0.311392
N2    N     N_R   0.500000 0.499980 0.741310 -0.311338
O1    O     O_R   0.500010 0.371450 0.581430 -0.501660
O2    O     O_3   0.037117 0.483501 0.631021 -0.641085
O3    O     O_2   0.142543 0.989276 0.446164 -0.456613
O4    O     O_R   0.113682 0.057234 0.585576 -0.609754
O5    O     O_2   0.462363 0.025275 0.299975 -0.458736
O6    O     O_R   0.670785 0.948105 0.290114 -0.627850
O7    O     O_3   0.222893 0.237064 0.496129 -0.622412
O8    O     O_3   0.532778 0.774550 0.332194 -0.617474
O9    O     O_3   0.773254 0.233065 0.509327 -0.600514
O10   O     O_3   0.346126 0.760403 0.640299 -0.629748
O11   O     O_3   0.756599 0.056826 0.514453 -0.605022
O12   O     O_R   0.499990 0.628550 0.418570 -0.424133
O13   O     O_3   0.396230 0.944711 0.657779 -0.638113
O14   O     O_3   0.765653 0.544655 0.081164 -0.661661
O15   O     O_3   0.429557 0.338146 0.931487 -0.622914
O16   O     O_2   0.741644 0.637231 0.341958 -0.410394
O17   O     O_R   0.747119 0.693864 0.192901 -0.621876
O18   O     O_2   0.246874 0.357316 0.679770 -0.408247
O19   O     O_R   0.420573 0.264799 0.751149 -0.623217
O20   O     O_2   0.287661 0.329181 0.276701 -0.435265
O21   O     O_R   0.110548 0.427458 0.226440 -0.680419
O22   O     O_2   0.770119 0.630185 0.723219 -0.476825
O23   O     O_R   0.500010 0.371460 0.418560 -0.470906
O24   O     O_R   0.612952 0.732357 0.761314 -0.623147
O25   O     O_2   0.172227 0.486292 0.970955 -0.457854
O26   O     O_R   0.151525 0.351995 0.044881 -0.618653
O27   O     O_2   0.479623 0.691155 0.986769 -0.391681
O28   O     O_R   0.727510 0.704275 0.962756 -0.560398
O29   O     O_R   0.499990 0.628540 0.581440 -0.496144
O30   O     O_R   0.274840 0.499990 0.562640 -0.434949
O31   O     O_R   0.725160 0.500010 0.437360 -0.440920
O32   O     O_R   0.274840 0.500000 0.399770 -0.524837
O33   O     O_R   0.725160 0.500000 0.600230 -0.501901
O34   O     O_3   0.965241 0.522425 0.370677 -0.691659

loop_
_geom_bond_atom_site_label_1
_geom_bond_atom_site_label_2
_ccdc_geom_bond_type
C2    C35   A    
Cu2   O12   S    
C33   N2    A    
H2    O13   S    
Cu1   O30   S    
C3    C23   A    
C27   O20   D    
H17   O10   S    
C7    C8    D    
Cu2   O31   S    
H11   O2    S    
C35   N2    A    
H6    O19   S    
C19   C21   A    
C29   O25   D    
C27   O21   S    
C1    O1    A    
C11   C14   A    
C9    C22   S    
C31   O15   S    
C1    O23   A    
C6    O33   A    
C25   O16   D    
C9    C20   A    
H8    O24   S    
C5    O30   A    
C19   O13   S    
C28   C35   S    
C17   O10   S    
C34   N1    A    
C26   O18   D    
C31   C33   A    
C14   C16   A    
C30   O28   S    
C18   C20   A    
Cu1   N2    S    
C25   C32   S    
C24   O6    S    
C32   N1    A    
C13   O8    S    
C27   C34   S    
H5    O17   S    
C26   O19   S    
Cu1   O33   S    
C28   O24   S    
C29   O26   S    
C5    C7    S    
C6    C8    S    
H16   O9    S    
C10   C24   S    
C25   O17   S    
C2    C4    A    
Cu1   Cu2   S    
C22   O4    S    
Cu2   N1    S    
C26   C33   S    
C29   C36   S    
C12   C15   S    
H7    O21   S    
C16   O9    S    
H9    O26   S    
C30   O27   D    
H15   O8    S    
C9    C11   A    
Cu1   O1    S    
H3    O14   S    
C24   O5    D    
C13   C15   A    
Cu2   O23   S    
H12   O4    S    
H10   O28   S    
C3    C4    S    
H1    O34   S    
C15   C17   A    
C12   O12   A    
H4    O15   S    
C12   O29   A    
C23   O14   S    
Cu1   O29   S    
H13   O6    S    
C5    O32   A    
C10   C13   A    
C10   C21   A    
C6    O31   A    
Cu2   O32   S    
C2    C30   S    
C23   C32   A    
C8    O2    S    
C22   O3    D    
C3    C36   A    
C18   O11   S    
C7    O34   S    
C17   C19   A    
C34   C36   A    
C28   O22   D    
C4    C31   A    
C20   C21   S    
C16   C18   A    
H18   O11   S    
C1    C14   S    
H14   O7    S    
C11   O7    S    
