data_mof_unit_37603.cif
_audit_creation_date              2012-12-10T17:34:54-0500
_audit_creation_method            fapswitch 2.2
_symmetry_space_group_name_H-M    P1
_symmetry_Int_Tables_number       1
_space_group_crystal_system       triclinic
_cell_length_a                    11.986428
_cell_length_b                    12.89398
_cell_length_c                    15.767173
_cell_angle_alpha                 90.055035
_cell_angle_beta                  86.645522
_cell_angle_gamma                 93.294967
_cell_volume                      2428.65630974

loop_
_atom_site_label
_atom_site_type_symbol
_atom_type_description
_atom_site_fract_x
_atom_site_fract_y
_atom_site_fract_z
_atom_type_partial_charge
C1    C     C_R   0.522093 0.700461 0.499177 0.900606
C2    C     C_R   0.535967 0.811802 0.497991 -0.102024
C3    C     C_R   0.652668 0.969914 0.473807 0.208614
C4    C     C_R   0.500517 0.499922 0.661622 0.910181
C5    C     C_R   0.641020 0.861588 0.478334 -0.234614
C6    C     C_R   0.441731 0.868079 0.515191 -0.271361
C7    C     C_R   0.450308 0.974466 0.510495 0.155138
C8    C     C_R   0.555621 0.026122 0.489101 0.100875
C9    C     C_R   0.560901 0.133122 0.482685 -0.262896
C10   C     C_R   0.361773 0.136833 0.521804 -0.193682
C11   C     C_R   0.354131 0.029644 0.526311 -0.190241
C12   C     C_3   0.376854 0.516486 0.053122 -0.016036
C13   C     C_R   0.952311 0.395087 0.425731 -0.101196
C14   C     C_R   0.836312 0.406886 0.432879 -0.024269
C15   C     C_R   0.859353 0.545261 0.530568 -0.051622
C16   C     C_R   0.478045 0.299553 0.500365 0.883294
C17   C     C_R   0.976350 0.536994 0.525840 0.077661
C18   C     C_R   0.024005 0.460981 0.472779 0.031290
C19   C     C_R   0.141795 0.454081 0.468942 -0.034468
C20   C     C_R   0.162280 0.592615 0.566883 0.032007
C21   C     C_R   0.046366 0.602827 0.573009 -0.313576
C22   C     C_R   0.499473 0.499980 0.338406 0.912618
C23   C     C_3   0.497936 0.498157 0.083182 0.195324
C24   C     C_3   0.380404 0.508627 0.954152 -0.482943
C25   C     C_3   0.579557 0.590892 0.948450 -0.136665
C26   C     C_3   0.579108 0.588429 0.046561 -0.452069
C27   C     C_1   0.498186 0.499529 0.249876 -0.168059
C28   C     C_3   0.502674 0.498585 0.917001 0.184682
C29   C     C_1   0.339157 0.619513 0.080097 0.183244
C30   C     C_1   0.291537 0.439511 0.090704 0.125858
C31   C     C_3   0.730845 0.402182 0.103366 -0.713960
C32   C     C_3   0.851476 0.968498 0.417504 -0.771972
C33   C     C_1   0.994619 0.315180 0.370429 0.132274
C34   C     C_3   0.534364 0.390130 0.047390 0.029594
C35   C     C_1   0.546002 0.692655 0.918596 0.179807
C36   C     C_1   0.658872 0.374643 0.911640 0.193427
C37   C     C_3   0.545257 0.393548 0.948195 -0.217336
C38   C     C_1   0.497766 0.498925 0.174794 -0.045572
C39   C     C_1   0.502432 0.498879 0.825312 -0.068378
C40   C     C_1   0.501737 0.499354 0.750213 -0.171123
C41   C     C_R   0.465461 0.188191 0.500786 -0.052409
H1    H     H_    0.327950 0.440028 0.933454 0.175320
H2    H     H_    0.011844 0.661752 0.614180 0.143903
H3    H     H_    0.780568 0.356735 0.397289 0.141672
H4    H     H_    0.821494 0.602948 0.571153 0.129919
H5    H     H_    0.666786 0.582758 0.922165 0.140955
H6    H     H_    0.554722 0.663775 0.074541 0.184422
H7    H     H_    0.665590 0.582358 0.065659 0.177119
H8    H     H_    0.489821 0.329048 0.924169 0.121397
H9    H     H_    0.462191 0.333949 0.063064 0.118407
H10   H     H_    0.638607 0.268077 0.068855 0.232407
H11   H     H_    0.716970 0.459502 0.154729 0.241486
H12   H     H_    0.639616 0.174323 0.463746 0.170528
H13   H     H_    0.768448 0.440664 0.044869 0.239316
H14   H     H_    0.792076 0.348517 0.125948 0.233756
H15   H     H_    0.782776 0.076470 0.501856 0.223334
H16   H     H_    0.920807 0.025342 0.396828 0.253460
H17   H     H_    0.824403 0.925173 0.360605 0.252458
H18   H     H_    0.883271 0.914590 0.464167 0.229016
H19   H     H_    0.287476 0.179282 0.535680 0.163327
H20   H     H_    0.273552 0.989980 0.542697 0.138336
H21   H     H_    0.712941 0.815517 0.466856 0.175429
H22   H     H_    0.360685 0.829127 0.531636 0.163859
H23   H     H_    0.181619 0.397172 0.428829 0.141607
H24   H     H_    0.343926 0.577148 0.925574 0.193043
H25   H     H_    0.216225 0.643599 0.603115 0.129025
N1    N     N_R   0.207800 0.519340 0.515510 -0.104268
N2    N     N_R   0.792190 0.480660 0.484490 -0.107761
N3    N     N_1   0.309761 0.700024 0.101146 -0.197267
N4    N     N_1   0.224928 0.379379 0.120110 -0.186081
N5    N     N_2   0.627325 0.343724 0.087394 -0.293986
N6    N     N_2   0.759646 0.023460 0.456159 -0.313801
N7    N     N_1   0.028459 0.251109 0.326120 -0.192477
N8    N     N_1   0.519708 0.772221 0.895229 -0.200113
N9    N     N_1   0.747417 0.359720 0.882603 -0.207027
O1    O     O_R   0.421690 0.658830 0.504140 -0.628247
O2    O     O_R   0.609320 0.646410 0.494190 -0.631582
O3    O     O_R   0.406150 0.506210 0.627840 -0.618192
O4    O     O_R   0.593770 0.493790 0.617880 -0.610396
O5    O     O_R   0.390680 0.353590 0.505810 -0.628631
O6    O     O_R   0.578310 0.341170 0.495860 -0.629980
O7    O     O_R   0.406230 0.506210 0.382120 -0.609575
O8    O     O_R   0.593850 0.493790 0.372160 -0.618229
Zn1   Zn    Zn3+2 0.374720 0.508290 0.506640 0.954263
Zn2   Zn    Zn3+2 0.625280 0.491710 0.493360 0.949826

loop_
_geom_bond_atom_site_label_1
_geom_bond_atom_site_label_2
_ccdc_geom_bond_type
C35   N8    T    
C12   C29   S    
C34   C37   S    
C24   H1    S    
C20   N1    A    
C32   H17   S    
C31   H11   S    
O5    Zn1   S    
O1    Zn1   S    
C7    C8    A    
C32   N6    S    
C25   C28   S    
C7    C11   A    
C12   C23   S    
C13   C18   A    
C22   O7    A    
C20   H25   S    
C36   C37   S    
C1    C2    S    
C27   C38   T    
C1    O2    A    
C4    O3    A    
C23   C26   S    
C21   H2    S    
C4    C40   S    
C8    C9    A    
H15   N6    S    
C19   N1    A    
C26   H7    S    
C31   N5    S    
O2    Zn2   S    
N1    Zn1   S    
C13   C14   A    
C10   C41   A    
N2    Zn2   S    
C2    C6    A    
H10   N5    S    
C32   H16   S    
C30   N4    T    
C29   N3    T    
C34   H9    S    
C4    O4    A    
C3    C8    A    
C39   C40   T    
C18   C19   A    
C28   C39   S    
C11   H20   S    
C25   C26   S    
C17   C21   A    
C16   O5    A    
C6    H22   S    
C10   H19   S    
C13   C33   S    
C36   N9    T    
C37   H8    S    
C19   H23   S    
C23   C34   S    
C17   C18   A    
C26   H6    S    
C25   C35   S    
C24   H24   S    
C33   N7    T    
O8    Zn2   S    
O7    Zn1   S    
C22   C27   S    
C2    C5    A    
C9    H12   S    
C15   H4    S    
O4    Zn2   S    
C14   H3    S    
C15   C17   A    
C12   C30   S    
C1    O1    A    
C24   C28   S    
C3    C5    A    
C6    C7    A    
C23   C38   S    
C12   C24   S    
C9    C41   A    
C22   O8    A    
C3    N6    S    
C28   C37   S    
C15   N2    A    
C34   N5    S    
C16   O6    A    
C5    H21   S    
C31   H13   S    
C10   C11   A    
O3    Zn1   S    
C20   C21   A    
C14   N2    A    
C32   H18   S    
C31   H14   S    
C25   H5    S    
O6    Zn2   S    
C16   C41   S    
