data_mof_unit_57208.cif
_audit_creation_date              2012-10-26T19:43:50-0400
_audit_creation_method            fapswitch 2.2
_symmetry_space_group_name_H-M    P1
_symmetry_Int_Tables_number       1
_space_group_crystal_system       triclinic
_cell_length_a                    12.494852
_cell_length_b                    13.207428
_cell_length_c                    13.807659
_cell_angle_alpha                 108.136391
_cell_angle_beta                  73.622303
_cell_angle_gamma                 117.250278
_cell_volume                      1898.67332094

loop_
_atom_site_label
_atom_site_type_symbol
_atom_type_description
_atom_site_fract_x
_atom_site_fract_y
_atom_site_fract_z
_atom_type_partial_charge
C1    C     C_R   0.144354 0.714531 0.510613 0.550067
C2    C     C_R   0.567454 0.013065 0.490810 0.019771
C3    C     C_R   0.606971 0.931167 0.414686 -0.000947
C4    C     C_R   0.981078 0.500711 0.685950 0.550844
C5    C     C_R   0.521612 0.824240 0.372414 -0.131608
C6    C     C_R   0.398282 0.799287 0.402774 -0.082885
C7    C     C_R   0.653382 0.128424 0.512661 -0.151033
C8    C     C_R   0.816179 0.075868 0.398842 0.279374
C9    C     C_R   0.228746 0.840093 0.525128 -0.077563
C10   C     C_R   0.664484 0.700702 0.644272 -0.131453
C11   C     C_R   0.251277 0.352999 0.357188 0.055768
C12   C     C_1   0.964554 0.494519 0.790664 -0.041767
C13   C     C_R   0.356607 0.334239 0.311795 -0.039484
C14   C     C_R   0.460638 0.398681 0.358106 -0.130615
C15   C     C_R   0.459646 0.477798 0.454274 -0.060889
C16   C     C_R   0.856706 0.285562 0.484447 0.552338
C17   C     C_R   0.353690 0.504332 0.492974 0.186890
C18   C     C_R   0.562251 0.536672 0.510218 -0.030106
C19   C     C_R   0.569198 0.638488 0.586407 -0.017975
C20   C     C_R   0.477808 0.676303 0.609864 -0.143503
C21   C     C_R   0.364027 0.603645 0.578947 0.310289
C22   C     C_R   0.657548 0.499897 0.497891 0.141842
C23   C     C_R   0.731048 0.960859 0.374503 -0.103941
C24   C     C_R   0.752525 0.659911 0.629859 0.062915
C25   C     C_R   0.016254 0.495271 0.313433 0.533479
C26   C     C_1   0.027751 0.493936 0.207522 -0.030790
C27   C     C_2   0.043939 0.494804 0.012157 0.301516
C28   C     C_2   0.943320 0.482929 0.983823 0.302746
C29   C     C_1   0.952848 0.488952 0.878382 -0.019409
C30   C     C_1   0.036286 0.493818 0.118733 -0.010942
C31   C     C_3   0.735642 0.446098 0.014777 -0.114162
C32   C     C_1   0.657061 0.392834 0.428160 0.261685
C33   C     C_1   0.359871 0.252672 0.214480 0.173734
C34   C     C_R   0.776270 0.160787 0.467406 0.002388
C35   C     C_3   0.268892 0.690649 0.733929 -0.106409
C36   C     C_3   0.247045 0.515432 0.977135 -0.126429
C37   C     C_3   0.948927 0.115891 0.251049 -0.115922
C38   C     C_1   0.065435 0.914291 0.606564 0.264682
C39   C     C_3   0.505606 0.088204 0.748296 -0.131900
C40   C     C_3   0.189001 0.077285 0.813125 -0.089436
C41   C     C_R   0.189404 0.926213 0.592321 -0.071374
C42   C     C_R   0.272922 0.027673 0.645791 0.289121
C43   C     C_R   0.396958 0.048993 0.623820 0.281183
C44   C     C_R   0.441433 0.979744 0.534754 -0.008179
C45   C     C_R   0.355610 0.872236 0.487551 -0.019937
Cu1   Cu    Cu3+1 0.899780 0.525060 0.522890 0.976460
Cu2   Cu    Cu3+1 0.100220 0.474940 0.477110 1.010995
H1    H     H_    0.336997 0.722687 0.357394 0.136844
H2    H     H_    0.715255 0.365847 0.952395 0.124838
H3    H     H_    0.750782 0.522361 0.986186 0.117511
H4    H     H_    0.654328 0.431397 0.076552 0.153061
H5    H     H_    0.327235 0.785435 0.742887 0.082782
H6    H     H_    0.295992 0.648353 0.775552 0.148627
H7    H     H_    0.176214 0.685016 0.771469 0.133360
H8    H     H_    0.221615 0.433673 0.001886 0.125825
H9    H     H_    0.275526 0.592804 0.041321 0.114428
H10   H     H_    0.326785 0.524996 0.914072 0.151085
H11   H     H_    0.045050 0.135988 0.212810 0.135618
H12   H     H_    0.825692 0.706270 0.674890 0.138193
H13   H     H_    0.926621 0.188657 0.251694 0.119985
H14   H     H_    0.891492 0.033219 0.203618 0.107000
H15   H     H_    0.571543 0.050641 0.699269 0.122236
H16   H     H_    0.425283 0.020318 0.784999 0.094323
H17   H     H_    0.551560 0.158126 0.811068 0.149056
H18   H     H_    0.262884 0.083054 0.846927 0.135551
H19   H     H_    0.114267 0.988287 0.807820 0.091133
H20   H     H_    0.150469 0.138992 0.867146 0.146878
H21   H     H_    0.491888 0.759869 0.662318 0.101811
H22   H     H_    0.668832 0.778880 0.702804 0.103666
H23   H     H_    0.171672 0.306245 0.319776 0.146371
H24   H     H_    0.543549 0.391608 0.313256 0.143408
H25   H     H_    0.550261 0.763451 0.309876 0.103791
H26   H     H_    0.761227 0.896596 0.318933 0.124126
H27   H     H_    0.624548 0.196692 0.558808 0.207224
N1    N     N_R   0.748810 0.563010 0.557590 -0.249076
N2    N     N_R   0.250540 0.437620 0.443020 -0.236119
N3    N     N_1   0.655975 0.306619 0.371777 -0.308238
N4    N     N_1   0.362506 0.187209 0.136279 -0.320496
N5    N     N_1   0.967070 0.907038 0.617715 -0.301401
O1    O     O_R   0.025040 0.682470 0.528790 -0.498956
O2    O     O_3   0.267385 0.635311 0.627896 -0.510665
O3    O     O_3   0.150690 0.509932 0.938791 -0.595813
O4    O     O_3   0.937063 0.105267 0.352603 -0.542516
O5    O     O_3   0.471265 0.137687 0.691354 -0.558280
O6    O     O_3   0.235058 0.110242 0.716753 -0.515015
O7    O     O_R   0.194310 0.640150 0.490130 -0.449148
O8    O     O_R   0.903380 0.524130 0.659910 -0.514609
O9    O     O_R   0.072660 0.481800 0.621240 -0.417900
O10   O     O_R   0.805690 0.359850 0.509870 -0.506250
O11   O     O_R   0.974960 0.317530 0.471210 -0.457329
O12   O     O_R   0.927340 0.518200 0.378760 -0.475327
O13   O     O_R   0.096620 0.475870 0.340090 -0.535594
O14   O     O_3   0.836613 0.468272 0.057157 -0.585434

loop_
_geom_bond_atom_site_label_1
_geom_bond_atom_site_label_2
_ccdc_geom_bond_type
C15   C18   A    
C9    C45   A    
C6    C45   A    
C12   C29   T    
C35   H6    S    
C8    O4    S    
C41   C42   A    
C3    C23   A    
C2    C7    A    
C35   O2    S    
C11   H23   S    
Cu1   O10   S    
C16   O11   A    
C39   H17   S    
C22   C32   S    
C28   C29   S    
C23   H26   S    
Cu2   N2    S    
C5    H25   S    
C11   N2    A    
C5    C6    A    
C33   N4    T    
C38   N5    T    
C8    C23   A    
C18   C19   A    
Cu2   O13   S    
C16   C34   S    
C32   N3    T    
C19   C20   A    
C2    C44   A    
C40   H20   S    
C17   N2    A    
C4    C12   S    
C37   H11   S    
C16   O10   A    
C40   H19   S    
C13   C14   A    
C35   H7    S    
C43   O5    S    
C22   N1    A    
C31   H2    S    
Cu1   N1    S    
C7    H27   S    
C25   O12   A    
Cu2   O7    S    
C1    C9    S    
C38   C41   S    
C36   H10   S    
C36   O3    S    
C4    O8    A    
Cu1   O12   S    
C10   C24   A    
C25   C26   S    
C14   H24   S    
C17   C21   A    
C28   O14   S    
C40   O6    S    
C43   C44   A    
C13   C33   S    
C36   H9    S    
C10   C19   A    
C42   O6    S    
C8    C34   A    
C6    H1    S    
C21   O2    S    
C26   C30   T    
C40   H18   S    
C7    C34   A    
C42   C43   A    
C31   H3    S    
C35   H5    S    
C44   C45   A    
Cu1   O8    S    
C1    O7    A    
C15   C17   A    
C39   H15   S    
Cu1   Cu2   S    
C25   O13   A    
C18   C22   A    
C20   H21   S    
C27   O3    S    
C31   H4    S    
C3    C5    A    
C39   O5    S    
C37   H14   S    
C24   N1    A    
C4    O9    A    
C39   H16   S    
C9    C41   A    
Cu2   O9    S    
C2    C3    A    
C36   H8    S    
C31   O14   S    
Cu1   O1    S    
C11   C13   A    
C24   H12   S    
Cu2   O11   S    
C37   H13   S    
C10   H22   S    
C20   C21   A    
C27   C28   D    
C1    O1    A    
C14   C15   A    
C37   O4    S    
C27   C30   S    
