data_mof_unit_53670.cif
_audit_creation_date              2012-12-10T20:31:59-0500
_audit_creation_method            fapswitch 2.2
_symmetry_space_group_name_H-M    P1
_symmetry_Int_Tables_number       1
_space_group_crystal_system       triclinic
_cell_length_a                    9.874314
_cell_length_b                    10.684469
_cell_length_c                    15.386904
_cell_angle_alpha                 90.314808
_cell_angle_beta                  67.811427
_cell_angle_gamma                 90.085932
_cell_volume                      1503.10772008

loop_
_atom_site_label
_atom_site_type_symbol
_atom_type_description
_atom_site_fract_x
_atom_site_fract_y
_atom_site_fract_z
_atom_type_partial_charge
C1    C     C_R   0.501131 0.739895 0.498023 0.887761
C2    C     C_R   0.709698 0.375022 0.043030 0.098849
C3    C     C_R   0.573675 0.435332 0.091732 0.058777
C4    C     C_R   0.408312 0.497008 0.676335 0.875113
C5    C     C_R   0.810129 0.362218 0.087619 -0.216126
C6    C     C_R   0.775551 0.407598 0.178520 -0.220457
C7    C     C_R   0.556735 0.503668 0.173631 -0.002015
C8    C     C_R   0.376498 0.935801 0.502957 0.084347
C9    C     C_R   0.506110 0.871423 0.486714 -0.099779
C10   C     C_R   0.639913 0.935211 0.456143 -0.205381
C11   C     C_R   0.639570 0.064697 0.456350 -0.196572
C12   C     C_R   0.400045 0.430012 0.916649 0.104670
C13   C     C_R   0.505411 0.128323 0.487147 -0.111201
C14   C     C_R   0.375770 0.063619 0.503048 0.088126
C15   C     C_3   0.233530 0.069921 0.585774 -0.242765
C16   C     C_R   0.500833 0.260047 0.498251 0.873778
C17   C     C_3   0.234191 0.927758 0.584946 -0.412775
C18   C     C_R   0.895734 0.580410 0.557011 0.136132
C19   C     C_R   0.964650 0.429320 0.437574 -0.076098
C20   C     C_R   0.108516 0.429202 0.437665 -0.033640
C21   C     C_R   0.038528 0.580706 0.556687 0.150912
C22   C     C_3   0.983824 0.584845 0.660947 0.413909
C23   C     C_R   0.254621 0.464909 0.973164 0.070702
C24   C     C_3   0.830026 0.584045 0.661684 -0.528043
C25   C     C_R   0.591509 0.499242 0.323611 0.868286
C26   C     C_R   0.349720 0.481317 0.778125 -0.076023
C27   C     C_R   0.647557 0.477237 0.222288 -0.127313
C28   C     C_R   0.156648 0.500993 0.931416 -0.156932
C29   C     C_R   0.204566 0.510556 0.834102 -0.163190
C30   C     C_R   0.443384 0.435919 0.819314 -0.224702
C31   C     C_1   0.115008 0.123250 0.561706 0.264274
C32   C     C_1   0.461875 0.612805 0.201126 0.256366
C33   C     C_1   0.879775 0.271747 0.896628 0.140427
C34   C     C_R   0.501276 0.401492 0.958964 -0.014966
C35   C     C_R   0.462256 0.430181 0.054866 -0.074842
C36   C     C_R   0.312286 0.447566 0.111395 0.602924
C37   C     C_R   0.210126 0.465303 0.070483 -0.319688
C38   C     C_R   0.640198 0.347771 0.908962 -0.227478
C39   C     C_R   0.741370 0.330237 0.951236 -0.003290
F1    F     F_    0.018223 0.696871 0.693181 -0.669390
F2    F     F_    0.262181 0.439606 0.206359 -0.696333
H1    H     H_    0.097204 0.483764 0.114988 0.174650
H2    H     H_    0.012140 0.500344 0.692421 0.082189
H3    H     H_    0.771019 0.496623 0.691836 0.166074
H4    H     H_    0.768246 0.671976 0.689073 0.235609
H5    H     H_    0.847267 0.386313 0.215118 0.170783
H6    H     H_    0.045152 0.527087 0.974049 0.151846
H7    H     H_    0.129762 0.543913 0.803091 0.184836
H8    H     H_    0.552716 0.411562 0.773907 0.144582
H9    H     H_    0.670165 0.313008 0.838126 0.144419
H10   H     H_    0.912468 0.312599 0.054381 0.164321
H11   H     H_    0.742977 0.885913 0.437159 0.176547
H12   H     H_    0.742492 0.114216 0.437432 0.174379
H13   H     H_    0.243032 0.112585 0.649331 0.164296
H14   H     H_    0.246311 0.886745 0.647908 0.221371
H15   H     H_    0.147670 0.883594 0.565160 0.238784
H16   H     H_    0.939042 0.369968 0.388665 0.151845
H17   H     H_    0.191167 0.369276 0.389133 0.196489
N1    N     N_R   0.856900 0.500860 0.500610 -0.110644
N2    N     N_R   0.142540 0.500820 0.500610 -0.154135
N3    N     N_1   0.021138 0.164643 0.543153 -0.233137
N4    N     N_1   0.386733 0.699903 0.223090 -0.180761
N5    N     N_1   0.990536 0.225161 0.852788 -0.202942
O1    O     O_R   0.385310 0.683210 0.499990 -0.592936
O2    O     O_R   0.614650 0.683240 0.500000 -0.614476
O3    O     O_R   0.319830 0.499970 0.632240 -0.610019
O4    O     O_R   0.549170 0.500000 0.632250 -0.612687
O5    O     O_R   0.385350 0.316760 0.500000 -0.621351
O6    O     O_R   0.614690 0.316790 0.500010 -0.620159
O7    O     O_R   0.450830 0.500000 0.367750 -0.587601
O8    O     O_R   0.680170 0.500030 0.367760 -0.617331
Zn1   Zn    Zn3+2 0.346870 0.499980 0.499990 0.984810
Zn2   Zn    Zn3+2 0.653130 0.500020 0.500010 0.953998

loop_
_geom_bond_atom_site_label_1
_geom_bond_atom_site_label_2
_ccdc_geom_bond_type
C28   H6    S    
C18   C21   A    
C31   N3    T    
C19   C20   A    
C10   H11   S    
C7    C27   A    
C19   H16   S    
C12   C23   A    
C33   C39   S    
C18   C24   S    
C24   H4    S    
C28   C29   A    
C3    C7    A    
C38   C39   A    
N2    Zn1   S    
O2    Zn2   S    
C34   C35   A    
C37   H1    S    
C2    C39   A    
O3    Zn1   S    
C22   H2    S    
C8    C9    A    
C1    O2    A    
O6    Zn2   S    
C25   O8    A    
C20   N2    A    
C9    C10   A    
C17   H14   S    
C11   H12   S    
C33   N5    T    
C13   C14   A    
C36   F2    S    
C29   H7    S    
C15   H13   S    
C1    C9    S    
C21   N2    A    
O8    Zn2   S    
C19   N1    A    
C23   C37   A    
C35   C36   A    
C6    C27   A    
C3    C35   A    
O5    Zn1   S    
C22   F1    S    
C23   C28   A    
C17   H15   S    
C16   O5    A    
O4    Zn2   S    
C30   H8    S    
C26   C30   A    
C24   H3    S    
C22   C24   S    
C2    C5    A    
C20   H17   S    
C1    O1    A    
C15   C17   S    
N1    Zn2   S    
C36   C37   A    
C8    C14   A    
C7    C32   S    
C6    H5    S    
C12   C30   A    
C34   C38   A    
C16   O6    A    
C4    O4    A    
C4    C26   S    
C15   C31   S    
C38   H9    S    
C25   C27   S    
C8    C17   S    
C2    C3    A    
C32   N4    T    
C4    O3    A    
C11   C13   A    
C5    C6    A    
O1    Zn1   S    
C10   C11   A    
C18   N1    A    
C26   C29   A    
C13   C16   S    
C14   C15   S    
C5    H10   S    
O7    Zn1   S    
C25   O7    A    
C21   C22   S    
C12   C34   A    
