data_mof_unit_34710.cif
_audit_creation_date              2012-12-10T18:32:45-0500
_audit_creation_method            fapswitch 2.2
_symmetry_space_group_name_H-M    P1
_symmetry_Int_Tables_number       1
_space_group_crystal_system       triclinic
_cell_length_a                    15.019361
_cell_length_b                    15.367917
_cell_length_c                    15.839513
_cell_angle_alpha                 90.090904
_cell_angle_beta                  104.180599
_cell_angle_gamma                 82.498217
_cell_volume                      3512.51613845

loop_
_atom_site_label
_atom_site_type_symbol
_atom_type_description
_atom_site_fract_x
_atom_site_fract_y
_atom_site_fract_z
_atom_type_partial_charge
C1    C     C_R   0.441853 0.662477 0.490353 0.885594
C2    C     C_3   0.401603 0.508701 0.029975 0.117127
C3    C     C_3   0.506349 0.495641 0.084491 -0.200909
C4    C     C_3   0.556315 0.403177 0.059706 -0.283953
C5    C     C_3   0.541075 0.404002 0.956670 0.089319
C6    C     C_1   0.505221 0.494318 0.176351 0.204399
C7    C     C_1   0.497338 0.499647 0.825043 0.147496
C8    C     C_1   0.499750 0.500946 0.750389 -0.181586
C9    C     C_R   0.405899 0.755692 0.493725 -0.151151
C10   C     C_R   0.594444 0.249224 0.554613 -0.187239
C11   C     C_R   0.282426 0.878603 0.466019 -0.249556
C12   C     C_R   0.500266 0.500655 0.661522 0.882533
C13   C     C_R   0.310608 0.787916 0.465079 0.465929
C14   C     C_R   0.469301 0.812786 0.529196 -0.292373
C15   C     C_R   0.441331 0.902594 0.533043 0.040596
C16   C     C_R   0.347708 0.936529 0.494706 -0.000710
C17   C     C_R   0.505710 0.960156 0.569360 0.064189
C18   C     C_R   0.482736 0.049581 0.545702 0.032864
C19   C     C_R   0.389763 0.082912 0.505655 -0.317295
C20   C     C_R   0.320953 0.027614 0.486124 0.487816
C21   C     C_R   0.591726 0.931518 0.628182 -0.249414
C22   C     C_R   0.654461 0.990318 0.662242 0.000063
C23   C     C_R   0.558373 0.338392 0.519138 0.925120
C24   C     C_R   0.632802 0.080274 0.634545 -0.050862
C25   C     C_R   0.551965 0.104882 0.567249 0.102618
C26   C     C_R   0.685327 0.147654 0.672744 -0.138193
C27   C     C_R   0.667378 0.232161 0.631012 0.364657
C28   C     C_R   0.540773 0.184681 0.522727 -0.296567
C29   C     C_R   0.845800 0.623567 0.645808 -0.099403
C30   C     C_R   0.755131 0.605175 0.617208 -0.063154
C31   C     C_R   0.793228 0.516579 0.505589 -0.000633
C32   C     C_R   0.888645 0.522305 0.537222 -0.006212
C33   C     C_R   0.914127 0.579757 0.606973 0.059408
C34   C     C_R   0.500003 0.498659 0.338756 0.893118
C35   C     C_R   0.958467 0.474524 0.501420 -0.035756
C36   C     C_R   0.051408 0.496431 0.526644 -0.045881
C37   C     C_R   0.075320 0.549799 0.600687 -0.014465
C38   C     C_R   0.007324 0.589229 0.639256 -0.214203
C39   C     C_R   0.940491 0.403312 0.444262 0.454799
C40   C     C_R   0.006245 0.369045 0.400935 -0.250142
C41   C     C_R   0.093021 0.396846 0.416152 0.006555
C42   C     C_R   0.116609 0.461745 0.478351 -0.011238
C43   C     C_R   0.157089 0.359743 0.370083 -0.154805
C44   C     C_R   0.246081 0.384641 0.390729 -0.003666
C45   C     C_3   0.394941 0.519676 0.928456 0.863129
C46   C     C_R   0.203673 0.491267 0.486561 0.002613
C47   C     C_3   0.561074 0.566051 0.963615 0.166426
C48   C     C_3   0.555778 0.576599 0.062146 -0.232049
C49   C     C_1   0.501728 0.495379 0.250584 -0.054590
C50   C     C_3   0.497058 0.497972 0.917167 -0.047982
H1    H     H_    0.373687 0.448841 0.042899 0.094776
H2    H     H_    0.487318 0.198349 0.463412 0.232674
H3    H     H_    0.209533 0.903715 0.444658 0.190378
H4    H     H_    0.541778 0.786804 0.550486 0.180315
H5    H     H_    0.368641 0.152573 0.493395 0.182586
H6    H     H_    0.609903 0.863785 0.651179 0.165634
H7    H     H_    0.029205 0.625907 0.697337 0.180781
H8    H     H_    0.221324 0.551077 0.517072 0.185640
H9    H     H_    0.987271 0.319775 0.353666 0.184478
H10   H     H_    0.701913 0.634046 0.648064 0.156653
H11   H     H_    0.764361 0.485697 0.446356 0.225403
H12   H     H_    0.632314 0.534877 0.964042 0.143599
H13   H     H_    0.608659 0.391113 0.938648 0.158557
N1    N     N_R   0.731690 0.552720 0.548990 -0.127832
N2    N     N_R   0.268300 0.447240 0.450950 -0.157827
O1    O     O_R   0.383120 0.605620 0.475300 -0.569515
O2    O     O_R   0.531890 0.639510 0.506740 -0.623841
O3    O     O_R   0.425580 0.483050 0.607130 -0.578503
O4    O     O_R   0.574360 0.516930 0.638570 -0.621728
O5    O     O_R   0.468110 0.360490 0.493260 -0.599617
O6    O     O_R   0.616880 0.394380 0.524700 -0.612193
O7    O     O_R   0.425640 0.483070 0.361430 -0.619850
O8    O     O_R   0.574420 0.516950 0.392870 -0.583077
Zn1   Zn    Zn3+2 0.400660 0.477370 0.479010 1.001944
Zn2   Zn    Zn3+2 0.599340 0.522630 0.520990 0.974213
O9    O     O_3   0.351937 0.583933 0.058478 -0.597567
C51   C     C_3   0.287245 0.562541 0.103926 0.098566
H14   H     H_    0.319833 0.514077 0.157807 0.196408
H15   H     H_    0.228612 0.535978 0.059392 0.129967
C52   C     C_3   0.248928 0.645305 0.142609 -0.774903
H16   H     H_    0.217248 0.696143 0.090357 0.251733
H17   H     H_    0.195168 0.630009 0.175200 0.213457
H18   H     H_    0.305451 0.671028 0.191085 0.262355
O10   O     O_3   0.339869 0.463475 0.870069 -0.594173
C53   C     C_3   0.275675 0.421530 0.902110 0.067120
H19   H     H_    0.312354 0.363232 0.943666 0.195206
H20   H     H_    0.235706 0.466582 0.937982 0.087934
C54   C     C_3   0.206140 0.388052 0.826600 -0.717806
H21   H     H_    0.158290 0.443997 0.789794 0.238701
H22   H     H_    0.242683 0.349858 0.782576 0.284529
H23   H     H_    0.164225 0.344832 0.851996 0.196834
C55   C     C_2   0.659795 0.389829 0.106846 0.906317
O11   O     O_2   0.682698 0.381622 0.186452 -0.576673
O12   O     O_R   0.728992 0.385578 0.061130 -0.811990
H24   H     H_    0.793768 0.376680 0.100959 0.374054
O13   O     O_3   0.229116 0.060979 0.449520 -0.582855
C56   C     C_3   0.196200 0.122209 0.505296 0.140266
H25   H     H_    0.217311 0.187542 0.496084 0.158930
H26   H     H_    0.221503 0.100499 0.575289 0.124554
C57   C     C_3   0.091104 0.132364 0.482309 -0.812474
H27   H     H_    0.067253 0.068550 0.492081 0.262999
H28   H     H_    0.064635 0.181423 0.524890 0.189125
H29   H     H_    0.063317 0.154928 0.413178 0.263757
O14   O     O_3   0.705992 0.301629 0.675059 -0.605827
C58   C     C_3   0.790846 0.309914 0.654224 0.147606
H30   H     H_    0.777996 0.341937 0.589123 0.168971
H31   H     H_    0.834884 0.245553 0.654912 0.156341
C59   C     C_3   0.844666 0.368388 0.719742 -0.750094
H32   H     H_    0.861689 0.337657 0.786135 0.280597
H33   H     H_    0.910023 0.377902 0.702156 0.189638
H34   H     H_    0.802664 0.433488 0.719603 0.256605
C60   C     C_2   0.744979 0.952290 0.719009 0.948942
O15   O     O_2   0.817004 0.972604 0.706818 -0.614858
O16   O     O_R   0.747642 0.891433 0.785345 -0.790815
H35   H     H_    0.812833 0.872051 0.821643 0.351413
O17   O     O_3   0.245627 0.729842 0.445075 -0.587071
C61   C     C_3   0.191813 0.744770 0.358573 0.100135
H36   H     H_    0.236252 0.749021 0.312137 0.135225
H37   H     H_    0.141834 0.805811 0.352802 0.153206
C62   C     C_3   0.136163 0.668711 0.333333 -0.774565
H38   H     H_    0.089203 0.681753 0.267352 0.208665
H39   H     H_    0.183692 0.607015 0.333033 0.256356
H40   H     H_    0.093690 0.660701 0.380493 0.265301
O18   O     O_3   0.364809 0.609406 0.900423 -0.541475
C63   C     C_3   0.267255 0.631632 0.875220 0.181449
H41   H     H_    0.233264 0.615254 0.926544 0.141091
H42   H     H_    0.237286 0.597393 0.815786 0.183216
C64   C     C_3   0.243885 0.730009 0.856092 -0.725336
H43   H     H_    0.278812 0.750077 0.806474 0.268621
H44   H     H_    0.167787 0.747458 0.831065 0.211026
H45   H     H_    0.267142 0.766083 0.916596 0.261838
C65   C     C_2   0.741605 0.137716 0.764473 0.984596
O19   O     O_2   0.818013 0.162127 0.785020 -0.601256
O20   O     O_R   0.705988 0.100946 0.827831 -0.823136
H46   H     H_    0.749993 0.097921 0.887876 0.353702
C66   C     C_2   0.309516 0.352209 0.336795 1.023559
O21   O     O_2   0.364002 0.285443 0.358727 -0.631641
O22   O     O_R   0.298023 0.391858 0.254994 -0.831918
H47   H     H_    0.341149 0.360699 0.221152 0.368375
C67   C     C_2   0.865616 0.688524 0.715073 0.882728
O23   O     O_2   0.830731 0.687381 0.777110 -0.653167
O24   O     O_R   0.921274 0.752977 0.707864 -0.774076
H48   H     H_    0.931166 0.792243 0.759864 0.351786
C68   C     C_2   0.170937 0.562121 0.646230 0.816077
O25   O     O_2   0.229378 0.498552 0.672327 -0.608471
O26   O     O_R   0.195020 0.647108 0.655368 -0.783523
H49   H     H_    0.263934 0.647330 0.680337 0.349562
O27   O     O_3   0.856728 0.369691 0.425275 -0.617042
C69   C     C_3   0.868878 0.280780 0.453802 0.062924
H50   H     H_    0.896344 0.274591 0.525675 0.114503
H51   H     H_    0.916420 0.238454 0.422644 0.153453
C70   C     C_3   0.776112 0.245691 0.427920 -0.753730
H52   H     H_    0.754562 0.240664 0.356005 0.282569
H53   H     H_    0.782045 0.179633 0.458732 0.206039
H54   H     H_    0.722090 0.290346 0.448744 0.250570
C71   C     C_2   0.131794 0.296506 0.299496 0.895174
O28   O     O_2   0.176426 0.223435 0.304151 -0.579061
O29   O     O_R   0.057932 0.321613 0.227311 -0.785271
H55   H     H_    0.047594 0.273290 0.183747 0.352597
O30   O     O_3   0.538904 0.648044 0.916127 -0.521175
C72   C     C_3   0.603759 0.664528 0.868350 0.141895
H56   H     H_    0.564191 0.689455 0.802230 0.157848
H57   H     H_    0.651504 0.605924 0.858104 0.125951
C73   C     C_3   0.659111 0.735811 0.911425 -0.703379
H58   H     H_    0.700348 0.713501 0.977587 0.271196
H59   H     H_    0.706925 0.751375 0.871930 0.264833
H60   H     H_    0.611510 0.796230 0.916401 0.261746
C74   C     C_2   0.502649 0.665257 0.080524 1.109816
O31   O     O_2   0.500396 0.682319 0.155604 -0.631293
O32   O     O_R   0.454963 0.726419 0.014316 -0.688637
H61   H     H_    0.423021 0.780461 0.036970 0.328693
C75   C     C_2   0.654310 0.577050 0.121328 0.868979
O33   O     O_2   0.666723 0.575060 0.200673 -0.558172
O34   O     O_R   0.730300 0.583055 0.086186 -0.813677
H62   H     H_    0.790354 0.583212 0.132495 0.362911
O35   O     O_3   0.481706 0.341892 0.917751 -0.588061
C76   C     C_3   0.529031 0.267524 0.886726 0.197390
H63   H     H_    0.492269 0.210649 0.893145 0.181786
H64   H     H_    0.601923 0.249375 0.925199 0.181702
C77   C     C_3   0.525736 0.280523 0.790608 -0.823031
H65   H     H_    0.576650 0.324261 0.783088 0.252771
H66   H     H_    0.543471 0.216295 0.762582 0.235356
H67   H     H_    0.455089 0.309381 0.754134 0.279085
C78   C     C_2   0.520831 0.321736 0.089990 1.006547
O36   O     O_2   0.458517 0.328040 0.127693 -0.688772
O37   O     O_R   0.564370 0.238069 0.077837 -0.805617
H68   H     H_    0.536535 0.189276 0.100892 0.350787

loop_
_geom_bond_atom_site_label_1
_geom_bond_atom_site_label_2
_ccdc_geom_bond_type
C10   C27   A    
C44   C66   S    
C12   O4    A    
C40   C41   A    
C37   C68   S    
C30   N1    A    
C41   C43   A    
C41   C42   A    
C31   H11   S    
C36   C42   A    
C35   C36   A    
C9    C14   A    
C3    C6    S    
C64   H43   S    
C56   C57   S    
C47   H12   S    
C60   O16   S    
C72   H56   S    
C26   C65   S    
C7    C8    T    
C53   H19   S    
O17   C61   S    
C25   C28   A    
C12   O3    A    
C26   C27   A    
C29   C30   A    
C73   H58   S    
C67   O24   S    
C69   H51   S    
C75   O33   D    
C53   C54   S    
O32   H61   S    
C10   C28   A    
C15   C16   A    
O1    Zn1   S    
C29   C33   A    
C3    C48   S    
C59   H32   S    
C5    H13   S    
C17   C18   A    
C18   C19   A    
C42   C46   A    
C9    C13   A    
O34   H62   S    
O14   C58   S    
C71   O29   S    
C56   H26   S    
C48   C75   S    
O10   C53   S    
N1    Zn2   S    
C47   C48   S    
C62   H39   S    
C65   O19   D    
C76   H64   S    
C30   H10   S    
C39   O27   S    
O5    Zn1   S    
C63   C64   S    
C54   H23   S    
C11   H3    S    
C62   H40   S    
C8    C12   S    
C74   O32   S    
C20   O13   S    
C78   O36   D    
C2    C45   S    
C40   H9    S    
C21   C22   A    
C46   H8    S    
O8    Zn2   S    
C23   O5    A    
C44   N2    A    
C18   C25   A    
C52   H18   S    
C57   H28   S    
C60   O15   D    
C72   H57   S    
C75   O34   S    
C56   H25   S    
C47   C50   S    
C47   O30   S    
C51   H15   S    
C45   O18   S    
C58   C59   S    
C53   H20   S    
C32   C35   A    
C23   O6    A    
C1    C9    S    
C24   C25   A    
C46   N2    A    
O7    Zn1   S    
C2    H1    S    
C61   C62   S    
C39   C40   A    
C68   O25   D    
C51   H14   S    
C57   H29   S    
C17   C21   A    
N2    Zn1   S    
C71   O28   D    
C35   C39   A    
C43   C44   A    
C37   C38   A    
C38   H7    S    
C58   H31   S    
C11   C16   A    
C31   C32   A    
C48   C74   S    
C70   H54   S    
C16   C20   A    
C76   C77   S    
O13   C56   S    
C55   O12   S    
C1    O1    A    
C67   O23   D    
C68   O26   S    
O35   C76   S    
C14   H4    S    
C70   H53   S    
C22   C60   S    
O29   H55   S    
C5    O35   S    
C22   C24   A    
C5    C50   S    
C69   C70   S    
C45   O10   S    
O2    Zn2   S    
C3    C4    S    
C64   H45   S    
C34   O7    A    
C72   C73   S    
C2    O9    S    
C62   H38   S    
C66   O22   S    
O26   H49   S    
C51   C52   S    
C19   H5    S    
C15   C17   A    
C29   C67   S    
C74   O31   D    
C34   C49   S    
C77   H66   S    
O24   H48   S    
C31   N1    A    
C73   H60   S    
C24   C26   A    
C7    C50   S    
C54   H22   S    
C52   H16   S    
C64   H44   S    
C21   H6    S    
C77   H67   S    
O16   H35   S    
O20   H46   S    
C28   H2    S    
C10   C23   S    
C36   C37   A    
C58   H30   S    
C33   C38   A    
C78   O37   S    
C59   H34   S    
C27   O14   S    
O30   C72   S    
C19   C20   A    
C61   H37   S    
C2    C3    S    
C61   H36   S    
C32   C33   A    
O6    Zn2   S    
O9    C51   S    
C11   C13   A    
C63   H41   S    
C45   C50   S    
C73   H59   S    
C55   O11   D    
C1    O2    A    
C52   H17   S    
C59   H33   S    
O4    Zn2   S    
O27   C69   S    
C6    C49   T    
O12   H24   S    
C4    C78   S    
C13   O17   S    
O22   H47   S    
C34   O8    A    
C4    C5    S    
C54   H21   S    
C65   O20   S    
C76   H63   S    
C63   H42   S    
C14   C15   A    
C66   O21   D    
C57   H27   S    
C70   H52   S    
O37   H68   S    
C69   H50   S    
O3    Zn1   S    
C77   H65   S    
C43   C71   S    
O18   C63   S    
C4    C55   S    
