data_mof_unit_51839.cif
_audit_creation_date              2013-03-05T16:07:32-0500
_audit_creation_method            fapswitch 2.2
_symmetry_space_group_name_H-M    P1
_symmetry_Int_Tables_number       1
_space_group_crystal_system       triclinic
_cell_length_a                    10.844116
_cell_length_b                    10.821618
_cell_length_c                    9.510906
_cell_angle_alpha                 89.783702
_cell_angle_beta                  90.705035
_cell_angle_gamma                 90.257846
_cell_volume                      1116.00967552

loop_
_atom_site_label
_atom_site_type_symbol
_atom_site_description
_atom_site_fract_x
_atom_site_fract_y
_atom_site_fract_z
_atom_type_partial_charge
O1    O     O_R   0.499990 0.319660 0.618740 -0.552159
O2    O     O_R   0.500010 0.680340 0.381260 -0.552104
O3    O     O_R   0.499990 0.319630 0.381170 -0.599947
O4    O     O_R   0.500010 0.680370 0.618830 -0.599905
C1    C     C_R   0.500732 0.262073 0.500094 0.812300
C2    C     C_R   0.499237 0.737927 0.499907 0.812334
O5    O     O_R   0.319650 0.500020 0.618780 -0.568638
O6    O     O_R   0.680350 0.499980 0.381220 -0.568569
O7    O     O_R   0.319640 0.500000 0.381210 -0.586964
O8    O     O_R   0.680360 0.500000 0.618790 -0.586976
C3    C     C_R   0.262201 0.496992 0.499108 0.814340
C4    C     C_R   0.737800 0.503000 0.500893 0.814352
Cu1   Cu    Cu3+1 0.500000 0.500020 0.640660 0.994178
Cu2   Cu    Cu3+1 0.500000 0.499980 0.359340 0.994235
C5    C     C_R   0.172553 0.391531 0.014908 -0.274795
C6    C     C_R   0.827727 0.608272 0.985249 -0.274738
H1    H     H_    0.177955 0.441410 0.916299 0.184294
H2    H     H_    0.822493 0.558396 0.083870 0.184238
C7    C     C_R   0.119456 0.449306 0.130127 -0.236508
C8    C     C_R   0.880777 0.550571 0.869956 -0.236695
H3    H     H_    0.083007 0.541850 0.118462 0.170735
H4    H     H_    0.917367 0.458082 0.881571 0.170791
C9    C     C_R   0.116147 0.389165 0.260526 0.053475
C10   C     C_R   0.883869 0.610714 0.739550 0.053450
C11   C     C_R   0.162603 0.269133 0.273819 -0.170741
C12   C     C_R   0.837230 0.730676 0.726322 -0.170431
H5    H     H_    0.156952 0.221150 0.373784 0.172024
H6    H     H_    0.842708 0.778664 0.626349 0.171987
C13   C     C_R   0.212009 0.208312 0.157923 0.356232
C14   C     C_R   0.787846 0.791419 0.842284 0.356278
C15   C     C_R   0.221741 0.272030 0.027601 0.319281
C16   C     C_R   0.778368 0.727696 0.972620 0.319375
C17   C     C_R   0.931672 0.455540 0.385535 -0.213704
C18   C     C_R   0.068333 0.544430 0.614474 -0.213781
H7    H     H_    0.878888 0.418001 0.297832 0.150113
H8    H     H_    0.121118 0.581950 0.702188 0.150177
C19   C     C_R   0.871714 0.504455 0.502120 -0.070773
C20   C     C_R   0.128289 0.495528 0.497884 -0.070843
C21   C     C_R   0.940696 0.550138 0.617671 0.034988
C22   C     C_R   0.059310 0.449824 0.382345 0.034972
C23   C     C_R   0.486546 0.064329 0.373108 -0.118080
C24   C     C_R   0.513321 0.935672 0.626902 -0.118034
H9    H     H_    0.476185 0.112838 0.273898 0.203781
H10   H     H_    0.523659 0.887163 0.726114 0.203858
C25   C     C_R   0.484120 0.936554 0.373298 -0.072615
C26   C     C_R   0.515747 0.063447 0.626713 -0.072652
H11   H     H_    0.469924 0.888731 0.274743 0.208909
H12   H     H_    0.529915 0.111272 0.725275 0.208878
C27   C     C_R   0.498604 0.871754 0.499989 -0.084711
C28   C     C_R   0.501300 0.128246 0.500016 -0.084698
C29   C     C_R   0.572774 0.419947 0.075769 -0.007952
C30   C     C_R   0.427229 0.580055 0.924231 -0.007901
H13   H     H_    0.631319 0.356032 0.132960 0.119665
H14   H     H_    0.368685 0.643972 0.867040 0.119664
C31   C     C_R   0.572823 0.419999 0.926897 0.051652
C32   C     C_R   0.427177 0.580000 0.073103 0.051974
H15   H     H_    0.631368 0.356130 0.871825 0.124438
H16   H     H_    0.368631 0.643869 0.128174 0.124438
N1    N     N_R   0.500030 0.500030 0.852070 -0.164347
N2    N     N_R   0.499970 0.499970 0.147930 -0.164345
N3    N     N_R   0.285349 0.219323 0.910709 0.101344
O9    O     O_R   0.254751 0.250043 0.782559 -0.369062
O10   O     O_R   0.385363 0.155611 0.932107 -0.404176
N4    N     N_R   0.714835 0.780318 0.089601 0.101408
O11   O     O_R   0.745906 0.749970 0.217716 -0.369053
O12   O     O_R   0.614458 0.843482 0.068377 -0.404238
O13   O     O_3   0.245322 0.086336 0.175527 -0.735135
H17   H     H_    0.244951 0.045440 0.082640 0.358204
O14   O     O_3   0.754311 0.913336 0.824724 -0.735317
H18   H     H_    0.754442 0.954180 0.917637 0.358224

loop_
_geom_bond_atom_site_label_1
_geom_bond_atom_site_label_2
_geom_bond_distance
_ccdc_geom_bond_type
C19   C21   1.411496 A    
C3    C20   1.452073 S    
C7    C9    1.399212 A    
O7    Cu2   1.969420 S    
C5    C15   1.405304 A    
Cu1   N1    2.010697 S    
C30   N1    1.366830 A    
C31   N1    1.366498 A    
C11   H5    1.083858 S    
Cu2   N2    2.010697 S    
C26   C28   1.399382 A    
C29   C31   1.415914 A    
N3    O9    1.301580 A    
C4    C19   1.452093 S    
C25   C27   1.399381 A    
O6    C4    1.291254 A    
N4    O11   1.301520 A    
C14   O14   1.379108 S    
C25   H11   1.081461 S    
C15   N3    1.436771 S    
C13   C15   1.420915 A    
C13   O13   1.379138 S    
Cu1   Cu2   2.675611 S    
O5    C3    1.291243 A    
O7    C3    1.289616 A    
C17   H7    1.084971 S    
N4    O12   1.301176 A    
O2    C2    1.291277 A    
O3    Cu2   1.961910 S    
C24   H10   1.082913 S    
O1    C1    1.291264 A    
O8    C4    1.289614 A    
O4    C2    1.289122 A    
C6    C8    1.395412 A    
C20   C22   1.411474 A    
C30   H14   1.081638 S    
C12   C14   1.399451 A    
C18   H8    1.084978 S    
C31   H15   1.081664 S    
C2    C27   1.448276 S    
C11   C13   1.399446 A    
O14   H18   0.989540 S    
O2    Cu2   1.963672 S    
C26   H12   1.081481 S    
C1    C28   1.448263 S    
C17   C22   1.386485 A    
O1    Cu1   1.963672 S    
C8    H4    1.083077 S    
C24   C27   1.400520 A    
C30   C32   1.415914 A    
C9    C22   1.476520 S    
C14   C16   1.420840 A    
C8    C10   1.399189 A    
C23   C28   1.400523 A    
O5    Cu1   1.964229 S    
C10   C21   1.476525 S    
C32   N2    1.366497 A    
C29   H13   1.081637 S    
C16   N4    1.436665 S    
C10   C12   1.400003 A    
C6    H2    1.082382 S    
C9    C11   1.400035 A    
C24   C26   1.382852 A    
O4    Cu1   1.961911 S    
C5    H1    1.082417 S    
C23   C25   1.382855 A    
C6    C16   1.405201 A    
O6    Cu2   1.964227 S    
C29   N2    1.366831 A    
C7    H3    1.083113 S    
C5    C7    1.395431 A    
C12   H6    1.083822 S    
C18   C21   1.386475 A    
N3    O10   1.301272 A    
C17   C19   1.399183 A    
C23   H9    1.082923 S    
O13   H17   0.989542 S    
C32   H16   1.081664 S    
O3    C1    1.289127 A    
O8    Cu1   1.969419 S    
C18   C20   1.399156 A    
