data_mof_unit_32255.cif
_audit_creation_date              2012-12-10T17:10:23-0500
_audit_creation_method            fapswitch 2.2
_symmetry_space_group_name_H-M    P1
_symmetry_Int_Tables_number       1
_space_group_crystal_system       triclinic
_cell_length_a                    15.731448
_cell_length_b                    10.655015
_cell_length_c                    10.037027
_cell_angle_alpha                 91.868228
_cell_angle_beta                  90.021934
_cell_angle_gamma                 90.097063
_cell_volume                      1681.49771089

loop_
_atom_site_label
_atom_site_type_symbol
_atom_type_description
_atom_site_fract_x
_atom_site_fract_y
_atom_site_fract_z
_atom_type_partial_charge
C1    C     C_R   0.500300 0.261669 0.497007 0.976078
C2    C     C_2   0.460085 0.865562 0.506560 -0.366966
C3    C     C_2   0.458918 0.064059 0.387923 0.429886
C4    C     C_R   0.338031 0.500117 0.499878 0.873654
C5    C     C_2   0.499420 0.127463 0.488062 -0.512325
C6    C     C_2   0.543856 0.578871 0.927300 0.329007
C7    C     C_2   0.559027 0.551303 0.073962 0.347234
C8    C     C_R   0.489104 0.736633 0.501879 0.918988
C9    C     C_R   0.661938 0.500054 0.500092 0.898598
C10   C     C_3   0.973025 0.469271 0.618241 -0.072707
C11   C     C_3   0.028457 0.387260 0.524587 0.478421
C12   C     C_3   0.083275 0.502691 0.497783 0.094433
C13   C     C_1   0.249235 0.501382 0.499384 -0.154876
C14   C     C_1   0.750697 0.499880 0.500238 -0.167577
C15   C     C_3   0.028521 0.585833 0.592327 -0.284907
C16   C     C_3   0.004403 0.175941 0.557970 0.107088
C17   C     C_3   0.038391 0.067618 0.637281 -0.773222
C18   C     C_3   0.563049 0.792038 0.933277 0.119139
C19   C     C_3   0.610785 0.898272 0.868502 -0.809552
C20   C     C_3   0.705821 0.551428 0.057150 0.118067
C21   C     C_3   0.782791 0.537597 0.147186 -0.779078
C22   C     C_1   0.417248 0.497808 0.101956 0.192217
C23   C     C_3   0.971935 0.615135 0.471236 0.060251
C24   C     C_1   0.941819 0.434390 0.749782 0.187730
C25   C     C_1   0.940611 0.330831 0.300124 0.151218
C26   C     C_1   0.939211 0.739950 0.441278 0.165878
C27   C     C_3   0.346448 0.830565 0.264341 0.151522
C28   C     C_3   0.321526 0.808992 0.118960 -0.792550
C29   C     C_1   0.430433 0.917463 0.634070 0.132244
C30   C     C_3   0.484323 0.118765 0.172633 0.160581
C31   C     C_3   0.440080 0.154315 0.044526 -0.807161
C32   C     C_3   0.916758 0.500027 0.498174 0.008811
C33   C     C_3   0.028424 0.534502 0.376022 -0.271056
C34   C     C_3   0.972767 0.418433 0.404254 -0.089108
C35   C     C_1   0.174026 0.502332 0.498494 0.019805
C36   C     C_1   0.825883 0.499791 0.499544 -0.041981
C37   C     C_2   0.448248 0.927394 0.392402 0.351819
H1    H     H_    0.531522 0.080799 0.568016 0.132158
H2    H     H_    0.580902 0.793731 0.040560 0.174936
H3    H     H_    0.493589 0.809590 0.924097 0.160136
H4    H     H_    0.595545 0.899809 0.760575 0.265300
H5    H     H_    0.592471 0.989573 0.916433 0.200627
H6    H     H_    0.680348 0.884991 0.880499 0.249298
H7    H     H_    0.720320 0.625856 0.985557 0.189540
H8    H     H_    0.696083 0.459980 0.001675 0.124711
H9    H     H_    0.772547 0.458294 0.214367 0.258866
H10   H     H_    0.840329 0.518071 0.086076 0.224445
H11   H     H_    0.793244 0.625301 0.207933 0.260297
H12   H     H_    0.483887 0.417243 0.892299 0.115871
H13   H     H_    0.303847 0.905233 0.307376 0.142672
H14   H     H_    0.335428 0.742402 0.318017 0.147086
H15   H     H_    0.368725 0.747931 0.066830 0.248171
H16   H     H_    0.257923 0.763842 0.112435 0.214888
H17   H     H_    0.318774 0.899852 0.068465 0.246760
H18   H     H_    0.512171 0.023649 0.155707 0.156826
H19   H     H_    0.537633 0.185488 0.191623 0.144702
H20   H     H_    0.405975 0.244403 0.059696 0.265516
H21   H     H_    0.487525 0.164180 0.963655 0.195797
H22   H     H_    0.393525 0.080811 0.013706 0.261300
H23   H     H_    0.053103 0.562261 0.277590 0.164508
H24   H     H_    0.053126 0.654847 0.668226 0.161118
H25   H     H_    0.991506 0.140317 0.454711 0.167632
H26   H     H_    0.943643 0.207806 0.604847 0.130144
H27   H     H_    0.052251 0.100273 0.741259 0.260395
H28   H     H_    0.990397 0.991166 0.639245 0.211326
H29   H     H_    0.097588 0.030264 0.590678 0.256031
N1    N     N_2   0.500900 0.501330 0.852150 -0.219542
N2    N     N_2   0.500930 0.501360 0.147810 -0.176052
N3    N     N_1   0.347637 0.494403 0.064493 -0.220593
N4    N     N_1   0.917215 0.406650 0.853381 -0.213273
N5    N     N_1   0.915230 0.261855 0.217967 -0.200360
N6    N     N_1   0.913323 0.838305 0.417502 -0.222975
N7    N     N_1   0.406466 0.958658 0.735337 -0.203480
O1    O     O_R   0.499990 0.319060 0.613040 -0.622078
O2    O     O_3   0.585017 0.677455 0.867652 -0.575043
O3    O     O_3   0.634750 0.586683 0.136039 -0.572681
O4    O     O_3   0.433490 0.863509 0.271958 -0.605775
O5    O     O_3   0.425252 0.124954 0.279502 -0.568960
O6    O     O_R   0.500010 0.319100 0.386900 -0.589123
O7    O     O_R   0.376760 0.499970 0.613050 -0.605362
O8    O     O_R   0.376790 0.500010 0.386910 -0.615467
O9    O     O_R   0.499990 0.680900 0.613100 -0.568903
O10   O     O_R   0.500010 0.680940 0.386960 -0.554762
O11   O     O_R   0.623210 0.499990 0.613090 -0.589256
O12   O     O_R   0.623240 0.500030 0.386950 -0.564698
O13   O     O_3   0.066350 0.271817 0.556029 -0.604576
Zn1   Zn    Zn3+2 0.499980 0.499970 0.650990 0.994409
Zn2   Zn    Zn3+2 0.500020 0.500030 0.349010 1.017890

loop_
_geom_bond_atom_site_label_1
_geom_bond_atom_site_label_2
_ccdc_geom_bond_type
C18   O2    S    
C8    O10   A    
C26   N6    T    
O11   Zn1   S    
C9    C14   S    
C24   N4    T    
C6    O2    S    
C17   H29   S    
C2    C29   S    
C1    C5    S    
C1    O1    A    
C32   C36   S    
C31   H21   S    
C13   C35   T    
O7    Zn1   S    
C10   C15   S    
C17   H27   S    
C14   C36   T    
C30   C31   S    
C29   N7    T    
C11   O13   S    
O9    Zn1   S    
C20   O3    S    
C18   C19   S    
C23   C26   S    
C31   H22   S    
C4    C13   S    
C18   H3    S    
C9    O12   A    
C7    N2    D    
C4    O8    A    
C27   H14   S    
C16   C17   S    
C23   C33   S    
C25   N5    T    
C16   H26   S    
O1    Zn1   S    
C22   N3    T    
C20   H8    S    
C27   H13   S    
C25   C34   S    
C21   H11   S    
C15   C23   S    
O10   Zn2   S    
C5    H1    S    
C16   O13   S    
C16   H25   S    
O6    Zn2   S    
C20   H7    S    
C19   H6    S    
C28   H17   S    
C10   C24   S    
C30   H19   S    
C32   C34   S    
C18   H2    S    
C12   C15   S    
C11   C12   S    
C33   C34   S    
C15   H24   S    
C12   C35   S    
C22   N2    S    
C7    O3    S    
C6    N1    D    
C33   H23   S    
C1    O6    A    
C8    O9    A    
C3    C5    D    
C21   H9    S    
O12   Zn2   S    
H12   N1    S    
N1    Zn1   S    
C11   C34   S    
C2    C8    S    
C27   O4    S    
C28   H16   S    
C19   H5    S    
C4    O7    A    
C6    C7    S    
C30   H18   S    
C17   H28   S    
C23   C32   S    
C31   H20   S    
C28   H15   S    
C2    C37   D    
C37   O4    S    
N2    Zn2   S    
O8    Zn2   S    
C10   C11   S    
C9    O11   A    
C30   O5    S    
C10   C32   S    
C20   C21   S    
C3    C37   S    
C27   C28   S    
C12   C33   S    
C3    O5    S    
C19   H4    S    
C21   H10   S    
