data_mof_unit_57962.cif
_audit_creation_date              2012-12-10T19:47:58-0500
_audit_creation_method            fapswitch 2.2
_symmetry_space_group_name_H-M    P1
_symmetry_Int_Tables_number       1
_space_group_crystal_system       triclinic
_cell_length_a                    15.015198
_cell_length_b                    14.164022
_cell_length_c                    10.595428
_cell_angle_alpha                 89.17596
_cell_angle_beta                  90.615844
_cell_angle_gamma                 89.976014
_cell_volume                      2253.02537867

loop_
_atom_site_label
_atom_site_type_symbol
_atom_type_description
_atom_site_fract_x
_atom_site_fract_y
_atom_site_fract_z
_atom_type_partial_charge
C1    C     C_R   0.327716 0.499920 0.500341 0.851998
C2    C     C_R   0.672181 0.499883 0.500112 0.847721
C3    C     C_R   0.047945 0.498396 0.504174 0.122406
C4    C     C_R   0.951670 0.498031 0.504503 0.120558
C5    C     C_R   0.452857 0.106345 0.407977 -0.331738
C6    C     C_R   0.570393 0.894301 0.555084 -0.334890
C7    C     C_R   0.548846 0.104526 0.590683 -0.325086
C8    C     C_R   0.430083 0.895827 0.445015 -0.330756
C9    C     C_R   0.449761 0.206145 0.412465 0.560062
C10   C     C_R   0.566902 0.794543 0.561123 0.561819
C11   C     C_R   0.551068 0.204359 0.586556 0.555595
C12   C     C_R   0.432788 0.796065 0.439707 0.560997
C13   C     C_R   0.500748 0.053664 0.499506 0.100596
C14   C     C_R   0.500522 0.946858 0.499644 0.140008
C15   C     C_R   0.514261 0.500744 0.260821 0.872028
C16   C     C_R   0.486887 0.499240 0.739773 0.869010
C17   C     C_R   0.543274 0.676544 0.105036 -0.266292
C18   C     C_R   0.462166 0.322849 0.895943 -0.199238
C19   C     C_R   0.439982 0.668829 0.886580 -0.258395
C20   C     C_R   0.564055 0.331588 0.115560 -0.207016
C21   C     C_R   0.516600 0.760269 0.044464 0.220596
C22   C     C_R   0.490152 0.239446 0.956136 0.260291
C23   C     C_R   0.459838 0.756184 0.938976 0.233029
C24   C     C_R   0.545479 0.244088 0.062921 0.262653
C25   C     C_R   0.475683 0.584596 0.939375 0.035811
C26   C     C_R   0.528224 0.415447 0.061930 0.035690
C27   C     C_R   0.516830 0.587855 0.057863 0.041487
C28   C     C_R   0.487438 0.411940 0.943163 0.031975
C29   C     C_R   0.473004 0.497633 0.875982 -0.192058
C30   C     C_R   0.530278 0.502292 0.125215 -0.191943
C31   C     C_R   0.093188 0.580738 0.468417 -0.188781
C32   C     C_R   0.905285 0.420831 0.455434 -0.173917
C33   C     C_R   0.905889 0.575590 0.552338 -0.189801
C34   C     C_R   0.094839 0.416561 0.539211 -0.178080
C35   C     C_R   0.185036 0.581497 0.468786 -0.185609
C36   C     C_R   0.813320 0.421141 0.454633 -0.220197
C37   C     C_R   0.814044 0.576591 0.549276 -0.181535
C38   C     C_R   0.186769 0.416845 0.537241 -0.213001
C39   C     C_R   0.231906 0.499438 0.502123 -0.028048
C40   C     C_R   0.767814 0.499320 0.500987 -0.025697
H1    H     H_    0.586392 0.681278 0.187229 0.195049
H2    H     H_    0.418871 0.317326 0.814077 0.183398
H3    H     H_    0.396899 0.667203 0.804023 0.192290
H4    H     H_    0.606402 0.333719 0.198871 0.174264
H5    H     H_    0.057580 0.644051 0.439244 0.134701
H6    H     H_    0.940073 0.361130 0.416379 0.133388
H7    H     H_    0.941076 0.634999 0.592448 0.134413
H8    H     H_    0.060464 0.352933 0.568943 0.132013
H9    H     H_    0.219203 0.645687 0.441810 0.194837
H10   H     H_    0.777907 0.361231 0.416180 0.153118
H11   H     H_    0.779246 0.636892 0.586010 0.190638
H12   H     H_    0.222371 0.353071 0.564532 0.153202
H13   H     H_    0.418994 0.070729 0.331993 0.180588
H14   H     H_    0.627815 0.929771 0.594070 0.152006
H15   H     H_    0.583840 0.067711 0.666098 0.183618
H16   H     H_    0.372569 0.932581 0.406952 0.150728
N1    N     N_R   0.500000 0.252470 0.500000 -0.168289
N2    N     N_R   0.500000 0.747530 0.500000 -0.160172
O1    O     O_R   0.369060 0.579480 0.500010 -0.575565
O2    O     O_R   0.630940 0.420520 0.499990 -0.621395
O3    O     O_R   0.630940 0.579480 0.499990 -0.575978
O4    O     O_R   0.369060 0.420520 0.500010 -0.619197
O5    O     O_R   0.499990 0.579480 0.316780 -0.611427
O6    O     O_R   0.500010 0.420520 0.683220 -0.575948
O7    O     O_R   0.500010 0.579480 0.683220 -0.606936
O8    O     O_R   0.499990 0.420520 0.316780 -0.566570
Zn1   Zn    Zn3+2 0.500000 0.606140 0.500000 1.016986
Zn2   Zn    Zn3+2 0.500000 0.393860 0.500000 1.010461
Br1   Br    Br    0.595199 0.133395 0.141718 -0.470591
Br2   Br    Br    0.411535 0.867408 0.859576 -0.481567
Br3   Br    Br    0.451673 0.121331 0.889625 -0.455471
Br4   Br    Br    0.558106 0.877860 0.109708 -0.472006
O9    O     O_3   0.403694 0.259456 0.322319 -0.596081
C41   C     C_3   0.314965 0.227932 0.304555 0.048035
H17   H     H_    0.270248 0.289660 0.316169 0.172885
H18   H     H_    0.292636 0.173800 0.374997 0.113947
C42   C     C_3   0.303131 0.191678 0.170011 -0.313336
H19   H     H_    0.315028 0.250533 0.101724 0.235522
H20   H     H_    0.352515 0.135282 0.151858 0.262616
C43   C     C_3   0.209781 0.152287 0.148317 -0.942526
H21   H     H_    0.197626 0.091390 0.213121 0.262721
H22   H     H_    0.203252 0.127764 0.049575 0.285670
H23   H     H_    0.158965 0.207736 0.164342 0.261389
O10   O     O_3   0.634165 0.742771 0.620209 -0.626281
C44   C     C_3   0.648442 0.771244 0.746664 0.082404
H24   H     H_    0.640661 0.708044 0.808918 0.176030
H25   H     H_    0.599854 0.824520 0.780487 0.179666
C45   C     C_3   0.743400 0.808847 0.762916 -0.420995
H26   H     H_    0.791714 0.750469 0.750102 0.220919
H27   H     H_    0.756876 0.864256 0.690415 0.227307
C46   C     C_3   0.757678 0.850622 0.893525 -0.847811
H28   H     H_    0.713222 0.912447 0.905990 0.301789
H29   H     H_    0.827785 0.874456 0.903775 0.254925
H30   H     H_    0.743836 0.796786 0.968049 0.275522
O11   O     O_3   0.598022 0.255440 0.675854 -0.599327
C47   C     C_3   0.688684 0.227844 0.683570 0.055579
H31   H     H_    0.729974 0.291795 0.666838 0.175689
H32   H     H_    0.709254 0.175756 0.611283 0.116395
C48   C     C_3   0.709568 0.189605 0.816412 -0.312565
H33   H     H_    0.698113 0.246216 0.885972 0.238445
H34   H     H_    0.664582 0.129716 0.839309 0.262266
C49   C     C_3   0.805804 0.155839 0.828184 -0.943222
H35   H     H_    0.817929 0.097112 0.762117 0.261819
H36   H     H_    0.818905 0.129850 0.926009 0.285151
H37   H     H_    0.852360 0.214758 0.806968 0.261789
O12   O     O_3   0.363782 0.745559 0.384696 -0.626822
C50   C     C_3   0.344295 0.777240 0.259858 0.080614
H38   H     H_    0.350000 0.715735 0.196516 0.178034
H39   H     H_    0.390899 0.831801 0.222953 0.180224
C51   C     C_3   0.248750 0.814662 0.251308 -0.417197
H40   H     H_    0.201332 0.755947 0.269202 0.223316
H41   H     H_    0.238298 0.869167 0.323991 0.226044
C52   C     C_3   0.228843 0.857948 0.121290 -0.859572
H42   H     H_    0.273404 0.919148 0.103017 0.297630
H43   H     H_    0.158767 0.882955 0.117191 0.255027
H44   H     H_    0.238406 0.804580 0.046806 0.279526

loop_
_geom_bond_atom_site_label_1
_geom_bond_atom_site_label_2
_ccdc_geom_bond_type
O8    Zn2   S    
O9    C41   S    
C19   C23   A    
O11   C47   S    
C7    H15   S    
C1    O4    A    
C8    H16   S    
C42   H19   S    
C7    C11   A    
C41   H18   S    
O6    Zn2   S    
C5    H13   S    
C28   C29   A    
C10   N2    A    
C37   C40   A    
C18   H2    S    
C38   C39   A    
C37   H11   S    
C2    O2    A    
C42   C43   S    
C46   H29   S    
O12   C50   S    
C47   C48   S    
C49   H37   S    
C51   H40   S    
O1    Zn1   S    
C20   C24   A    
O7    Zn1   S    
C41   C42   S    
C47   H32   S    
C35   H9    S    
C50   H38   S    
C5    C13   A    
C2    O3    A    
C52   H44   S    
C12   N2    A    
C42   H20   S    
C18   C22   A    
C13   C14   S    
C27   C30   A    
C50   H39   S    
C23   Br2   S    
C9    O9    S    
C6    H14   S    
C43   H23   S    
C20   H4    S    
C19   H3    S    
C24   Br1   S    
C17   H1    S    
C44   H25   S    
C25   C29   A    
O5    Zn1   S    
C41   H17   S    
C21   Br4   S    
C17   C27   A    
C36   C40   A    
C18   C28   A    
O10   C44   S    
C43   H22   S    
C46   H28   S    
C3    C34   A    
C16   C29   S    
C44   H24   S    
C15   O8    A    
C33   C37   A    
C35   C39   A    
C5    C9    A    
C6    C14   A    
O3    Zn1   S    
C48   H33   S    
C45   C46   S    
C8    C12   A    
C47   H31   S    
C3    C31   A    
C51   C52   S    
C4    C32   A    
C48   H34   S    
C45   H27   S    
C26   C30   A    
C21   C23   A    
C33   H7    S    
C50   C51   S    
C22   C24   A    
C34   H8    S    
N1    Zn2   S    
C3    C4    S    
C32   C36   A    
C22   Br3   S    
C36   H10   S    
C15   C30   S    
C52   H42   S    
C44   C45   S    
C11   O11   S    
C4    C33   A    
C8    C14   A    
C34   C38   A    
C32   H6    S    
C43   H21   S    
C6    C10   A    
O4    Zn2   S    
C25   C27   A    
C26   C28   A    
C49   H36   S    
C1    O1    A    
C46   H30   S    
C12   O12   S    
C20   C26   A    
C31   C35   A    
C10   O10   S    
C9    N1    A    
C49   H35   S    
C19   C25   A    
C51   H41   S    
C1    C39   S    
C2    C40   S    
N2    Zn1   S    
C7    C13   A    
C48   C49   S    
C38   H12   S    
C45   H26   S    
O2    Zn2   S    
C31   H5    S    
C15   O5    A    
C16   O7    A    
C16   O6    A    
C11   N1    A    
C52   H43   S    
C17   C21   A    
