data_mof_unit_43706.cif
_audit_creation_date              2012-10-26T17:11:10-0400
_audit_creation_method            fapswitch 2.2
_symmetry_space_group_name_H-M    P1
_symmetry_Int_Tables_number       1
_space_group_crystal_system       triclinic
_cell_length_a                    28.113885
_cell_length_b                    18.760119
_cell_length_c                    16.801894
_cell_angle_alpha                 89.777512
_cell_angle_beta                  62.485939
_cell_angle_gamma                 89.929549
_cell_volume                      7859.31609694

loop_
_atom_site_label
_atom_site_type_symbol
_atom_type_description
_atom_site_fract_x
_atom_site_fract_y
_atom_site_fract_z
_atom_type_partial_charge
C1    C     C_R   0.294535 0.727269 0.329660 0.801171
C2    C     C_R   0.705294 0.272384 0.670433 0.825714
C3    C     C_R   0.705439 0.727515 0.670221 0.800408
C4    C     C_R   0.293980 0.274437 0.330422 0.829190
C5    C     C_R   0.794446 0.227149 0.329761 0.801902
C6    C     C_R   0.205198 0.772161 0.670433 0.825635
C7    C     C_R   0.203660 0.230872 0.670879 0.800366
C8    C     C_R   0.794894 0.772110 0.329475 0.825972
C9    C     C_R   0.537566 0.871182 0.541440 -0.222988
C10   C     C_R   0.439807 0.123224 0.532698 -0.227493
C11   C     C_R   0.460341 0.871488 0.467411 -0.222916
C12   C     C_R   0.554250 0.124244 0.482746 -0.229026
C13   C     C_R   0.038093 0.371264 0.539421 -0.222184
C14   C     C_R   0.941263 0.623449 0.528836 -0.228185
C15   C     C_R   0.960877 0.371433 0.465369 -0.221019
C16   C     C_R   0.055726 0.624067 0.478759 -0.228494
C17   C     C_R   0.221827 0.760365 0.950251 0.095343
C18   C     C_R   0.777179 0.233657 0.049167 0.114414
C19   C     C_R   0.785797 0.754558 0.042018 0.094684
C20   C     C_R   0.226398 0.225993 0.946861 0.101445
C21   C     C_R   0.719873 0.261133 0.952984 0.096357
C22   C     C_R   0.279212 0.736111 0.047108 0.112857
C23   C     C_R   0.284944 0.261106 0.041433 0.103039
C24   C     C_R   0.730537 0.726090 0.942744 0.104505
C25   C     C_R   0.263625 0.806199 0.939974 -0.186420
C26   C     C_R   0.742207 0.182077 0.045170 -0.195101
C27   C     C_R   0.751392 0.805865 0.035485 -0.176451
C28   C     C_R   0.272296 0.269981 0.907943 -0.192117
C29   C     C_R   0.753801 0.313370 0.958875 -0.176205
C30   C     C_R   0.237660 0.689742 0.056843 -0.199575
C31   C     C_R   0.238579 0.218047 0.080571 -0.189644
C32   C     C_R   0.766064 0.675474 0.947234 -0.181047
C33   C     C_R   0.291483 0.795040 0.989441 -0.185827
C34   C     C_R   0.714077 0.195439 0.996467 -0.197391
C35   C     C_R   0.723749 0.791636 0.986361 -0.199556
C36   C     C_R   0.298110 0.291578 0.957353 -0.165700
C37   C     C_R   0.782406 0.299679 0.006673 -0.197572
C38   C     C_R   0.209211 0.701601 0.008319 -0.193167
C39   C     C_R   0.207463 0.206891 0.037197 -0.156704
C40   C     C_R   0.793164 0.689293 0.997488 -0.193616
C41   C     C_R   0.140336 0.818327 0.951451 0.073256
C42   C     C_R   0.859335 0.180201 0.049356 0.067047
C43   C     C_R   0.866069 0.810696 0.045565 0.077494
C44   C     C_R   0.162519 0.141197 0.921473 0.070338
C45   C     C_R   0.638123 0.315842 0.952523 0.075990
C46   C     C_R   0.361347 0.683001 0.048041 0.068494
C47   C     C_R   0.369972 0.305668 0.048129 0.074075
C48   C     C_R   0.649230 0.666885 0.945099 0.068329
C49   C     C_R   0.116111 0.847444 0.899470 -0.086414
C50   C     C_R   0.883796 0.151988 0.101013 -0.101073
C51   C     C_R   0.886577 0.844556 0.099688 -0.090866
C52   C     C_R   0.124756 0.136697 0.887549 -0.094309
C53   C     C_R   0.615232 0.346634 0.899689 -0.089944
C54   C     C_R   0.384851 0.653402 0.100387 -0.099963
C55   C     C_R   0.388195 0.343490 0.101725 -0.100904
C56   C     C_R   0.620298 0.646209 0.896870 -0.093498
C57   C     C_R   0.136627 0.828983 0.809028 -0.262054
C58   C     C_R   0.862875 0.169994 0.191594 -0.257684
C59   C     C_R   0.863887 0.828887 0.191261 -0.261738
C60   C     C_R   0.135773 0.171181 0.807367 -0.249883
C61   C     C_R   0.636654 0.329397 0.808740 -0.262593
C62   C     C_R   0.363434 0.670724 0.191280 -0.257809
C63   C     C_R   0.364031 0.331236 0.193841 -0.244721
C64   C     C_R   0.638141 0.669458 0.808682 -0.267236
C65   C     C_R   0.182338 0.786856 0.766908 -0.069520
C66   C     C_R   0.816623 0.211126 0.233730 -0.060631
C67   C     C_R   0.818733 0.785622 0.232375 -0.069542
C68   C     C_R   0.180360 0.215099 0.766872 -0.064131
C69   C     C_R   0.682320 0.287115 0.767026 -0.069381
C70   C     C_R   0.317170 0.711877 0.233281 -0.060754
C71   C     C_R   0.317362 0.291216 0.234703 -0.071810
C72   C     C_R   0.684424 0.710212 0.765612 -0.058002
C73   C     C_R   0.208617 0.763157 0.815441 -0.226751
C74   C     C_R   0.789403 0.232426 0.185585 -0.234061
C75   C     C_R   0.794430 0.759625 0.181722 -0.226184
C76   C     C_R   0.206048 0.237494 0.816332 -0.233882
C77   C     C_R   0.708265 0.263474 0.816243 -0.226638
C78   C     C_R   0.290489 0.733866 0.184509 -0.235395
C79   C     C_R   0.291090 0.271983 0.185116 -0.235163
C80   C     C_R   0.713369 0.729470 0.811461 -0.232885
C81   C     C_R   0.188464 0.778780 0.906368 0.038337
C82   C     C_R   0.809928 0.216564 0.094559 0.040170
C83   C     C_R   0.817180 0.772699 0.089398 0.036448
C84   C     C_R   0.197556 0.201604 0.895580 0.064948
C85   C     C_R   0.687153 0.278410 0.907650 0.036314
C86   C     C_R   0.311828 0.719314 0.092913 0.043073
C87   C     C_R   0.316251 0.278893 0.090921 0.066284
C88   C     C_R   0.696618 0.707787 0.899791 0.038154
C89   C     C_R   0.199673 0.630963 0.516640 0.813191
C90   C     C_R   0.802990 0.368299 0.473762 0.811115
C91   C     C_R   0.800128 0.630966 0.483929 0.813962
C92   C     C_R   0.196949 0.368214 0.526489 0.801871
C93   C     C_R   0.699573 0.130969 0.516917 0.813324
C94   C     C_R   0.302962 0.868305 0.473870 0.811525
C95   C     C_R   0.300026 0.130962 0.484217 0.821763
C96   C     C_R   0.696922 0.868208 0.526583 0.809597
C97   C     C_R   0.928181 0.900625 0.064929 0.794490
C98   C     C_R   0.076494 0.091991 0.930330 0.798797
C99   C     C_R   0.072767 0.901547 0.934623 0.774320
C100  C     C_R   0.927482 0.098653 0.065246 0.812886
C101  C     C_R   0.429176 0.399744 0.064690 0.791354
C102  C     C_R   0.574193 0.596439 0.933475 0.798797
C103  C     C_R   0.572430 0.401250 0.934802 0.784053
C104  C     C_R   0.427829 0.599066 0.065001 0.806740
C105  C     C_R   0.046933 0.497910 0.510618 0.023782
C106  C     C_R   0.951172 0.497735 0.495299 0.023377
C107  C     C_R   0.545949 0.997957 0.513629 0.023141
C108  C     C_R   0.450189 0.997650 0.498289 0.023068
C109  C     C_R   0.024557 0.562303 0.500474 0.045766
C110  C     C_R   0.977418 0.432977 0.492570 0.042153
C111  C     C_R   0.972896 0.562105 0.506712 0.045574
C112  C     C_R   0.021014 0.433001 0.513043 0.043048
C113  C     C_R   0.523260 0.062350 0.504265 0.045771
C114  C     C_R   0.476585 0.932948 0.495268 0.042040
C115  C     C_R   0.471602 0.062001 0.510473 0.045466
C116  C     C_R   0.520183 0.932995 0.515741 0.042335
C117  C     C_R   0.114830 0.434737 0.537030 0.061748
C118  C     C_R   0.873717 0.562448 0.500975 0.060979
C119  C     C_R   0.884387 0.434743 0.466138 0.061337
C120  C     C_R   0.124721 0.562859 0.503142 0.062110
C121  C     C_R   0.614452 0.934720 0.538395 0.061270
C122  C     C_R   0.372979 0.062324 0.502933 0.060009
C123  C     C_R   0.384006 0.934744 0.467530 0.061638
C124  C     C_R   0.623958 0.062978 0.505187 0.062474
C125  C     C_R   0.166151 0.434713 0.535372 -0.121526
C126  C     C_R   0.827877 0.563881 0.485253 -0.121607
C127  C     C_R   0.833547 0.434794 0.465914 -0.124366
C128  C     C_R   0.171457 0.564008 0.516526 -0.122412
C129  C     C_R   0.666010 0.934702 0.535872 -0.123990
C130  C     C_R   0.327569 0.063837 0.486074 -0.123597
C131  C     C_R   0.333409 0.934801 0.466447 -0.124731
C132  C     C_R   0.671131 0.064055 0.517370 -0.122247
C133  C     C_R   0.191807 0.499661 0.530133 -0.279410
C134  C     C_R   0.808018 0.499747 0.470417 -0.278979
C135  C     C_R   0.691718 0.999667 0.530323 -0.280025
C136  C     C_R   0.307942 0.999744 0.470641 -0.279152
C137  C     C_R   0.095446 0.498581 0.517636 0.071582
C138  C     C_R   0.903117 0.498359 0.486879 0.071575
C139  C     C_R   0.594723 0.998642 0.519849 0.071316
C140  C     C_R   0.402398 0.998277 0.489067 0.071561
C141  C     C_R   0.581735 0.873220 0.557955 -0.180521
C142  C     C_R   0.389899 0.121785 0.535049 -0.184190
C143  C     C_R   0.417039 0.873621 0.448593 -0.179198
C144  C     C_R   0.605046 0.123044 0.476786 -0.184217
C145  C     C_R   0.082029 0.373325 0.556551 -0.180206
C146  C     C_R   0.891097 0.622009 0.532226 -0.184295
C147  C     C_R   0.917345 0.373537 0.447139 -0.177863
C148  C     C_R   0.106297 0.622817 0.473755 -0.184582
Cu1   Cu    Cu3+1 0.209920 0.785290 0.495070 0.925678
Cu2   Cu    Cu3+1 0.790080 0.214710 0.504930 0.931170
Cu3   Cu    Cu3+1 0.790080 0.785290 0.504930 0.925326
Cu4   Cu    Cu3+1 0.209920 0.214710 0.495070 0.928081
Cu5   Cu    Cu3+1 0.709920 0.285290 0.495070 0.926802
Cu6   Cu    Cu3+1 0.290080 0.714710 0.504930 0.930032
Cu7   Cu    Cu3+1 0.290080 0.285290 0.504930 0.923117
Cu8   Cu    Cu3+1 0.709920 0.714710 0.495070 0.930149
Cu9   Cu    Cu3+1 0.495240 0.500000 0.924150 0.915894
Cu10  Cu    Cu3+1 0.504760 0.500000 0.075850 0.906561
Cu11  Cu    Cu3+1 0.995240 1.000000 0.924150 0.908797
Cu12  Cu    Cu3+1 0.004760 1.000000 0.075850 0.914358
H1    H     H_    0.229278 0.499877 0.533804 0.191253
H2    H     H_    0.771053 0.500102 0.465104 0.191216
H3    H     H_    0.729428 0.999870 0.533199 0.191376
H4    H     H_    0.271217 0.000118 0.464570 0.191069
H5    H     H_    0.588492 0.826048 0.588126 0.171562
H6    H     H_    0.365079 0.167478 0.565608 0.179007
H7    H     H_    0.411439 0.826975 0.416618 0.171978
H8    H     H_    0.628867 0.169400 0.445538 0.179695
H9    H     H_    0.088495 0.326279 0.587282 0.170808
H10   H     H_    0.866457 0.667759 0.563119 0.178505
H11   H     H_    0.911459 0.326766 0.415691 0.172705
H12   H     H_    0.130364 0.669049 0.442678 0.179308
H13   H     H_    0.515398 0.821753 0.554051 0.140474
H14   H     H_    0.451751 0.171351 0.554130 0.141934
H15   H     H_    0.482964 0.822431 0.454418 0.141037
H16   H     H_    0.541195 0.172706 0.463480 0.142509
H17   H     H_    0.015807 0.321922 0.552212 0.140257
H18   H     H_    0.953470 0.671635 0.549724 0.142317
H19   H     H_    0.983385 0.322288 0.452550 0.141374
H20   H     H_    0.042931 0.672473 0.458924 0.142870
H21   H     H_    0.176712 0.666143 0.017353 0.139419
H22   H     H_    0.809082 0.339990 0.009634 0.132463
H23   H     H_    0.820435 0.649850 0.000559 0.136484
H24   H     H_    0.168676 0.182881 0.075265 0.129417
H25   H     H_    0.687226 0.155265 0.993790 0.137999
H26   H     H_    0.323344 0.831344 0.981372 0.128344
H27   H     H_    0.327882 0.332785 0.929105 0.129275
H28   H     H_    0.696276 0.830999 0.983778 0.136236
H29   H     H_    0.274088 0.851117 0.894382 0.143814
H30   H     H_    0.737746 0.130951 0.078076 0.135128
H31   H     H_    0.746037 0.856903 0.068489 0.135977
H32   H     H_    0.288900 0.289414 0.839960 0.124046
H33   H     H_    0.757816 0.364788 0.926806 0.134059
H34   H     H_    0.227927 0.643860 0.100954 0.141214
H35   H     H_    0.224715 0.193101 0.145388 0.125133
H36   H     H_    0.771883 0.624808 0.913297 0.128754
H37   H     H_    0.117960 0.849718 0.769947 0.184121
H38   H     H_    0.881926 0.150156 0.230495 0.182036
H39   H     H_    0.880427 0.852637 0.231787 0.184416
H40   H     H_    0.111606 0.160559 0.773813 0.177239
H41   H     H_    0.618642 0.351034 0.769108 0.183581
H42   H     H_    0.381966 0.650058 0.230595 0.181321
H43   H     H_    0.380814 0.354468 0.234300 0.184306
H44   H     H_    0.616716 0.653803 0.771989 0.180193
H45   H     H_    0.245720 0.733340 0.782284 0.162888
H46   H     H_    0.751669 0.260837 0.218875 0.159454
H47   H     H_    0.757132 0.730071 0.214059 0.161542
H48   H     H_    0.234307 0.280654 0.789203 0.146395
H49   H     H_    0.745708 0.234369 0.783347 0.162402
H50   H     H_    0.252628 0.762003 0.217673 0.159209
H51   H     H_    0.250676 0.252397 0.221924 0.151083
H52   H     H_    0.750128 0.760025 0.777871 0.160159
O1    O     O_R   0.255040 0.869590 0.478480 -0.582112
O2    O     O_R   0.744960 0.130410 0.521520 -0.583434
O3    O     O_R   0.744960 0.869590 0.521520 -0.582740
O4    O     O_R   0.255040 0.130410 0.478480 -0.581436
O5    O     O_R   0.755040 0.369590 0.478480 -0.582414
O6    O     O_R   0.244960 0.630410 0.521520 -0.583427
O7    O     O_R   0.244960 0.369590 0.521520 -0.585396
O8    O     O_R   0.755040 0.630410 0.478480 -0.583296
O9    O     O_R   0.182050 0.796550 0.624440 -0.585680
O10   O     O_R   0.817950 0.203450 0.375560 -0.593913
O11   O     O_R   0.817950 0.796550 0.375560 -0.584984
O12   O     O_R   0.182050 0.203450 0.624440 -0.593490
O13   O     O_R   0.682050 0.296550 0.624440 -0.584919
O14   O     O_R   0.317950 0.703450 0.375560 -0.594219
O15   O     O_R   0.317950 0.296550 0.375560 -0.586860
O16   O     O_R   0.682050 0.703450 0.624440 -0.594278
O17   O     O_R   0.250530 0.763330 0.367210 -0.599192
O18   O     O_R   0.749470 0.236670 0.632790 -0.587421
O19   O     O_R   0.749470 0.763330 0.632790 -0.601170
O20   O     O_R   0.250530 0.236670 0.367210 -0.588111
O21   O     O_R   0.750530 0.263330 0.367210 -0.599473
O22   O     O_R   0.249470 0.736670 0.632790 -0.587531
O23   O     O_R   0.249470 0.263330 0.632790 -0.600045
O24   O     O_R   0.750530 0.736670 0.367210 -0.586883
O25   O     O_R   0.177260 0.690030 0.513710 -0.601413
O26   O     O_R   0.822740 0.309970 0.486290 -0.596905
O27   O     O_R   0.822740 0.690030 0.486290 -0.600221
O28   O     O_R   0.177260 0.309970 0.513710 -0.598977
O29   O     O_R   0.677260 0.190030 0.513710 -0.601367
O30   O     O_R   0.322740 0.809970 0.486290 -0.596959
O31   O     O_R   0.322740 0.190030 0.486290 -0.598025
O32   O     O_R   0.677260 0.809970 0.513710 -0.596369
O33   O     O_R   0.051640 0.926880 0.885090 -0.585410
O34   O     O_R   0.948360 0.073120 0.114910 -0.581076
O35   O     O_R   0.948360 0.926880 0.114910 -0.584513
O36   O     O_R   0.051640 0.073120 0.885090 -0.589552
O37   O     O_R   0.551640 0.426880 0.885090 -0.588110
O38   O     O_R   0.448360 0.573120 0.114910 -0.586225
O39   O     O_R   0.448360 0.426880 0.114910 -0.583518
O40   O     O_R   0.551640 0.573120 0.885090 -0.587855
O41   O     O_R   0.940620 0.926560 0.986760 -0.589127
O42   O     O_R   0.059380 0.073440 0.013240 -0.595637
O43   O     O_R   0.059380 0.926560 0.013240 -0.597892
O44   O     O_R   0.940620 0.073440 0.986760 -0.584708
O45   O     O_R   0.440620 0.426560 0.986760 -0.590959
O46   O     O_R   0.559380 0.573440 0.013240 -0.589440
O47   O     O_R   0.559380 0.426560 0.013240 -0.591341
O48   O     O_R   0.440620 0.573440 0.986760 -0.584731
C149  C     C_3   0.115790 0.827464 0.053401 -0.393443
C150  C     C_3   0.062527 0.786614 0.101948 -0.314048
C151  C     C_3   0.035025 0.801828 0.202452 -0.830373
H53   H     H_    0.061339 0.785844 0.232454 0.243525
H54   H     H_    0.025479 0.859485 0.214626 0.255068
H55   H     H_    0.997051 0.771038 0.235650 0.241762
H56   H     H_    0.034582 0.800946 0.074629 0.221339
H57   H     H_    0.070600 0.728468 0.091491 0.204017
H58   H     H_    0.142069 0.807293 0.081114 0.197928
H59   H     H_    0.111978 0.884465 0.072168 0.216265
C152  C     C_3   0.886691 0.177514 0.946989 -0.372161
C153  C     C_3   0.868475 0.113317 0.911028 -0.298844
C154  C     C_3   0.908364 0.097466 0.813713 -0.844729
H60   H     H_    0.913099 0.144826 0.770772 0.246063
H61   H     H_    0.947994 0.082751 0.808472 0.260630
H62   H     H_    0.893468 0.052204 0.789001 0.229420
H63   H     H_    0.863634 0.064905 0.952366 0.230111
H64   H     H_    0.829086 0.124827 0.913775 0.214556
H65   H     H_    0.878363 0.227142 0.919390 0.179723
H66   H     H_    0.930934 0.178872 0.920056 0.207878
C155  C     C_3   0.895873 0.812308 0.942789 -0.391720
C156  C     C_3   0.950846 0.775522 0.906634 -0.327060
C157  C     C_3   0.982554 0.782813 0.804836 -0.825507
H67   H     H_    0.960178 0.758257 0.772058 0.244941
H68   H     H_    0.990102 0.839948 0.785420 0.255952
H69   H     H_    0.021770 0.755324 0.780835 0.242477
H70   H     H_    0.975167 0.798377 0.936798 0.217261
H71   H     H_    0.944766 0.717971 0.924603 0.207550
H72   H     H_    0.873650 0.783992 0.912609 0.198108
H73   H     H_    0.899084 0.867383 0.916819 0.219147
C158  C     C_3   0.171566 0.075169 0.967029 -0.390082
C159  C     C_3   0.230489 0.051077 0.925144 -0.351315
C160  C     C_3   0.237277 0.989872 0.979035 -0.865213
H74   H     H_    0.226752 0.007745 0.048157 0.256278
H75   H     H_    0.210970 0.944527 0.982776 0.254916
H76   H     H_    0.279688 0.971902 0.946355 0.241723
H77   H     H_    0.243437 0.033178 0.855120 0.220152
H78   H     H_    0.257574 0.094644 0.922863 0.236940
H79   H     H_    0.154281 0.081691 0.040458 0.192392
H80   H     H_    0.149927 0.028713 0.958522 0.205715
C161  C     C_3   0.610849 0.320091 0.055189 -0.391928
C162  C     C_3   0.556709 0.280725 0.097186 -0.319426
C163  C     C_3   0.526830 0.291742 0.198523 -0.829068
H81   H     H_    0.551105 0.271583 0.230504 0.244406
H82   H     H_    0.518167 0.349253 0.214063 0.255442
H83   H     H_    0.488226 0.262213 0.226916 0.242761
H84   H     H_    0.530615 0.299159 0.067915 0.219329
H85   H     H_    0.563914 0.222759 0.083177 0.206779
H86   H     H_    0.635158 0.295141 0.084078 0.197742
H87   H     H_    0.607189 0.376061 0.078029 0.219534
C164  C     C_3   0.389115 0.679724 0.945656 -0.377586
C165  C     C_3   0.368075 0.618225 0.910244 -0.292863
C166  C     C_3   0.404638 0.605335 0.810684 -0.851087
H88   H     H_    0.407641 0.654362 0.771326 0.248341
H89   H     H_    0.445324 0.589503 0.799619 0.256877
H90   H     H_    0.387907 0.561764 0.786578 0.232639
H91   H     H_    0.364909 0.568214 0.947964 0.233839
H92   H     H_    0.327442 0.631163 0.919063 0.219552
H93   H     H_    0.383756 0.730568 0.917063 0.177324
H94   H     H_    0.433297 0.677337 0.918704 0.207457
C167  C     C_3   0.411407 0.283584 0.953654 -0.394771
C168  C     C_3   0.411530 0.202770 0.938591 -0.357749
C169  C     C_3   0.456713 0.181632 0.847147 -0.840392
H95   H     H_    0.451842 0.209074 0.792649 0.254547
H96   H     H_    0.496297 0.195845 0.842390 0.253547
H97   H     H_    0.455625 0.123167 0.838029 0.244870
H98   H     H_    0.416928 0.174001 0.991847 0.221811
H99   H     H_    0.373041 0.185402 0.941660 0.233295
H100  H     H_    0.407249 0.313621 0.900569 0.191765
H101  H     H_    0.452306 0.296862 0.943805 0.200030
C170  C     C_3   0.630893 0.647313 0.043573 -0.369060
C171  C     C_3   0.648981 0.571700 0.053756 -0.297703
C172  C     C_3   0.617742 0.544439 0.149918 -0.838006
H102  H     H_    0.623224 0.580956 0.196931 0.244787
H103  H     H_    0.574374 0.540359 0.169025 0.258413
H104  H     H_    0.632590 0.490699 0.155452 0.226257
H105  H     H_    0.644007 0.533420 0.007895 0.229733
H106  H     H_    0.692206 0.572274 0.035740 0.200588
H107  H     H_    0.646836 0.684979 0.076136 0.186414
H108  H     H_    0.587044 0.655354 0.083819 0.209921

loop_
_geom_bond_atom_site_label_1
_geom_bond_atom_site_label_2
_ccdc_geom_bond_type
C10   H14   S    
C51   C97   S    
Cu9   Cu10  S    
C158  C159  S    
C32   H36   S    
C79   C87   A    
C163  H82   S    
C172  H102  S    
C156  C157  S    
C38   H21   S    
Cu1   O9    S    
C4    O20   A    
Cu5   O13   S    
C13   C112  A    
Cu9   O48   S    
Cu10  O47   S    
C162  H85   S    
C154  H62   S    
C167  H100  S    
C30   C38   A    
C96   O32   A    
C90   O5    A    
C7    C68   S    
C75   H47   S    
C147  H11   S    
C153  C154  S    
C101  O45   A    
Cu1   O25   S    
Cu8   O16   S    
C152  H65   S    
C64   H44   S    
Cu3   O3    S    
C159  H77   S    
Cu11  O44   S    
C73   C81   A    
C16   C109  A    
C104  O38   A    
C90   O26   A    
C169  H95   S    
Cu10  O39   S    
C57   C65   A    
C20   C28   A    
C27   C35   A    
C161  C162  S    
C21   C29   A    
C21   C85   S    
C23   C31   A    
C24   C32   A    
C163  H81   S    
C164  H94   S    
Cu6   O22   S    
Cu8   O8    S    
C8    O11   A    
C105  C112  A    
C63   C71   A    
C120  C148  A    
C32   C40   A    
C136  H4    S    
C172  H104  S    
C151  H54   S    
C153  H64   S    
C57   H37   S    
C93   O2    A    
C9    C116  A    
C135  H3    S    
Cu9   O37   S    
C97   O35   A    
C50   C100  S    
C1    C70   S    
Cu2   O18   S    
C60   C68   A    
C17   C25   A    
C3    C72   S    
C80   C88   A    
C31   H35   S    
C170  H107  S    
C29   H33   S    
C52   C98   S    
C18   C82   S    
Cu1   O1    S    
C60   H40   S    
C12   C144  A    
C126  C134  A    
C23   C36   A    
C118  C138  A    
C11   C143  A    
C3    O16   A    
C4    C71   S    
C76   H48   S    
C96   C129  S    
C113  C115  A    
C1    O14   A    
C15   H19   S    
C43   C83   A    
C124  C139  A    
C69   C77   A    
C127  C134  A    
C13   C145  A    
C75   C83   A    
C92   C125  S    
C71   C79   A    
Cu4   O4    S    
Cu7   O15   S    
C63   H43   S    
C108  C115  A    
C109  C111  A    
C104  O48   A    
C149  C150  S    
C166  H89   S    
C49   C99   S    
C108  C114  A    
C66   C74   A    
C49   C57   A    
C165  C166  S    
C124  C132  A    
C4    O15   A    
C52   C60   A    
C59   C67   A    
C129  C135  A    
C53   C61   A    
Cu3   O19   S    
C35   H28   S    
C55   C63   A    
C95   C130  S    
C56   C64   A    
C9    H13   S    
C33   H26   S    
C45   C161  S    
C2    C69   S    
C78   H50   S    
Cu5   O5    S    
C39   H24   S    
C80   H52   S    
C40   H23   S    
C44   C52   A    
C5    O10   A    
C6    O22   A    
C77   C85   A    
C156  H70   S    
C157  H69   S    
C95   O4    A    
C152  C153  S    
C19   C83   S    
C106  C111  A    
C103  O37   A    
C107  C113  A    
C171  C172  S    
C131  C136  A    
C3    O19   A    
C150  H56   S    
C102  O46   A    
C169  H96   S    
C47   C87   A    
C92   O7    A    
C98   O36   A    
C160  H74   S    
C142  H6    S    
C158  H80   S    
C143  H7    S    
C14   H18   S    
C42   C50   A    
C161  H87   S    
C167  C168  S    
C20   C84   S    
C165  H92   S    
C67   C75   A    
C97   O41   A    
C105  C109  A    
C92   O28   A    
C22   C30   A    
C119  C138  A    
C5    C66   S    
C171  H105  S    
C114  C116  A    
C150  C151  S    
C68   C76   A    
C141  H5    S    
Cu1   O17   S    
C121  C139  A    
C122  C140  A    
C72   C80   A    
C25   H29   S    
C48   C170  S    
Cu8   O24   S    
C154  H61   S    
Cu3   O11   S    
C17   C38   A    
C107  C139  A    
C110  C112  A    
Cu11  O36   S    
C100  O34   A    
C19   C40   A    
C2    O18   A    
C105  C137  A    
C8    C67   S    
C157  H67   S    
C117  C125  A    
C16   H20   S    
C25   C33   A    
Cu4   O20   S    
C119  C127  A    
C44   C158  S    
C159  H78   S    
C18   C26   A    
C76   C84   A    
C151  H53   S    
C79   H51   S    
Cu6   O14   S    
C54   C104  S    
C160  H76   S    
Cu5   O29   S    
C106  C110  A    
C157  H68   S    
C119  C147  A    
C117  C145  A    
C10   C142  A    
Cu12  O42   S    
C91   O8    A    
C62   H42   S    
C73   H45   S    
C89   O6    A    
C6    C65   S    
Cu2   Cu5   S    
C164  H93   S    
C90   C127  S    
C48   C88   A    
Cu7   O7    S    
C99   O33   A    
C155  H73   S    
C168  C169  S    
Cu2   O10   S    
C15   C110  A    
C101  O39   A    
C74   C82   A    
C163  H83   S    
C7    O23   A    
C172  H103  S    
C145  H9    S    
C50   C58   A    
C89   O25   A    
C20   C39   A    
C21   C34   A    
C54   C62   A    
Cu10  O46   S    
C162  H84   S    
C47   C167  S    
C167  H101  S    
C34   H25   S    
Cu1   Cu6   S    
C121  C141  A    
Cu11  Cu12  S    
Cu4   Cu7   S    
C41   C81   A    
C46   C54   A    
Cu5   O21   S    
Cu3   Cu8   S    
C24   C88   S    
C8    O24   A    
C152  H66   S    
Cu4   O12   S    
Cu11  O41   S    
Cu12  O35   S    
Cu12  O43   S    
C55   C101  S    
C94   O1    A    
C123  C131  A    
C103  O47   A    
Cu10  O38   S    
C121  C129  A    
C44   C84   A    
C46   C164  S    
C120  C128  A    
C5    O21   A    
C41   C49   A    
Cu3   O27   S    
C11   H15   S    
C94   C131  S    
C36   H27   S    
C41   C149  S    
C15   C147  A    
C7    O12   A    
C43   C51   A    
C166  H88   S    
C30   H34   S    
C53   C103  S    
C13   H17   S    
C37   H22   S    
C17   C81   S    
C22   C86   S    
C56   C102  S    
Cu11  O33   S    
C28   C36   A    
C29   C37   A    
C93   O29   A    
C120  C137  A    
C2    O13   A    
C89   C128  S    
C151  H55   S    
C164  C165  S    
Cu6   O30   S    
C156  H71   S    
C153  H63   S    
C91   C126  S    
C70   C78   A    
C42   C82   A    
C170  C171  S    
C26   H30   S    
C96   O3    A    
C144  H8    S    
C102  O40   A    
C159  C160  S    
C18   C37   A    
C150  H57   S    
C168  H99   S    
C170  H108  S    
C106  C138  A    
C65   C73   A    
C42   C152  S    
C11   C114  A    
C99   O43   A    
C61   H41   S    
C26   C34   A    
C59   H39   S    
Cu2   O26   S    
Cu6   O6    S    
Cu8   O32   S    
C77   H49   S    
C6    O9    A    
C78   C86   A    
C64   C72   A    
C161  H86   S    
C43   C155  S    
C62   C70   A    
C27   H31   S    
C28   H32   S    
C19   C27   A    
C58   C66   A    
C14   C111  A    
C107  C116  A    
Cu9   O45   S    
C24   C35   A    
C118  C146  A    
C171  H106  S    
C108  C140  A    
C9    C141  A    
C166  H90   S    
C155  C156  S    
C117  C137  A    
C123  C140  A    
C134  H2    S    
C45   C85   A    
C168  H98   S    
Cu4   O28   S    
Cu7   O23   S    
C125  C133  A    
C154  H60   S    
C149  H59   S    
C146  H10   S    
Cu7   O31   S    
C51   C59   A    
C122  C142  A    
C123  C143  A    
C93   C132  S    
Cu9   O40   S    
C98   O42   A    
C158  H79   S    
C47   C55   A    
C12   C113  A    
C74   H46   S    
C61   C69   A    
C48   C56   A    
C22   C33   A    
C162  C163  S    
C58   H38   S    
C155  H72   S    
C149  H58   S    
C130  C136  A    
Cu12  O34   S    
C133  H1    S    
C14   C146  A    
C100  O44   A    
C12   H16   S    
C16   C148  A    
C169  H97   S    
C94   O30   A    
C160  H75   S    
C128  C133  A    
C132  C135  A    
C148  H12   S    
C31   C39   A    
Cu2   O2    S    
C45   C53   A    
C1    O17   A    
C91   O27   A    
C165  H91   S    
C124  C144  A    
C23   C87   S    
C118  C126  A    
C122  C130  A    
C10   C115  A    
C95   O31   A    
C46   C86   A    
