data_mof_unit_10749.cif
_audit_creation_date              2012-12-10T17:15:51-0500
_audit_creation_method            fapswitch 2.2
_symmetry_space_group_name_H-M    P1
_symmetry_Int_Tables_number       1
_space_group_crystal_system       triclinic
_cell_length_a                    10.24403
_cell_length_b                    10.651151
_cell_length_c                    10.723103
_cell_angle_alpha                 91.458873
_cell_angle_beta                  95.856873
_cell_angle_gamma                 79.246427
_cell_volume                      1143.43369737

loop_
_atom_site_label
_atom_site_type_symbol
_atom_type_description
_atom_site_fract_x
_atom_site_fract_y
_atom_site_fract_z
_atom_type_partial_charge
C1    C     C_R   0.443960 0.500504 0.267841 0.844295
C2    C     C_2   0.477076 0.436347 0.929067 -0.102563
C3    C     C_2   0.071040 0.489055 0.492812 -0.102541
C4    C     C_R   0.504130 0.257875 0.503780 0.915359
C5    C     C_2   0.925497 0.505615 0.517557 -0.057307
C6    C     C_R   0.556022 0.481774 0.733384 0.895196
C7    C     C_R   0.492439 0.738487 0.479720 0.903152
C8    C     C_R   0.744239 0.060141 0.435139 -0.045894
C9    C     C_R   0.818582 0.998292 0.339048 -0.057123
C10   C     C_R   0.781696 0.885792 0.284960 -0.042524
C11   C     C_R   0.673081 0.841545 0.324766 -0.159427
C12   C     C_R   0.615417 0.033835 0.448774 0.042668
C13   C     C_R   0.590020 0.914652 0.407049 0.084237
C14   C     C_2   0.400612 0.313665 0.141365 0.900984
C15   C     C_1   0.874510 0.583855 0.619943 0.404786
C16   C     C_1   0.120804 0.390814 0.405509 0.320441
C17   C     C_2   0.117176 0.670382 0.612622 1.035130
C18   C     C_1   0.814427 0.118254 0.538919 0.311863
C19   C     C_2   0.927931 0.055583 0.293074 0.944193
C20   C     C_1   0.856577 0.808471 0.194334 0.278302
C21   C     C_2   0.232929 0.931522 0.467347 0.986694
C22   C     C_2   0.370232 0.371248 0.866753 1.016366
C23   C     C_R   0.508593 0.120780 0.497927 -0.110114
C24   C     C_1   0.466000 0.640253 0.053816 0.235310
C25   C     C_2   0.714129 0.462638 0.939820 0.956076
C26   C     C_R   0.387382 0.082149 0.512346 -0.189745
C27   C     C_R   0.369651 0.960098 0.480893 -0.060362
C28   C     C_R   0.479708 0.871895 0.447238 -0.180208
C29   C     C_2   0.415789 0.449633 0.144340 -0.154430
C30   C     C_2   0.450100 0.507100 0.046014 -0.058354
C31   C     C_2   0.582710 0.454696 0.868763 -0.312651
H1    H     H_    0.302455 0.149173 0.541265 0.214175
H2    H     H_    0.875107 0.396681 0.372188 0.216257
H3    H     H_    0.648325 0.753394 0.284793 0.161913
H4    H     H_    0.280355 0.185329 0.101022 0.354201
H5    H     H_    0.992973 0.841586 0.612063 0.364272
H6    H     H_    0.062155 0.053714 0.167103 0.365479
H7    H     H_    0.102785 0.834805 0.370269 0.361246
H8    H     H_    0.173080 0.371750 0.829281 0.357119
H9    H     H_    0.829555 0.441887 0.105201 0.351638
N1    N     N_2   0.157290 0.551390 0.551110 -0.191604
N2    N     N_2   0.842740 0.448550 0.448960 -0.214735
N3    N     N_1   0.834209 0.649548 0.700483 -0.122839
N4    N     N_1   0.160050 0.312087 0.335166 -0.139862
N5    N     N_1   0.870534 0.164252 0.621878 -0.130108
N6    N     N_1   0.916240 0.745890 0.121884 -0.108734
N7    N     N_1   0.478412 0.746094 0.059671 -0.173122
O1    O     O_R   0.568950 0.489660 0.307530 -0.581410
O2    O     O_R   0.278262 0.280728 0.097456 -0.753393
O3    O     O_2   0.179347 0.694357 0.710928 -0.560732
O4    O     O_R   0.013889 0.763021 0.557094 -0.865189
O5    O     O_2   0.959845 0.150647 0.344201 -0.638791
O6    O     O_R   0.991025 0.005279 0.188274 -0.775455
O7    O     O_2   0.149557 0.985036 0.534415 -0.618182
O8    O     O_R   0.198543 0.846981 0.372933 -0.775316
O9    O     O_2   0.400390 0.274130 0.804661 -0.635292
O10   O     O_R   0.235905 0.423060 0.877386 -0.727701
O11   O     O_2   0.804716 0.489065 0.886045 -0.596948
O12   O     O_R   0.348880 0.522640 0.340350 -0.607861
O13   O     O_R   0.736378 0.434107 0.067811 -0.771144
O14   O     O_R   0.610060 0.300270 0.483590 -0.614735
O15   O     O_R   0.389990 0.333260 0.516410 -0.623983
O16   O     O_R   0.651120 0.477360 0.659650 -0.586002
O17   O     O_R   0.431050 0.510340 0.692470 -0.585299
O18   O     O_R   0.610010 0.666740 0.483590 -0.630655
O19   O     O_R   0.389940 0.699730 0.516410 -0.585060
O20   O     O_2   0.494631 0.231093 0.180291 -0.610180
Zn1   Zn    Zn3+2 0.646940 0.477980 0.478090 1.003622
Zn2   Zn    Zn3+2 0.353060 0.522020 0.521910 1.032598

loop_
_geom_bond_atom_site_label_1
_geom_bond_atom_site_label_2
_ccdc_geom_bond_type
C6    O16   A    
H4    O2    S    
C17   O3    D    
C14   O20   D    
C13   C28   A    
C26   H1    S    
C29   C30   D    
H9    O13   S    
C25   O13   S    
C8    C9    A    
C7    O18   A    
C9    C10   A    
C16   N4    T    
C12   C23   A    
C2    C30   S    
C8    C12   A    
O18   Zn1   S    
H6    O6    S    
C17   O4    S    
C22   O10   S    
C1    C29   S    
C6    C31   S    
C21   C27   S    
C15   N3    T    
C1    O1    A    
C2    C22   S    
O1    Zn1   S    
C7    O19   A    
N2    Zn1   S    
C11   C13   A    
O14   Zn1   S    
C19   O6    S    
C26   C27   A    
H5    O4    S    
O12   Zn2   S    
H2    N2    S    
C4    O14   A    
C3    C16   S    
C24   C30   S    
C1    O12   A    
C21   O7    D    
C17   N1    S    
C5    C15   S    
C14   O2    S    
C10   C11   A    
C7    C28   S    
C14   C29   S    
O19   Zn2   S    
C18   N5    T    
C4    O15   A    
C12   C13   A    
C5    N2    D    
N1    Zn2   S    
C25   O11   D    
C23   C26   A    
C6    O17   A    
C27   C28   A    
C21   O8    S    
C4    C23   S    
O16   Zn1   S    
C3    N1    D    
C22   O9    D    
O17   Zn2   S    
C24   N7    T    
C19   O5    D    
C9    C19   S    
C11   H3    S    
C8    C18   S    
H7    O8    S    
C25   C31   S    
O15   Zn2   S    
C10   C20   S    
C2    C31   D    
C3    C5    S    
C20   N6    T    
H8    O10   S    
