data_mof_unit_30937.cif
_audit_creation_date              2012-12-11T16:33:30-0500
_audit_creation_method            fapswitch 2.2
_symmetry_space_group_name_H-M    P1
_symmetry_Int_Tables_number       1
_space_group_crystal_system       triclinic
_cell_length_a                    6.962436
_cell_length_b                    18.323813
_cell_length_c                    20.083201
_cell_angle_alpha                 68.328617
_cell_angle_beta                  90.43727
_cell_angle_gamma                 90.609074
_cell_volume                      2380.92629389

loop_
_atom_site_label
_atom_site_type_symbol
_atom_type_description
_atom_site_fract_x
_atom_site_fract_y
_atom_site_fract_z
_atom_type_partial_charge
O1    O     O_R   0.488960 0.443750 0.941980 -0.540267
O2    O     O_R   0.823890 0.406510 0.087590 -0.539411
O3    O     O_R   0.999680 0.556250 0.058020 -0.531852
C1    C     C_R   0.655029 0.383522 0.114970 0.692160
O4    O     O_R   0.818360 0.434410 0.944340 -0.537694
O5    O     O_R   0.994110 0.584350 0.913750 -0.535838
C2    C     C_R   0.649494 0.420619 0.923708 0.710450
O6    O     O_R   0.494530 0.415650 0.086250 -0.536525
O7    O     O_3   0.662590 0.549160 0.990130 -0.361024
V1    V     V_3+5 0.935320 0.490880 0.001830 1.469730
O8    O     O_R   0.324180 0.593490 0.912410 -0.538355
C3    C     C_R   0.155322 0.615992 0.884668 0.686766
O9    O     O_R   0.329720 0.565590 0.055660 -0.530156
C4    C     C_R   0.162175 0.579784 0.076066 0.716158
V2    V     V_3+5 0.435990 0.509120 0.998170 1.480020
O10   O     O_3   0.158850 0.450840 0.009870 -0.372822
C5    C     C_3   0.027898 0.710728 0.306904 -0.145557
C6    C     C_3   0.217351 0.682793 0.284704 0.345851
H1    H     H_    0.939119 0.677311 0.354255 0.214387
H2    H     H_    0.455994 0.774415 0.288784 0.177083
C7    C     C_1   0.157650 0.626030 0.121216 -0.091227
C8    C     C_1   0.109549 0.875011 0.377761 -0.157382
C9    C     C_3   0.960643 0.739105 0.227778 0.290824
C10   C     C_3   0.148505 0.710592 0.206429 0.029179
C11   C     C_3   0.051441 0.821022 0.212742 -0.178395
C12   C     C_3   0.121572 0.792118 0.291311 0.005787
C13   C     C_3   0.241187 0.792035 0.191114 -0.152627
C14   C     C_3   0.311269 0.764043 0.270253 -0.137083
C15   C     C_1   0.155318 0.664330 0.159386 0.175753
C16   C     C_1   0.113734 0.837571 0.338894 0.043702
H3    H     H_    0.329247 0.825431 0.143567 0.212331
H4    H     H_    0.980973 0.878039 0.183289 0.165450
H5    H     H_    0.087198 0.526351 0.684572 0.180453
C17   C     C_R   0.173096 0.773738 0.881743 -0.239508
C18   C     C_R   0.176414 0.848203 0.884563 0.292298
C19   C     C_R   0.160548 0.914535 0.821626 0.207996
C20   C     C_R   0.144340 0.905958 0.754411 0.239865
C21   C     C_R   0.138468 0.829076 0.751098 -0.001474
C22   C     C_R   0.152813 0.762339 0.816373 -0.037056
C23   C     C_R   0.118545 0.816773 0.684928 -0.130400
C24   C     C_R   0.110140 0.739239 0.685050 -0.002727
C25   C     C_R   0.122683 0.673520 0.750607 0.071461
C26   C     C_R   0.144955 0.685039 0.816118 -0.102006
C27   C     C_R   0.090272 0.725658 0.620267 -0.188369
C28   C     C_R   0.082036 0.649597 0.620243 0.339089
C29   C     C_R   0.093529 0.585450 0.684499 -0.106528
C30   C     C_R   0.113897 0.596953 0.749008 -0.211660
H6    H     H_    0.184658 0.724564 0.932163 0.146179
H7    H     H_    0.081067 0.773635 0.568953 0.112790
H8    H     H_    0.123185 0.545140 0.797493 0.121420
H9    H     H_    0.812821 0.351610 0.428631 0.166675
C31   C     C_R   0.509226 0.101827 0.250418 -0.151827
C32   C     C_R   0.461341 0.092775 0.186390 -0.112852
C33   C     C_R   0.473845 0.156400 0.121795 -0.093098
C34   C     C_R   0.534076 0.229600 0.120723 -0.134115
C35   C     C_R   0.582493 0.240736 0.184900 0.066701
C36   C     C_R   0.570034 0.175511 0.251093 0.063829
C37   C     C_R   0.644285 0.315131 0.183840 -0.156419
C38   C     C_R   0.691702 0.324464 0.249053 0.014659
C39   C     C_R   0.680182 0.259157 0.315186 0.069988
C40   C     C_R   0.620076 0.184644 0.316177 -0.157054
C41   C     C_R   0.747047 0.398610 0.249960 -0.185894
C42   C     C_R   0.789778 0.408093 0.314236 0.359763
C43   C     C_R   0.779911 0.344164 0.378729 -0.120216
C44   C     C_R   0.725840 0.270467 0.379489 -0.193226
H10   H     H_    0.498429 0.050412 0.299193 0.105386
H11   H     H_    0.414884 0.035988 0.186907 0.128519
H12   H     H_    0.437191 0.148980 0.072177 0.140521
H13   H     H_    0.542774 0.277124 0.069075 0.098873
H14   H     H_    0.755687 0.450070 0.201142 0.138740
H15   H     H_    0.718190 0.222820 0.431087 0.117295
O11   O     O_R   0.770540 0.084530 0.414050 -0.541027
O12   O     O_R   0.445710 0.065660 0.555720 -0.529384
O13   O     O_R   0.270420 0.915650 0.586190 -0.530764
C45   C     C_R   0.614445 0.079687 0.576357 0.727763
O14   O     O_R   0.441140 0.093540 0.412470 -0.541261
O15   O     O_R   0.265820 0.943740 0.441930 -0.543053
C46   C     C_R   0.609905 0.116304 0.385036 0.678388
O16   O     O_R   0.775150 0.056440 0.558310 -0.520099
O17   O     O_3   0.602370 0.950960 0.510050 -0.373403
V3    V     V_3+5 0.329450 0.009140 0.498150 1.491393
O18   O     O_R   0.935790 0.934280 0.444060 -0.541161
C47   C     C_R   0.103658 0.920380 0.423607 0.697623
O19   O     O_R   0.940370 0.906390 0.587310 -0.535129
C48   C     C_R   0.109091 0.883969 0.615176 0.812930
V4    V     V_3+5 0.828810 0.990710 0.501460 1.492176
O20   O     O_3   0.105780 0.049100 0.489960 -0.361289
C49   C     C_3   0.704621 0.321594 0.712821 0.291706
C50   C     C_3   0.519761 0.288289 0.691824 -0.163120
H16   H     H_    0.430015 0.319879 0.644154 0.196965
H17   H     H_    0.311370 0.263785 0.792032 0.204986
C51   C     C_1   0.621200 0.125455 0.621725 -0.133591
C52   C     C_1   0.642725 0.375579 0.877768 -0.175207
C53   C     C_3   0.811235 0.244380 0.726095 0.215711
C54   C     C_3   0.625599 0.209808 0.706852 -0.006817
C55   C     C_3   0.745338 0.215074 0.804605 0.305498
C56   C     C_3   0.641698 0.292709 0.791497 0.035176
C57   C     C_3   0.561291 0.178709 0.786243 -0.167626
C58   C     C_3   0.456215 0.257864 0.771978 -0.150670
C59   C     C_1   0.622222 0.163506 0.660003 0.123055
C60   C     C_1   0.642758 0.338261 0.838892 0.080799
H18   H     H_    0.504698 0.119040 0.817159 0.206727
Br1   Br    Br    0.343289 0.584427 0.337423 -0.358722
Br2   Br    Br    0.150224 0.016380 0.829110 -0.498051
O21   O     O_3   0.127965 0.971495 0.692129 -0.635921
H19   H     H_    0.182356 0.018169 0.699122 0.338451
Br3   Br    Br    0.055571 0.633533 0.531802 -0.480594
Br4   Br    Br    0.858515 0.509234 0.313926 -0.438350
O22   O     O_3   0.780192 0.396526 0.675504 -0.611911
H20   H     H_    0.804581 0.398397 0.626336 0.333784
O23   O     O_3   0.863994 0.178461 0.863788 -0.611695
H21   H     H_    0.882823 0.124520 0.864940 0.352682
Br5   Br    Br    0.056010 0.231514 0.687586 -0.549490
Br6   Br    Br    0.712370 0.720646 0.192975 -0.506451
Br7   Br    Br    0.199669 0.855792 0.977180 -0.468515

loop_
_geom_bond_atom_site_label_1
_geom_bond_atom_site_label_2
_ccdc_geom_bond_type
C27   H7    S    
C34   C35   A    
C24   C25   A    
O23   H21   S    
C10   C13   S    
C1    O6    A    
C54   C57   S    
C28   C29   A    
C31   C32   A    
C5    C9    S    
C50   C58   S    
C6    C10   S    
C5    C12   S    
C4    C7    S    
C19   C20   A    
O19   V4    S    
C3    C26   S    
O5    C3    A    
C21   C22   A    
C33   H12   S    
O15   C47   A    
V2    O10   S    
C57   C58   S    
C35   C36   A    
C41   H14   S    
C17   C18   A    
C36   C40   A    
C10   C15   S    
O17   V4    S    
C29   C30   A    
O8    V2    S    
C18   C19   A    
C55   C57   S    
O11   C46   A    
C9    C10   S    
C18   Br7   S    
O1    V2    S    
O7    V1    S    
C49   C56   S    
C25   C30   A    
C11   H4    S    
C38   C39   A    
O1    C2    A    
O9    C4    A    
H5    C29   S    
O12   C45   A    
O12   V3    S    
C56   C58   S    
C53   Br5   S    
C30   H8    S    
C2    C52   S    
C55   O23   S    
C49   C53   S    
C13   H3    S    
C17   C22   A    
C6    C14   S    
O19   C48   A    
C52   C60   T    
O4    C2    A    
C54   C59   S    
C22   C26   A    
H2    C14   S    
C11   C12   S    
C44   H15   S    
C7    C15   T    
C39   C40   A    
C23   C48   S    
C50   C54   S    
O2    C1    A    
C20   O21   S    
C20   C21   A    
C57   H18   S    
O15   V3    S    
C40   C46   S    
C55   C56   S    
C41   C42   A    
C5    C6    S    
V3    O20   S    
C53   C55   S    
C34   H13   S    
O3    C4    A    
C45   C51   S    
C49   O22   S    
C23   C24   A    
C39   C44   A    
C12   C16   S    
O6    V2    S    
O9    V2    S    
C24   C27   A    
C17   H6    S    
C25   C26   A    
O13   V3    S    
O2    V1    S    
C31   H10   S    
C27   C28   A    
C51   C59   T    
C33   C34   A    
C38   C41   A    
C8    C16   T    
V4    O20   S    
H9    C43   S    
O14   C46   A    
O17   V3    S    
O14   V3    S    
O5    V1    S    
O11   V4    S    
O8    C3    A    
C32   C33   A    
C11   C13   S    
O21   H19   S    
C12   C14   S    
C19   Br2   S    
C8    C47   S    
C37   C38   A    
O4    V1    S    
O3    V1    S    
O18   V4    S    
O22   H20   S    
C43   C44   A    
C9    Br6   S    
C21   C23   A    
C5    H1    S    
C35   C37   A    
C6    Br1   S    
C9    C11   S    
O13   C48   A    
O7    V2    S    
C53   C54   S    
C32   H11   S    
C31   C36   A    
C42   C43   A    
C49   C50   S    
O18   C47   A    
C1    C37   S    
C13   C14   S    
V1    O10   S    
H17   C58   S    
C42   Br4   S    
C50   H16   S    
C45   O16   A    
O16   V4    S    
C56   C60   S    
C28   Br3   S    
