data_mof_unit_34772.cif
_audit_creation_date              2012-12-10T21:26:02-0500
_audit_creation_method            fapswitch 2.2
_symmetry_space_group_name_H-M    P1
_symmetry_Int_Tables_number       1
_space_group_crystal_system       triclinic
_cell_length_a                    8.564623
_cell_length_b                    16.189421
_cell_length_c                    16.840806
_cell_angle_alpha                 90.023326
_cell_angle_beta                  92.148294
_cell_angle_gamma                 99.394154
_cell_volume                      2302.09778241

loop_
_atom_site_label
_atom_site_type_symbol
_atom_type_description
_atom_site_fract_x
_atom_site_fract_y
_atom_site_fract_z
_atom_type_partial_charge
C1    C     C_R   0.501958 0.490816 0.652703 1.062793
C2    C     C_R   0.503950 0.509420 0.347099 1.005989
C3    C     C_R   0.401415 0.753277 0.472337 0.499676
C4    C     C_R   0.587625 0.246238 0.535651 0.493017
C5    C     C_R   0.402133 0.841266 0.477310 0.230749
C6    C     C_R   0.576941 0.157524 0.537944 0.258583
C7    C     C_R   0.534079 0.893606 0.514583 0.088465
C8    C     C_R   0.465749 0.106727 0.486316 0.082232
C9    C     C_R   0.653682 0.854639 0.550613 0.254399
C10   C     C_R   0.358015 0.146457 0.441268 0.266146
C11   C     C_R   0.643862 0.767339 0.547433 -0.254832
C12   C     C_R   0.365105 0.233496 0.445892 -0.245048
C13   C     C_R   0.799974 0.520432 0.505933 0.930212
C14   C     C_R   0.200551 0.479656 0.493300 0.894730
C15   C     C_2   0.965169 0.526669 0.518962 0.230360
C16   C     C_2   0.036130 0.474236 0.477094 0.189022
C17   C     C_R   0.511747 0.489261 0.738677 -0.377129
C18   C     C_R   0.535069 0.511412 0.262582 -0.392459
C19   C     C_R   0.624584 0.548715 0.779806 0.318889
C20   C     C_R   0.460763 0.444046 0.214288 0.352923
C21   C     C_R   0.638212 0.545372 0.862825 0.341720
C22   C     C_R   0.509081 0.437125 0.136611 0.392166
C23   C     C_R   0.519631 0.493625 0.903847 0.002518
C24   C     C_R   0.622695 0.501100 0.105796 -0.019667
C25   C     C_R   0.400483 0.438951 0.862348 0.248898
C26   C     C_R   0.704808 0.564040 0.155307 0.272450
C27   C     C_R   0.403139 0.432086 0.779823 0.346548
C28   C     C_R   0.659271 0.570717 0.233735 0.343578
H1    H     H_    0.736984 0.738548 0.574728 0.183362
H2    H     H_    0.276584 0.262945 0.414978 0.189786
N1    N     N_2   0.511935 0.496638 0.986902 -0.021815
N2    N     N_2   0.642813 0.506455 0.023362 -0.053072
N3    N     N_R   0.519180 0.718290 0.509780 -0.157033
N4    N     N_R   0.480820 0.281710 0.490220 -0.158523
N5    N     N_2   0.550520 0.983560 0.519838 -0.025273
N6    N     N_2   0.452210 0.017019 0.479658 -0.035898
O1    O     O_R   0.493140 0.422050 0.612640 -0.578160
O2    O     O_R   0.506860 0.577950 0.387360 -0.590728
O3    O     O_R   0.505450 0.562230 0.618920 -0.606132
O4    O     O_R   0.494550 0.437770 0.381080 -0.611923
O5    O     O_R   0.723530 0.446300 0.497600 -0.557666
O6    O     O_R   0.276470 0.553700 0.502400 -0.546875
O7    O     O_R   0.735850 0.586490 0.503880 -0.643224
O8    O     O_R   0.264150 0.413510 0.496120 -0.641950
Zn1   Zn    Zn3+2 0.491780 0.406400 0.495810 1.009907
Zn2   Zn    Zn3+2 0.508220 0.593600 0.504190 1.006197
O9    O     O_3   0.040621 0.567102 0.586618 -0.622773
C29   C     C_3   0.024512 0.652226 0.587834 -0.181036
H3    H     H_    0.919843 0.660013 0.621799 0.195753
H4    H     H_    0.016287 0.679225 0.527322 0.169536
H5    H     H_    0.130319 0.688065 0.619295 0.174030
O10   O     O_3   0.954534 0.422487 0.417314 -0.648691
C30   C     C_3   0.044769 0.421467 0.349113 -0.206471
H6    H     H_    0.134197 0.379709 0.358347 0.198136
H7    H     H_    0.101817 0.485518 0.332068 0.156945
H8    H     H_    0.964565 0.395490 0.298727 0.202083
O11   O     O_3   0.327766 0.392092 0.240629 -0.605721
C31   C     C_3   0.356797 0.309062 0.248808 -0.176775
H9    H     H_    0.261897 0.274068 0.284077 0.176121
H10   H     H_    0.472885 0.305663 0.279680 0.152406
H11   H     H_    0.346070 0.275683 0.191112 0.212065
O12   O     O_3   0.728145 0.606331 0.738430 -0.601156
C32   C     C_3   0.684968 0.686413 0.746905 -0.204038
H12   H     H_    0.565245 0.688182 0.719640 0.166875
H13   H     H_    0.771094 0.732678 0.715855 0.177577
H14   H     H_    0.689254 0.707223 0.809914 0.206171
O13   O     O_3   0.431766 0.372718 0.088305 -0.529215
C33   C     C_3   0.539069 0.318648 0.069106 -0.234492
H15   H     H_    0.622438 0.346600 0.023827 0.181896
H16   H     H_    0.470465 0.260297 0.042983 0.204580
H17   H     H_    0.606210 0.300673 0.122579 0.123021
O14   O     O_3   0.756101 0.599103 0.904029 -0.568109
C34   C     C_3   0.900510 0.568438 0.898522 -0.094629
H18   H     H_    0.890281 0.502432 0.919063 0.158951
H19   H     H_    0.991024 0.606967 0.937768 0.209398
H20   H     H_    0.943997 0.573819 0.837093 0.183852
Cl1   Cl    Cl    0.245644 0.379301 0.914003 -0.532354
Cl2   Cl    Cl    0.863171 0.635191 0.118245 -0.551586
O15   O     O_3   0.286913 0.377458 0.738554 -0.555781
C35   C     C_3   0.332709 0.297571 0.737286 -0.195106
H21   H     H_    0.329094 0.269151 0.797372 0.186707
H22   H     H_    0.452678 0.299664 0.713344 0.162494
H23   H     H_    0.247785 0.255991 0.697665 0.174863
O16   O     O_3   0.745468 0.629962 0.284490 -0.566867
C36   C     C_3   0.686186 0.705958 0.275735 -0.148241
H24   H     H_    0.554750 0.696879 0.277023 0.129091
H25   H     H_    0.725797 0.737862 0.219927 0.200510
H26   H     H_    0.733799 0.748000 0.326071 0.171697
O17   O     O_3   0.693325 0.297852 0.585605 -0.602720
C37   C     C_3   0.851084 0.290542 0.569120 -0.122131
H27   H     H_    0.928995 0.348945 0.589011 0.179887
H28   H     H_    0.869206 0.282127 0.504599 0.173042
H29   H     H_    0.890776 0.239165 0.603942 0.198211
O18   O     O_3   0.276160 0.700240 0.435601 -0.604425
C38   C     C_3   0.252457 0.722105 0.355328 -0.151301
H30   H     H_    0.227029 0.663738 0.319279 0.169532
H31   H     H_    0.356107 0.762439 0.329591 0.129096
H32   H     H_    0.147095 0.753806 0.349383 0.217346
O19   O     O_3   0.674416 0.121667 0.590138 -0.558827
C39   C     C_3   0.603842 0.113468 0.664674 -0.205633
H33   H     H_    0.677706 0.080636 0.705383 0.215263
H34   H     H_    0.483292 0.075184 0.660314 0.146182
H35   H     H_    0.598729 0.175712 0.691469 0.150618
O20   O     O_3   0.277235 0.874830 0.443258 -0.577716
C40   C     C_3   0.165473 0.880134 0.501638 -0.111610
H36   H     H_    0.066848 0.908375 0.474410 0.240651
H37   H     H_    0.217247 0.920736 0.552505 0.163039
H38   H     H_    0.114841 0.817360 0.523521 0.121523
Cl3   Cl    Cl    0.817332 0.914287 0.601303 -0.634907
Cl4   Cl    Cl    0.208908 0.087853 0.380211 -0.564744

loop_
_geom_bond_atom_site_label_1
_geom_bond_atom_site_label_2
_ccdc_geom_bond_type
C32   H13   S    
C28   O16   S    
C34   H18   S    
C38   H30   S    
C15   O9    S    
C13   O5    A    
O11   C31   S    
C38   H32   S    
C36   H24   S    
O8    Zn1   S    
C40   H37   S    
C26   Cl2   S    
C25   Cl1   S    
C19   C21   A    
C24   C26   A    
C27   O15   S    
C8    N6    S    
C36   H26   S    
C2    C18   S    
C3    N3    A    
C19   O12   S    
C31   H10   S    
C15   C16   D    
O6    Zn2   S    
C29   H5    S    
N1    N2    D    
C33   H15   S    
C18   C20   A    
C1    O1    A    
C14   O6    A    
C31   H11   S    
C29   H4    S    
C32   H14   S    
N3    Zn2   S    
C34   H19   S    
C35   H23   S    
O20   C40   S    
C30   H7    S    
C9    Cl3   S    
O4    Zn1   S    
C40   H38   S    
C4    N4    A    
O2    Zn2   S    
C36   H25   S    
O13   C33   S    
C17   C27   A    
C11   N3    A    
C18   C28   A    
O16   C36   S    
C4    C6    A    
C5    C7    A    
O14   C34   S    
C6    C8    A    
C21   O14   S    
C31   H9    S    
C30   H6    S    
C39   H35   S    
O15   C35   S    
N5    N6    D    
C23   N1    S    
C24   N2    S    
O12   C32   S    
C2    O2    A    
C37   H28   S    
O9    C29   S    
C39   H34   S    
N4    Zn1   S    
C9    C11   A    
C10   C12   A    
O3    Zn2   S    
C35   H22   S    
C29   H3    S    
C20   C22   A    
C13   C15   S    
C34   H20   S    
C14   C16   S    
C12   N4    A    
C13   O7    A    
O10   C30   S    
C37   H29   S    
C14   O8    A    
C4    O17   S    
C30   H8    S    
C7    C9    A    
C12   H2    S    
C7    N5    S    
C8    C10   A    
C16   O10   S    
C35   H21   S    
C3    C5    A    
C38   H31   S    
C25   C27   A    
C40   H36   S    
C26   C28   A    
O19   C39   S    
C6    O19   S    
C21   C23   A    
C20   O11   S    
C37   H27   S    
C33   H17   S    
C39   H33   S    
C17   C19   A    
C10   Cl4   S    
C3    O18   S    
C22   C24   A    
C23   C25   A    
O18   C38   S    
O7    Zn2   S    
C22   O13   S    
C5    O20   S    
C1    O3    A    
C32   H12   S    
C2    O4    A    
C1    C17   S    
C11   H1    S    
C33   H16   S    
O5    Zn1   S    
O17   C37   S    
O1    Zn1   S    
