data_mof_unit_32373.cif
_audit_creation_date              2012-12-11T15:11:48-0500
_audit_creation_method            fapswitch 2.2
_symmetry_space_group_name_H-M    P1
_symmetry_Int_Tables_number       1
_space_group_crystal_system       triclinic
_cell_length_a                    20.151161
_cell_length_b                    7.103758
_cell_length_c                    13.492694
_cell_angle_alpha                 89.999286
_cell_angle_beta                  103.607203
_cell_angle_gamma                 90.001576
_cell_volume                      1877.25179899

loop_
_atom_site_label
_atom_site_type_symbol
_atom_type_description
_atom_site_fract_x
_atom_site_fract_y
_atom_site_fract_z
_atom_type_partial_charge
O1    O     O_R   0.449830 0.506740 0.599960 -0.535705
O2    O     O_R   0.550170 0.006740 0.400040 -0.535705
O3    O     O_R   0.588980 0.179860 0.596720 -0.546820
O4    O     O_R   0.411020 0.679860 0.403280 -0.546821
C1    C     C_R   0.616491 0.344183 0.618966 0.665731
C2    C     C_R   0.383508 0.844180 0.381037 0.665731
O5    O     O_R   0.452740 0.177340 0.612040 -0.538695
O6    O     O_R   0.547260 0.677340 0.387960 -0.538691
O7    O     O_R   0.412960 0.002070 0.415460 -0.540783
O8    O     O_R   0.587040 0.502070 0.584540 -0.540784
C3    C     C_R   0.436665 0.345783 0.638724 0.691134
C4    C     C_R   0.563335 0.845789 0.361275 0.691137
O9    O     O_3   0.487110 0.337570 0.435490 -0.373370
O10   O     O_3   0.512890 0.837570 0.564510 -0.373370
V1    V     V_3+5 0.502390 0.064650 0.511970 1.400941
V2    V     V_3+5 0.497610 0.564650 0.488030 1.400947
C5    C     C_R   0.608477 0.870287 0.107226 -0.136726
C6    C     C_R   0.391528 0.369686 0.892790 -0.136718
H1    H     H_    0.514906 0.865509 0.157058 0.106470
H2    H     H_    0.485098 0.364842 0.842958 0.106463
H3    H     H_    0.691325 0.881716 0.981143 0.122847
H4    H     H_    0.308681 0.380885 0.018880 0.122837
H5    H     H_    0.582059 0.877700 0.027457 0.115784
H6    H     H_    0.417947 0.376787 0.972567 0.115784
C7    C     C_R   0.603010 0.854050 0.283741 -0.029344
C8    C     C_R   0.396991 0.354012 0.716260 -0.029338
C9    C     C_R   0.932006 0.849538 0.318356 -0.168208
C10   C     C_R   0.067994 0.349952 0.681635 -0.168211
C11   C     C_R   0.896708 0.841500 0.395110 -0.118584
C12   C     C_R   0.103290 0.342119 0.604876 -0.118592
C13   C     C_R   0.825567 0.843806 0.371227 -0.156325
C14   C     C_R   0.174431 0.344292 0.628762 -0.156328
C15   C     C_R   0.787543 0.854350 0.268608 0.083812
C16   C     C_R   0.212457 0.354487 0.731390 0.083808
C17   C     C_R   0.824178 0.861980 0.190235 0.085810
C18   C     C_R   0.175823 0.361895 0.809769 0.085806
C19   C     C_R   0.714564 0.857483 0.241140 0.077426
C20   C     C_R   0.285437 0.357482 0.758861 0.077421
C21   C     C_R   0.680118 0.867430 0.136317 0.151910
C22   C     C_R   0.319885 0.367048 0.863694 0.151919
C23   C     C_R   0.717235 0.874345 0.061166 -0.139841
C24   C     C_R   0.282769 0.373785 0.938850 -0.139825
C25   C     C_R   0.788062 0.871832 0.087522 -0.129659
C26   C     C_R   0.211942 0.371423 0.912491 -0.129662
C27   C     C_R   0.674297 0.851123 0.313946 -0.208984
C28   C     C_R   0.325703 0.351323 0.686049 -0.208986
C29   C     C_R   0.570154 0.863465 0.180605 -0.173691
C30   C     C_R   0.429849 0.363012 0.819406 -0.173690
C31   C     C_R   0.896505 0.859619 0.216285 -0.060561
C32   C     C_R   0.103496 0.359675 0.783716 -0.060563
H7    H     H_    0.696410 0.843644 0.394728 0.085922
H8    H     H_    0.303588 0.344140 0.605258 0.085918
H9    H     H_    0.987342 0.847781 0.338576 0.095201
H10   H     H_    0.012657 0.348336 0.661412 0.095203
H11   H     H_    0.802142 0.837001 0.435078 0.100607
H12   H     H_    0.197856 0.337667 0.564907 0.100603
H13   H     H_    0.924724 0.833458 0.474011 0.117009
H14   H     H_    0.075273 0.334356 0.525966 0.117010
H15   H     H_    0.814327 0.877208 0.026232 0.113018
H16   H     H_    0.185676 0.376651 0.973785 0.113007
C33   C     C_3   0.213469 0.651898 0.208104 -0.306540
C34   C     C_3   0.786504 0.151910 0.791963 -0.306585
H17   H     H_    0.178215 0.571945 0.244893 0.132268
H18   H     H_    0.821757 0.071852 0.755221 0.132301
H19   H     H_    0.213792 0.578501 0.135471 0.162063
H20   H     H_    0.786155 0.078627 0.864618 0.162024
C35   C     C_3   0.285973 0.647492 0.278262 -0.310125
C36   C     C_3   0.714010 0.147504 0.721777 -0.310127
H21   H     H_    0.321059 0.576119 0.237631 0.144942
H22   H     H_    0.678909 0.076163 0.762397 0.144887
H23   H     H_    0.285167 0.561997 0.347139 0.134203
H24   H     H_    0.714825 0.061980 0.652915 0.134241
H25   H     H_    0.151911 0.872601 0.328950 0.134617
H26   H     H_    0.848079 0.372366 0.671043 0.134638
H27   H     H_    0.259414 0.866444 0.434774 0.137721
H28   H     H_    0.740576 0.366364 0.565216 0.137714
C37   C     C_3   0.188045 0.948865 0.292238 -0.378464
C38   C     C_3   0.811966 0.448746 0.707741 -0.378492
C39   C     C_3   0.239732 0.968956 0.140020 0.028060
C40   C     C_3   0.760279 0.469083 0.859948 0.028050
C41   C     C_3   0.187692 0.857814 0.187271 0.084692
C42   C     C_3   0.812306 0.357818 0.812734 0.084693
H29   H     H_    0.223424 0.118902 0.130462 0.107975
H30   H     H_    0.776596 0.619033 0.869434 0.108037
C43   C     C_3   0.312454 0.849916 0.310372 0.090137
C44   C     C_3   0.687544 0.349924 0.689632 0.090122
C45   C     C_3   0.260780 0.944639 0.363812 -0.323020
C46   C     C_3   0.739227 0.444576 0.636177 -0.323018
C47   C     C_3   0.312644 0.961818 0.211669 -0.341749
C48   C     C_3   0.687361 0.461891 0.788316 -0.341742
H31   H     H_    0.349275 0.895469 0.172181 0.155137
H32   H     H_    0.650739 0.395556 0.827828 0.155147
H33   H     H_    0.330937 0.107999 0.231403 0.127686
H34   H     H_    0.669063 0.608057 0.768559 0.127715
H35   H     H_    0.170214 0.097383 0.281510 0.141018
H36   H     H_    0.829830 0.597240 0.718427 0.140991
H37   H     H_    0.277379 0.091048 0.386469 0.137267
H38   H     H_    0.722647 0.590996 0.613520 0.137252
O11   O     O_R   0.912980 0.203550 0.915410 -0.537857
O12   O     O_R   0.087020 0.703550 0.084590 -0.537839
O13   O     O_R   0.047270 0.535570 0.887960 -0.533797
O14   O     O_R   0.952730 0.035570 0.112040 -0.533821
C49   C     C_R   0.063876 0.368166 0.861743 0.686279
C50   C     C_R   0.936125 0.868158 0.138259 0.686277
O15   O     O_R   0.911030 0.532970 0.903270 -0.548039
O16   O     O_R   0.088970 0.032970 0.096730 -0.548057
O17   O     O_R   0.949820 0.708150 0.099970 -0.531126
O18   O     O_R   0.050180 0.208150 0.900030 -0.531158
C51   C     C_R   0.883795 0.364763 0.881969 0.690163
C52   C     C_R   0.116205 0.864764 0.118034 0.690140
O19   O     O_3   0.012900 0.375230 0.064480 -0.373499
O20   O     O_3   0.987100 0.875230 0.935520 -0.373499
V3    V     V_3+5 0.997610 0.648190 0.988040 1.435196
V4    V     V_3+5 0.002390 0.148190 0.011960 1.435130
I1    I     I_    0.241632 0.874271 0.988590 -0.501433
I2    I     I_    0.758388 0.374683 0.011430 -0.501430

loop_
_geom_bond_atom_site_label_1
_geom_bond_atom_site_label_2
_ccdc_geom_bond_type
C20   C22   A    
O12   C52   A    
C39   I1    S    
C9    C11   A    
C36   C44   S    
O1    C3    A    
C40   H30   S    
O2    C4    A    
O11   V4    S    
O20   V4    S    
O3    V1    S    
C21   C23   A    
O5    C3    A    
C5    H5    S    
C2    C43   S    
O16   V4    S    
C6    H6    S    
O15   V3    S    
C44   C46   S    
C27   H7    S    
C38   C46   S    
O11   C51   A    
C28   H8    S    
O13   V3    S    
C5    C21   A    
O18   V4    S    
C33   H17   S    
C33   C35   S    
O17   V3    S    
C6    C22   A    
C10   C32   A    
C40   I2    S    
C38   H36   S    
C17   C31   A    
C34   H18   S    
C13   C15   A    
C49   O18   A    
C47   H31   S    
C17   C25   A    
H28   C46   S    
C16   C18   A    
C8    C30   A    
C22   C24   A    
C34   C42   S    
C32   C49   S    
O6    V2    S    
C40   C48   S    
C23   C25   A    
C24   C26   A    
C2    O7    A    
O20   V3    S    
C48   H34   S    
C43   C45   S    
C19   C21   A    
C35   C43   S    
C20   C28   A    
C34   H20   S    
C12   C14   A    
C42   C51   S    
C40   C42   S    
C44   C48   S    
C39   C41   S    
C43   C47   S    
C3    C8    S    
C37   H35   S    
C15   C19   A    
C36   H24   S    
C35   H21   S    
C14   C16   A    
O4    V2    S    
O14   V4    S    
C38   C42   S    
C48   H32   S    
C37   C41   S    
O6    C4    A    
H1    C29   S    
O19   V3    S    
O1    V2    S    
O14   C50   A    
O2    V1    S    
H2    C30   S    
H3    C23   S    
C1    C44   S    
O4    C2    A    
C11   H13   S    
C18   C26   A    
C19   C27   A    
C7    C27   A    
C18   C32   A    
O16   C52   A    
H27   C45   S    
O15   C51   A    
C7    C29   A    
C10   H10   S    
C16   C20   A    
O12   V3    S    
C5    C29   A    
O3    C1    A    
C6    C30   A    
C9    H9    S    
C25   H15   S    
O13   C49   A    
C34   C36   S    
C4    C7    S    
C31   C50   S    
C10   C12   A    
O7    V1    S    
C1    O8    A    
C11   C13   A    
O8    V2    S    
C39   H29   S    
H4    C24   S    
C26   H16   S    
C12   H14   S    
O5    V1    S    
C15   C17   A    
O19   V4    S    
C35   H23   S    
C47   H33   S    
C39   C47   S    
C8    C28   A    
C33   H19   S    
C41   C52   S    
C37   C45   S    
C36   H22   S    
H26   C38   S    
O9    V2    S    
H25   C37   S    
O10   V1    S    
C33   C41   S    
C13   H11   S    
C14   H12   S    
C50   O17   A    
C46   H38   S    
C9    C31   A    
C45   H37   S    
