data_mof_unit_64187.cif
_audit_creation_date              2012-12-10T18:12:14-0500
_audit_creation_method            fapswitch 2.2
_symmetry_space_group_name_H-M    P1
_symmetry_Int_Tables_number       1
_space_group_crystal_system       triclinic
_cell_length_a                    18.712724
_cell_length_b                    18.711405
_cell_length_c                    18.773276
_cell_angle_alpha                 109.709057
_cell_angle_beta                  109.508137
_cell_angle_gamma                 109.356558
_cell_volume                      5050.07073523

loop_
_atom_site_label
_atom_site_type_symbol
_atom_type_description
_atom_site_fract_x
_atom_site_fract_y
_atom_site_fract_z
_atom_type_partial_charge
C1    C     C_R   0.618791 0.620229 0.498743 0.890910
C2    C     C_R   0.270673 0.790803 0.286898 -0.140544
C3    C     C_R   0.233777 0.812136 0.338772 -0.088795
C4    C     C_R   0.377459 0.497687 0.379580 0.867646
C5    C     C_R   0.200538 0.756009 0.367487 -0.126761
C6    C     C_R   0.203026 0.677905 0.343412 -0.183216
C7    C     C_R   0.239485 0.655854 0.290871 0.105332
C8    C     C_R   0.756050 0.755602 0.578016 -0.209160
C9    C     C_R   0.820544 0.822418 0.581872 0.454499
C10   C     C_R   0.812605 0.817228 0.502605 -0.180822
C11   C     C_R   0.738954 0.749039 0.422085 -0.254530
C12   C     C_R   0.235750 0.172324 0.194630 -0.292044
C13   C     C_R   0.672690 0.683493 0.418344 0.168376
C14   C     C_R   0.683108 0.686791 0.497487 -0.150394
C15   C     C_R   0.695059 0.525454 0.768677 -0.181747
C16   C     C_R   0.382582 0.379541 0.502599 0.897044
C17   C     C_R   0.758028 0.523333 0.831088 -0.228489
C18   C     C_R   0.813755 0.496791 0.811370 -0.117044
C19   C     C_R   0.806204 0.470232 0.728047 0.445052
C20   C     C_R   0.742498 0.472351 0.666037 -0.168631
C21   C     C_R   0.687253 0.499784 0.686210 -0.122784
C22   C     C_R   0.256791 0.328983 0.520666 -0.276979
C23   C     C_R   0.188153 0.419237 0.163772 0.089405
C24   C     C_R   0.190769 0.266452 0.519619 0.119864
C25   C     C_R   0.186512 0.185015 0.499645 -0.197092
C26   C     C_R   0.249346 0.167446 0.483930 0.382584
C27   C     C_R   0.318841 0.233361 0.490859 0.116079
C28   C     C_R   0.620585 0.500081 0.620351 0.881957
C29   C     C_R   0.319272 0.312743 0.505247 -0.185763
C30   C     C_R   0.000187 0.620434 0.120336 0.868637
C31   C     C_R   0.120089 0.500402 0.120189 0.898582
C32   C     C_R   0.000389 0.379767 0.880287 0.896705
C33   C     C_R   0.879919 0.499222 0.879319 0.842993
C34   C     C_R   0.186173 0.498343 0.183988 -0.114376
C35   C     C_R   0.000208 0.880011 0.379855 0.845916
C36   C     C_R   0.879663 0.881289 0.501305 0.865935
C37   C     C_R   0.000011 0.120160 0.620164 0.861164
C38   C     C_R   0.120070 0.120093 0.500219 0.861209
C39   C     C_R   0.017573 0.766392 0.188506 -0.184077
C40   C     C_R   0.273482 0.216455 0.158044 0.511768
C41   C     C_R   0.016463 0.829929 0.251862 -0.198866
C42   C     C_R   0.000492 0.814268 0.314077 0.004954
C43   C     C_R   0.984640 0.735714 0.313395 -0.206434
C44   C     C_R   0.983240 0.671162 0.248598 -0.181437
C45   C     C_R   0.243640 0.573955 0.267153 -0.037327
C46   C     C_R   0.000325 0.686926 0.186691 -0.002197
C47   C     C_R   0.081275 0.318093 0.827516 0.445843
C48   C     C_R   0.080005 0.252889 0.762466 -0.292467
C49   C     C_R   0.000467 0.186627 0.686591 -0.057813
C50   C     C_R   0.921563 0.183458 0.674744 -0.168275
C51   C     C_R   0.921947 0.246573 0.739819 -0.261859
C52   C     C_R   0.276148 0.295516 0.170965 -0.170384
C53   C     C_R   0.001415 0.313680 0.815189 -0.053748
C54   C     C_R   0.240705 0.330846 0.218925 0.038068
C55   C     C_R   0.204514 0.287104 0.257704 0.204226
C56   C     C_R   0.305210 0.571493 0.330293 -0.245681
C57   C     C_R   0.202479 0.207718 0.244461 -0.215695
C58   C     C_3   0.591334 0.614442 0.330132 -0.400531
C59   C     C_3   0.606961 0.544489 0.278395 -0.800577
C60   C     C_3   0.128345 0.290324 0.542704 -0.368186
C61   C     C_3   0.059414 0.284322 0.465368 -0.824766
C62   C     C_3   0.393195 0.218652 0.487465 -0.311991
C63   C     C_3   0.369945 0.162664 0.393552 -0.800602
C64   C     C_3   0.170705 0.324074 0.315623 -0.423299
C65   C     C_3   0.084004 0.317635 0.264149 -0.866360
C66   C     C_3   0.132404 0.341504 0.069976 -0.366702
C67   C     C_R   0.307838 0.494198 0.312668 -0.130565
C68   C     C_3   0.051061 0.268809 0.054998 -0.820069
C69   C     C_R   0.246348 0.415926 0.231432 0.022971
C70   C     C_R   0.274262 0.713264 0.263565 -0.098184
H1    H     H_    0.233116 0.111028 0.185614 0.141402
H2    H     H_    0.258975 0.390870 0.533041 0.180961
H3    H     H_    0.030503 0.778564 0.140404 0.151127
H4    H     H_    0.029127 0.891413 0.253276 0.136279
H5    H     H_    0.972313 0.724230 0.362069 0.142603
H6    H     H_    0.970695 0.609964 0.247779 0.151018
H7    H     H_    0.306770 0.330156 0.143976 0.150431
H8    H     H_    0.140618 0.254310 0.770231 0.146533
H9    H     H_    0.859946 0.131593 0.616009 0.159338
H10   H     H_    0.860727 0.244147 0.730939 0.165377
H11   H     H_    0.175362 0.172949 0.273235 0.158284
H12   H     H_    0.231062 0.872176 0.356841 0.151635
H13   H     H_    0.351778 0.630649 0.393545 0.174926
H14   H     H_    0.303871 0.697834 0.224173 0.135875
H15   H     H_    0.296811 0.834523 0.265066 0.129008
H16   H     H_    0.913820 0.944206 0.659232 0.335748
H17   H     H_    0.659907 0.574296 0.265597 0.246426
H18   H     H_    0.625538 0.511828 0.315047 0.274313
H19   H     H_    0.546085 0.494255 0.214733 0.245724
H20   H     H_    0.534097 0.582733 0.336728 0.209059
H21   H     H_    0.572749 0.646011 0.292039 0.197211
H22   H     H_    0.892440 0.431447 0.748989 0.326812
H23   H     H_    0.172413 0.772818 0.408035 0.150856
H24   H     H_    0.301876 0.128469 0.107038 0.328879
H25   H     H_    0.090960 0.332683 0.448477 0.246310
H26   H     H_    0.022403 0.217380 0.407484 0.272055
H27   H     H_    0.012791 0.298939 0.482856 0.251858
H28   H     H_    0.095221 0.248208 0.564335 0.206026
H29   H     H_    0.165788 0.358361 0.599097 0.201057
H30   H     H_    0.184459 0.040619 0.435111 0.324259
H31   H     H_    0.311256 0.097292 0.360876 0.271339
H32   H     H_    0.356838 0.195283 0.355240 0.268390
H33   H     H_    0.425563 0.153166 0.394007 0.233189
H34   H     H_    0.176634 0.634649 0.365626 0.139244
H35   H     H_    0.455062 0.281439 0.520778 0.189403
H36   H     H_    0.408383 0.185403 0.524751 0.228525
H37   H     H_    0.207871 0.377523 0.901444 0.330418
H38   H     H_    0.058012 0.336870 0.308139 0.247745
H39   H     H_    0.035218 0.249274 0.209890 0.262188
H40   H     H_    0.093050 0.362736 0.237914 0.277119
H41   H     H_    0.159555 0.287233 0.350073 0.215807
H42   H     H_    0.220119 0.393164 0.367247 0.202239
H43   H     H_    0.069208 0.234865 0.090019 0.262433
H44   H     H_    0.012660 0.295543 0.076780 0.270212
H45   H     H_    0.762345 0.757943 0.638449 0.178372
H46   H     H_    0.008901 0.219523 0.984096 0.252733
H47   H     H_    0.110936 0.362605 0.022118 0.225867
H48   H     H_    0.171890 0.314073 0.051878 0.207417
H49   H     H_    0.733137 0.746833 0.361806 0.171447
H50   H     H_    0.652010 0.546118 0.784404 0.166052
H51   H     H_    0.764233 0.543517 0.895199 0.155460
H52   H     H_    0.736222 0.452459 0.601932 0.177782
O1    O     O_R   0.591640 0.539900 0.448310 -0.612973
O2    O     O_R   0.948270 0.908330 0.356580 -0.620370
O3    O     O_R   0.960090 0.908280 0.551610 -0.602658
O4    O     O_R   0.591610 0.643330 0.551710 -0.621917
O5    O     O_R   0.856650 0.908310 0.448190 -0.623016
O6    O     O_R   0.051730 0.091500 0.643240 -0.619961
O7    O     O_R   0.948290 0.091530 0.539820 -0.624923
O8    O     O_R   0.143350 0.091510 0.551630 -0.602355
O9    O     O_R   0.039910 0.091550 0.448210 -0.620865
O10   O     O_R   0.408400 0.448280 0.356670 -0.618564
O11   O     O_R   0.408370 0.551710 0.460080 -0.627081
O12   O     O_R   0.051750 0.643320 0.091550 -0.623215
O13   O     O_R   0.408390 0.356670 0.448290 -0.617548
O14   O     O_R   0.408360 0.460100 0.551690 -0.627753
O15   O     O_R   0.591630 0.448290 0.539920 -0.631540
O16   O     O_R   0.591600 0.551720 0.643330 -0.621383
O17   O     O_R   0.948300 0.539910 0.091570 -0.628220
O18   O     O_3   0.888307 0.891392 0.663581 -0.751026
O19   O     O_3   0.857768 0.440894 0.703951 -0.767213
O20   O     O_3   0.308642 0.184407 0.109927 -0.771118
O21   O     O_3   0.245764 0.087475 0.463373 -0.778271
O22   O     O_3   0.158483 0.385176 0.903468 -0.787854
O23   O     O_R   0.039910 0.448280 0.091610 -0.626296
O24   O     O_R   0.143370 0.551700 0.091590 -0.615908
O25   O     O_R   0.948300 0.356650 0.908390 -0.635817
O26   O     O_R   0.051750 0.460070 0.908380 -0.577304
O27   O     O_R   0.856690 0.448280 0.908350 -0.617527
O28   O     O_R   0.960140 0.551690 0.908340 -0.613930
O29   O     O_R   0.051710 0.908290 0.460000 -0.619782
Zn1   Zn    Zn3+2 0.500020 0.430940 0.430950 0.961817
Zn2   Zn    Zn3+2 0.499980 0.569060 0.569050 0.954075
Zn3   Zn    Zn3+2 0.930950 0.430940 0.999980 0.952806
Zn4   Zn    Zn3+2 0.069100 0.569040 0.999960 0.990131
Zn5   Zn    Zn3+2 0.069070 0.999890 0.568970 0.991774
Zn6   Zn    Zn3+2 0.930930 0.999930 0.430860 0.950555

loop_
_geom_bond_atom_site_label_1
_geom_bond_atom_site_label_2
_ccdc_geom_bond_type
C66   C68   S    
C22   C29   A    
C40   O20   S    
C27   C29   A    
C41   C42   A    
C23   C69   A    
C36   O3    A    
C63   H31   S    
C60   H29   S    
C11   H49   S    
C50   H9    S    
C7    C70   A    
O7    Zn6   S    
C61   H26   S    
C39   C41   A    
C62   H35   S    
C26   C27   A    
O11   Zn2   S    
C7    C45   S    
C23   C66   S    
C35   O2    A    
C60   H28   S    
C33   O28   A    
C5    C6    A    
C9    O18   S    
C64   H42   S    
O13   Zn1   S    
C15   H50   S    
C2    H15   S    
O9    Zn6   S    
C18   C19   A    
C59   H19   S    
C48   H8    S    
C44   H6    S    
O25   Zn3   S    
C59   H18   S    
C8    H45   S    
C41   H4    S    
O1    Zn1   S    
C31   O24   A    
O24   Zn4   S    
O12   Zn4   S    
C45   C56   A    
C44   C46   A    
C8    C9    A    
C30   O12   A    
C66   H47   S    
C10   C36   S    
O15   Zn1   S    
O26   Zn4   S    
C6    H34   S    
C70   H14   S    
C9    C10   A    
O5    Zn6   S    
C65   H38   S    
C20   H52   S    
O3    Zn5   S    
H16   O18   S    
C68   H43   S    
C47   C53   A    
C37   O6    A    
C19   O19   S    
C13   C14   A    
C55   C64   S    
C35   O29   A    
C63   H32   S    
C22   H2    S    
C52   C54   A    
C50   C51   A    
C43   H5    S    
H24   O20   S    
C28   O16   A    
C1    O4    A    
C4    O10   A    
C32   O25   A    
C64   H41   S    
C13   C58   S    
O17   Zn3   S    
C58   C59   S    
C40   C52   A    
C47   O22   S    
C60   C61   S    
C67   C69   A    
C12   C40   A    
O27   Zn3   S    
C1    O1    A    
C62   C63   S    
C27   C62   S    
C25   C38   S    
C37   C49   S    
C47   C48   A    
C24   C60   S    
C23   C34   A    
O2    Zn6   S    
C3    H12   S    
C17   C18   A    
C31   C34   S    
C34   C45   A    
O29   Zn5   S    
C24   C25   A    
H22   O19   S    
C58   H20   S    
C65   H39   S    
C68   H46   S    
C39   C46   A    
C62   H36   S    
O23   Zn3   S    
O16   Zn2   S    
C63   H33   S    
C48   C49   A    
C21   C28   S    
O28   Zn4   S    
C55   C57   A    
C43   C44   A    
O10   Zn1   S    
C57   H11   S    
C36   O5    A    
C42   C43   A    
C12   C57   A    
C26   O21   S    
C16   O14   A    
C38   O8    A    
C32   C53   S    
C56   H13   S    
C58   H21   S    
C17   H51   S    
C15   C17   A    
C54   C55   A    
C8    C14   A    
C30   O17   A    
C12   H1    S    
C61   H27   S    
C28   O15   A    
C3    C5    A    
H30   O21   S    
C4    C67   S    
C5    H23   S    
C61   H25   S    
C6    C7    A    
C32   O26   A    
C56   C67   A    
C30   C46   S    
C64   C65   S    
C19   C20   A    
C2    C3    A    
C25   C26   A    
C33   O27   A    
C38   O9    A    
O14   Zn2   S    
C11   C13   A    
C54   C69   S    
C51   H10   S    
C35   C42   S    
C37   O7    A    
C22   C24   A    
C39   H3    S    
C18   C33   S    
C59   H17   S    
C65   H40   S    
C10   C11   A    
O6    Zn5   S    
C31   O23   A    
O4    Zn2   S    
C15   C21   A    
C20   C21   A    
C16   C29   S    
C49   C50   A    
C66   H48   S    
O8    Zn5   S    
C1    C14   S    
C51   C53   A    
H37   O22   S    
C2    C70   A    
C16   O13   A    
C52   H7    S    
C68   H44   S    
C4    O11   A    
