data_mof_unit_45032.cif
_audit_creation_date              2012-10-26T19:04:45-0400
_audit_creation_method            fapswitch 2.2
_symmetry_space_group_name_H-M    P1
_symmetry_Int_Tables_number       1
_space_group_crystal_system       triclinic
_cell_length_a                    9.60682
_cell_length_b                    10.874849
_cell_length_c                    13.573502
_cell_angle_alpha                 94.85571
_cell_angle_beta                  74.681223
_cell_angle_gamma                 91.656768
_cell_volume                      1362.73799146

loop_
_atom_site_label
_atom_site_type_symbol
_atom_type_description
_atom_site_fract_x
_atom_site_fract_y
_atom_site_fract_z
_atom_type_partial_charge
C1    C     C_R   0.505788 0.736493 0.490793 0.590428
C2    C     C_R   0.391511 0.469363 0.804015 0.017359
C3    C     C_R   0.306235 0.868516 0.400762 0.276290
C4    C     C_R   0.424851 0.500352 0.698362 0.525875
C5    C     C_R   0.171603 0.920520 0.408015 -0.115086
C6    C     C_R   0.130961 0.030370 0.467667 -0.159763
C7    C     C_R   0.231698 0.098588 0.507156 -0.117864
C8    C     C_R   0.373150 0.054072 0.491158 -0.018918
C9    C     C_R   0.399193 0.929226 0.455420 0.050399
C10   C     C_R   0.516250 0.869846 0.476508 -0.004909
C11   C     C_R   0.628860 0.942683 0.501581 0.023081
C12   C     C_R   0.487258 0.450572 0.951511 0.045025
C13   C     C_R   0.615528 0.069958 0.514641 -0.152565
C14   C     C_R   0.489886 0.127538 0.509025 -0.027065
C15   C     C_R   0.898500 0.325713 0.368990 -0.082225
C16   C     C_R   0.495542 0.262503 0.505436 0.546152
C17   C     C_R   0.987494 0.231860 0.313435 -0.200452
C18   C     C_R   0.128962 0.228134 0.317773 -0.162805
C19   C     C_R   0.182897 0.320325 0.375394 -0.054842
C20   C     C_R   0.094288 0.412312 0.437930 0.143456
C21   C     C_R   0.945743 0.413648 0.436387 0.162285
C22   C     C_R   0.906167 0.582590 0.560705 0.030278
C23   C     C_R   0.478862 0.516377 0.868253 0.004746
C24   C     C_R   0.054301 0.583169 0.560165 0.014465
C25   C     C_R   0.576283 0.501178 0.300803 0.572203
C26   C     C_R   0.751520 0.642466 0.056099 -0.103222
C27   C     C_R   0.618392 0.517837 0.189791 -0.000363
C28   C     C_R   0.308913 0.362102 0.826174 -0.115054
C29   C     C_R   0.331028 0.290295 0.900070 -0.130770
C30   C     C_R   0.426794 0.330122 0.957033 -0.081301
C31   C     C_2   0.740844 0.780358 0.879499 0.562590
C32   C     C_2   0.407989 0.392794 0.165463 0.549979
C33   C     C_2   0.765635 0.891958 0.510539 0.564562
C34   C     C_R   0.562311 0.504181 0.022611 -0.003540
C35   C     C_R   0.658424 0.604713 0.994451 0.009078
C36   C     C_R   0.656575 0.665935 0.906874 0.052780
C37   C     C_R   0.562370 0.624358 0.847988 -0.123772
C38   C     C_R   0.535331 0.468227 0.124194 0.061431
C39   C     C_R   0.732960 0.597867 0.151870 -0.136684
Cu1   Cu    Cu3+1 0.359340 0.500010 0.500010 0.971333
Cu2   Cu    Cu3+1 0.640660 0.499990 0.499990 0.979607
H1    H     H_    0.800579 0.634843 0.199963 0.162309
H2    H     H_    0.295503 0.318657 0.366557 0.226508
H3    H     H_    0.093162 0.651387 0.609497 0.135223
H4    H     H_    0.836648 0.709409 0.032539 0.168751
H5    H     H_    0.243633 0.324438 0.776599 0.128923
H6    H     H_    0.454993 0.264124 0.003317 0.160211
H7    H     H_    0.280545 0.200177 0.909017 0.128806
H8    H     H_    0.554589 0.677566 0.785660 0.146745
H9    H     H_    0.275218 0.734401 0.303895 0.338784
H10   H     H_    0.805750 0.948109 0.926544 0.345316
H11   H     H_    0.197232 0.367811 0.169267 0.337862
H12   H     H_    0.098515 0.875499 0.367898 0.162629
H13   H     H_    0.908148 0.884423 0.595383 0.344525
H14   H     H_    0.023973 0.066827 0.478064 0.162023
H15   H     H_    0.195579 0.183926 0.552018 0.157505
H16   H     H_    0.705673 0.124531 0.528723 0.162145
H17   H     H_    0.834422 0.649941 0.610535 0.168743
H18   H     H_    0.794404 0.325515 0.355580 0.189258
H19   H     H_    0.947385 0.163477 0.264768 0.141331
H20   H     H_    0.199245 0.156451 0.272449 0.181992
N1    N     N_R   0.852480 0.498790 0.499000 -0.246464
N2    N     N_R   0.148360 0.498710 0.498970 -0.255795
O1    O     O_R   0.381190 0.680360 0.500010 -0.472517
O2    O     O_2   0.801107 0.794244 0.789800 -0.536146
O3    O     O_R   0.746426 0.874445 0.955302 -0.693796
O4    O     O_2   0.423703 0.289514 0.189812 -0.581764
O5    O     O_R   0.272309 0.435511 0.164714 -0.685559
O6    O     O_2   0.838391 0.824425 0.440413 -0.532342
O7    O     O_R   0.813766 0.925397 0.597707 -0.683520
O8    O     O_R   0.618760 0.680340 0.500000 -0.469748
O9    O     O_R   0.323240 0.499990 0.650990 -0.513665
O10   O     O_R   0.560820 0.499960 0.650980 -0.505123
O11   O     O_R   0.381240 0.319660 0.500000 -0.547007
O12   O     O_R   0.618810 0.319640 0.499990 -0.530882
O13   O     O_R   0.439180 0.500040 0.349020 -0.467856
O14   O     O_R   0.676760 0.500010 0.349010 -0.527771
O15   O     O_3   0.353004 0.764538 0.335654 -0.661834

loop_
_geom_bond_atom_site_label_1
_geom_bond_atom_site_label_2
_ccdc_geom_bond_type
C31   O3    S    
C16   O12   A    
C35   C36   A    
C6    H14   S    
C7    C8    A    
C12   C23   A    
C28   H5    S    
C1    O8    A    
Cu1   N2    S    
C25   O14   A    
Cu2   N1    S    
C5    H12   S    
C36   C37   A    
C18   C19   A    
Cu2   O14   S    
C5    C6    A    
C26   C39   A    
C22   N1    A    
C27   C38   A    
C31   O2    D    
C34   C35   A    
C26   H4    S    
C19   C20   A    
C27   C39   A    
C8    C9    A    
C32   C38   S    
C9    C10   A    
H11   O5    S    
C33   O6    D    
Cu2   O8    S    
C13   C14   A    
C7    H15   S    
H9    O15   S    
C19   H2    S    
C39   H1    S    
C29   H7    S    
C30   H6    S    
C11   C33   S    
C23   C37   A    
Cu1   O13   S    
H10   O3    S    
C2    C4    S    
C29   C30   A    
C3    C9    A    
Cu2   O12   S    
C37   H8    S    
H13   O7    S    
C17   C18   A    
C4    O10   A    
C21   N1    A    
C33   O7    S    
C32   O4    D    
Cu1   Cu2   S    
C24   N2    A    
C24   H3    S    
C14   C16   S    
C12   C34   A    
C1    O1    A    
C4    O9    A    
C15   C17   A    
C28   C29   A    
C8    C14   A    
Cu1   O9    S    
C12   C30   A    
C34   C38   A    
C15   H18   S    
C1    C10   S    
C3    C5    A    
C22   H17   S    
C18   H20   S    
C6    C7    A    
C16   O11   A    
C25   C27   S    
Cu1   O1    S    
C32   O5    S    
C25   O13   A    
C20   N2    A    
C11   C13   A    
Cu1   O11   S    
C22   C24   A    
C10   C11   A    
C17   H19   S    
Cu2   O10   S    
C26   C35   A    
C15   C21   A    
C13   H16   S    
C20   C21   A    
C2    C23   A    
C31   C36   S    
C2    C28   A    
C3    O15   S    
