data_mof_unit_24742.cif
_audit_creation_date              2012-12-10T17:35:03-0500
_audit_creation_method            fapswitch 2.2
_symmetry_space_group_name_H-M    P1
_symmetry_Int_Tables_number       1
_space_group_crystal_system       triclinic
_cell_length_a                    12.147996
_cell_length_b                    12.802601
_cell_length_c                    15.714495
_cell_angle_alpha                 91.74666
_cell_angle_beta                  88.248138
_cell_angle_gamma                 92.64222
_cell_volume                      2439.2377329

loop_
_atom_site_label
_atom_site_type_symbol
_atom_type_description
_atom_site_fract_x
_atom_site_fract_y
_atom_site_fract_z
_atom_type_partial_charge
C1    C     C_R   0.520163 0.699713 0.492048 0.851038
C2    C     C_R   0.527656 0.809750 0.472016 -0.098183
C3    C     C_R   0.637408 0.966312 0.442819 -0.212508
C4    C     C_R   0.501614 0.500170 0.661218 0.904501
C5    C     C_R   0.630874 0.861056 0.460721 -0.220029
C6    C     C_R   0.430632 0.864534 0.462627 -0.080677
C7    C     C_R   0.437991 0.973274 0.466889 0.035974
C8    C     C_R   0.541611 0.023818 0.447109 0.135209
C9    C     C_R   0.547152 0.131586 0.435433 0.041160
C10   C     C_R   0.363148 0.140347 0.501502 -0.253629
C11   C     C_R   0.347371 0.033211 0.493279 -0.010160
C12   C     C_3   0.380203 0.509516 0.051352 -0.445292
C13   C     C_R   0.949559 0.414932 0.405135 -0.088711
C14   C     C_R   0.834957 0.425716 0.416810 -0.058621
C15   C     C_R   0.862072 0.529919 0.542396 0.194466
C16   C     C_R   0.478376 0.300316 0.493177 0.884140
C17   C     C_R   0.977990 0.532341 0.526642 0.013499
C18   C     C_R   0.024511 0.468075 0.462018 -0.025405
C19   C     C_R   0.142918 0.461375 0.459175 0.028773
C20   C     C_R   0.160817 0.586731 0.574167 0.291882
C21   C     C_R   0.047863 0.597241 0.576219 -0.296158
C22   C     C_R   0.498304 0.499751 0.338810 0.896409
C23   C     C_3   0.500138 0.510324 0.083381 0.164499
C24   C     C_3   0.382633 0.523869 0.953939 -0.144505
C25   C     C_3   0.583629 0.599976 0.952370 -0.104666
C26   C     C_3   0.567174 0.613558 0.052867 0.102850
C27   C     C_1   0.495270 0.502627 0.250390 -0.155977
C28   C     C_3   0.502634 0.510194 0.917051 0.222824
C29   C     C_1   0.300250 0.450910 0.913747 0.163905
C30   C     C_3   0.635045 0.181260 0.375525 -0.414597
C31   C     C_3   0.633096 0.129434 0.285906 -0.372233
C32   C     C_3   0.713817 0.186056 0.224702 -0.851794
C33   C     C_1   0.243630 0.988207 0.526086 0.161989
C34   C     C_3   0.555096 0.409620 0.045113 -0.170302
C35   C     C_1   0.328192 0.811576 0.436079 0.214654
C36   C     C_1   0.197436 0.390182 0.400898 0.260012
C37   C     C_3   0.225200 0.651154 0.639980 -0.385746
C38   C     C_3   0.220114 0.601453 0.728199 -0.324028
C39   C     C_3   0.114650 0.623055 0.779837 -0.877027
C40   C     C_1   0.984302 0.353028 0.331687 0.144960
C41   C     C_3   0.820011 0.567450 0.630071 -0.377063
C42   C     C_3   0.774059 0.677884 0.631297 -0.272449
C43   C     C_3   0.819063 0.748338 0.703821 -0.956680
C44   C     C_3   0.603846 0.698914 0.896897 -0.397811
C45   C     C_3   0.543427 0.404575 0.947328 -0.483537
C46   C     C_3   0.503515 0.760128 0.873119 -0.334410
C47   C     C_3   0.535399 0.839263 0.804833 -0.893921
C48   C     C_3   0.503838 0.713248 0.084597 -0.381717
C49   C     C_3   0.571890 0.817802 0.094863 -0.361043
C50   C     C_3   0.498770 0.905994 0.125837 -0.877841
C51   C     C_1   0.677655 0.618683 0.091809 0.108733
C52   C     C_1   0.508862 0.311358 0.082031 0.190309
C53   C     C_1   0.495912 0.506005 0.175291 -0.078916
C54   C     C_1   0.504809 0.506048 0.825157 -0.076183
C55   C     C_1   0.504931 0.502727 0.749849 -0.209269
C56   C     C_R   0.463054 0.189496 0.475303 -0.106623
H1    H     H_    0.332130 0.571880 0.083672 0.161927
H2    H     H_    0.666241 0.565629 0.942771 0.127620
H3    H     H_    0.485091 0.339502 0.926861 0.205834
H4    H     H_    0.624745 0.387432 0.916593 0.165778
H5    H     H_    0.691950 0.268821 0.218931 0.261176
H6    H     H_    0.799146 0.183796 0.247773 0.271736
H7    H     H_    0.710490 0.147004 0.160702 0.254399
H8    H     H_    0.655409 0.046480 0.287610 0.234824
H9    H     H_    0.548642 0.131422 0.260828 0.245769
H10   H     H_    0.619797 0.264422 0.365534 0.226576
H11   H     H_    0.717984 0.177637 0.402847 0.199937
H12   H     H_    0.335928 0.434631 0.068718 0.206915
H13   H     H_    0.096707 0.707315 0.779427 0.258756
H14   H     H_    0.044319 0.575263 0.754197 0.258717
H15   H     H_    0.124583 0.600897 0.846844 0.255279
H16   H     H_    0.228950 0.515543 0.721739 0.252636
H17   H     H_    0.290739 0.634462 0.765059 0.202079
H18   H     H_    0.311717 0.663119 0.621043 0.228924
H19   H     H_    0.194717 0.731805 0.644971 0.180564
H20   H     H_    0.810840 0.708007 0.765322 0.261765
H21   H     H_    0.907142 0.770952 0.691424 0.267322
H22   H     H_    0.772481 0.820974 0.709002 0.263377
H23   H     H_    0.644301 0.414003 0.059434 0.140164
H24   H     H_    0.794416 0.716963 0.570279 0.224917
H25   H     H_    0.683216 0.671909 0.640186 0.235230
H26   H     H_    0.764292 0.508032 0.658998 0.207947
H27   H     H_    0.885294 0.564656 0.677366 0.168107
H28   H     H_    0.602649 0.894185 0.827132 0.267111
H29   H     H_    0.562837 0.798351 0.745069 0.257741
H30   H     H_    0.462866 0.884924 0.790872 0.255154
H31   H     H_    0.438131 0.706731 0.846972 0.214005
H32   H     H_    0.469711 0.804285 0.928600 0.230372
H33   H     H_    0.667847 0.751988 0.925691 0.192539
H34   H     H_    0.297362 0.185470 0.530029 0.178637
H35   H     H_    0.643225 0.671836 0.835896 0.210125
H36   H     H_    0.433326 0.917052 0.079529 0.265707
H37   H     H_    0.460037 0.888067 0.188991 0.265329
H38   H     H_    0.549437 0.980106 0.132199 0.259162
H39   H     H_    0.636502 0.810519 0.142570 0.236558
H40   H     H_    0.612675 0.841515 0.034440 0.230521
H41   H     H_    0.432521 0.723856 0.044300 0.191192
H42   H     H_    0.466716 0.698865 0.148880 0.202309
H43   H     H_    0.718179 0.003502 0.431939 0.155038
H44   H     H_    0.706264 0.819549 0.463455 0.167524
H45   H     H_    0.356558 0.603679 0.941913 0.118926
H46   H     H_    0.015307 0.657285 0.618038 0.178281
H47   H     H_    0.778965 0.388285 0.371818 0.145475
N1    N     N_R   0.207800 0.519340 0.515510 -0.138785
N2    N     N_R   0.792190 0.480660 0.484490 -0.115743
N3    N     N_1   0.235873 0.393786 0.882320 -0.206728
N4    N     N_1   0.160662 0.952618 0.552559 -0.214869
N5    N     N_1   0.246944 0.769356 0.414562 -0.190811
N6    N     N_1   0.241356 0.332731 0.354316 -0.192232
N7    N     N_1   0.011054 0.303343 0.272495 -0.194528
N8    N     N_1   0.763500 0.622427 0.122037 -0.208971
N9    N     N_1   0.472599 0.234605 0.110815 -0.212765
O1    O     O_R   0.421690 0.658830 0.504140 -0.637412
O2    O     O_R   0.609320 0.646410 0.494190 -0.628497
O3    O     O_R   0.406150 0.506210 0.627840 -0.630287
O4    O     O_R   0.593770 0.493790 0.617880 -0.629884
O5    O     O_R   0.390680 0.353590 0.505810 -0.618641
O6    O     O_R   0.578310 0.341170 0.495860 -0.627037
O7    O     O_R   0.406230 0.506210 0.382120 -0.607682
O8    O     O_R   0.593850 0.493790 0.372160 -0.625899
Zn1   Zn    Zn3+2 0.374720 0.508290 0.506640 0.947622
Zn2   Zn    Zn3+2 0.625280 0.491710 0.493360 0.929097

loop_
_geom_bond_atom_site_label_1
_geom_bond_atom_site_label_2
_ccdc_geom_bond_type
C37   H18   S    
C45   H4    S    
C42   H24   S    
O3    Zn1   S    
C41   C42   S    
C4    O3    A    
C33   N4    T    
C7    C8    A    
C25   C28   S    
C22   O8    A    
C48   H41   S    
C12   H12   S    
C12   C23   S    
C25   H2    S    
O4    Zn2   S    
C13   C18   A    
C47   H29   S    
C32   H5    S    
C18   C19   A    
C19   C36   S    
C30   C31   S    
C52   N9    T    
C41   H27   S    
C6    C35   S    
C15   C17   A    
C24   H45   S    
O6    Zn2   S    
C23   C26   S    
O5    Zn1   S    
C24   C29   S    
C13   C40   S    
C35   N5    T    
C46   C47   S    
C14   N2    A    
C44   C46   S    
C8    C9    A    
C10   C56   A    
C30   H11   S    
C26   C48   S    
C37   H19   S    
C13   C14   A    
C2    C6    A    
C42   H25   S    
C1    O1    A    
C25   C44   S    
O8    Zn2   S    
C23   C53   S    
C46   H32   S    
O7    Zn1   S    
C22   O7    A    
C38   H16   S    
C28   C45   S    
C47   H30   S    
C11   C33   S    
C15   C41   S    
C3    C8    A    
C9    C56   A    
C28   C54   S    
C50   H38   S    
C40   N7    T    
N1    Zn1   S    
C25   C26   S    
C17   C21   A    
C43   H22   S    
C7    C11   A    
C16   C56   S    
C37   C38   S    
C16   O6    A    
C34   H23   S    
C19   N1    A    
C31   C32   S    
C5    H44   S    
C23   C34   S    
C17   C18   A    
C39   H13   S    
C34   C45   S    
C47   H28   S    
C49   H39   S    
C30   H10   S    
C44   H35   S    
C9    C30   S    
C12   H1    S    
C50   H36   S    
C48   C49   S    
C22   C27   S    
C4    C55   S    
C29   N3    T    
C2    C5    A    
C42   C43   S    
C21   H46   S    
C46   H31   S    
C43   H20   S    
C31   H9    S    
C54   C55   T    
C45   H3    S    
C51   N8    T    
C31   H8    S    
C4    O4    A    
C24   C28   S    
C32   H7    S    
C3    C5    A    
C27   C53   T    
C50   H37   S    
C6    C7    A    
C20   N1    A    
C43   H21   S    
C48   H42   S    
C12   C24   S    
C34   C52   S    
C15   N2    A    
C32   H6    S    
C26   C51   S    
C20   C37   S    
C14   H47   S    
C38   C39   S    
C41   H26   S    
C1    C2    S    
C39   H14   S    
N2    Zn2   S    
C49   H40   S    
C10   C11   A    
O2    Zn2   S    
C3    H43   S    
O1    Zn1   S    
C20   C21   A    
C10   H34   S    
C49   C50   S    
C1    O2    A    
C36   N6    T    
C39   H15   S    
C16   O5    A    
C44   H33   S    
C38   H17   S    
