data_mof_unit_46368.cif
_audit_creation_date              2012-12-10T20:42:43-0500
_audit_creation_method            fapswitch 2.2
_symmetry_space_group_name_H-M    P1
_symmetry_Int_Tables_number       1
_space_group_crystal_system       triclinic
_cell_length_a                    8.906004
_cell_length_b                    10.746404
_cell_length_c                    9.905075
_cell_angle_alpha                 89.632583
_cell_angle_beta                  90.527094
_cell_angle_gamma                 90.530509
_cell_volume                      947.890406478

loop_
_atom_site_label
_atom_site_type_symbol
_atom_type_description
_atom_site_fract_x
_atom_site_fract_y
_atom_site_fract_z
_atom_type_partial_charge
C1    C     C_R   0.514099 0.261167 0.499560 0.942891
C2    C     C_R   0.368524 0.492033 0.927111 0.212799
C3    C     C_3   0.257312 0.389582 0.914958 0.153455
C4    C     C_R   0.218855 0.500404 0.499811 0.934888
C5    C     C_3   0.258259 0.382700 0.068741 -0.055326
C6    C     C_R   0.507814 0.739658 0.498895 0.928355
C7    C     C_R   0.781171 0.500476 0.500555 0.925357
C8    C     C_1   0.065433 0.501056 0.500533 -0.106860
C9    C     C_1   0.934561 0.501029 0.501462 -0.117116
C10   C     C_R   0.550133 0.061312 0.612915 0.056517
C11   C     C_R   0.541521 0.130538 0.495130 -0.209766
C12   C     C_R   0.541897 0.936564 0.369196 0.410254
C13   C     C_R   0.558218 0.066977 0.370797 0.051180
C14   C     C_R   0.532377 0.870958 0.493926 -0.161839
C15   C     C_R   0.551560 0.936980 0.612055 -0.088693
C16   C     C_3   0.560590 0.924837 0.761923 -0.059032
C17   C     C_3   0.560538 0.069143 0.762636 0.503474
C18   C     C_R   0.367826 0.490239 0.069609 0.130351
C19   C     C_R   0.628523 0.520010 0.072663 -0.024889
C20   C     C_R   0.628885 0.518592 0.929266 -0.074062
H1    H     H_    0.302152 0.307153 0.863266 0.172325
H2    H     H_    0.309769 0.295751 0.108255 0.134612
H3    H     H_    0.456636 0.882028 0.803794 0.175771
H4    H     H_    0.732438 0.535874 0.126874 0.194281
H5    H     H_    0.733791 0.531393 0.876743 0.202098
H6    H     H_    0.497831 0.926897 0.176720 0.351415
H7    H     H_    0.439720 0.105985 0.916176 0.338540
H8    H     H_    0.060961 0.358540 0.838353 0.367947
I1    I     I_    0.642017 0.155787 0.191302 -0.295504
I2    I     I_    0.044584 0.422226 0.156137 -0.265664
I3    I     I_    0.763434 0.833608 0.825088 -0.261649
I4    I     I_    0.759404 0.172705 0.820169 -0.275650
N1    N     N_R   0.499010 0.499140 0.142800 -0.123013
N2    N     N_R   0.499010 0.499180 0.857150 -0.144507
O1    O     O_R   0.500020 0.316790 0.614690 -0.588081
O2    O     O_3   0.428642 0.115871 0.817009 -0.781094
O3    O     O_3   0.122906 0.433474 0.858315 -0.689199
O4    O     O_R   0.500000 0.316760 0.385350 -0.603921
O5    O     O_R   0.285350 0.500020 0.614650 -0.583114
O6    O     O_R   0.285340 0.499980 0.385310 -0.603322
O7    O     O_R   0.500000 0.683240 0.614650 -0.618696
O8    O     O_R   0.499980 0.683210 0.385310 -0.550932
O9    O     O_R   0.714660 0.500020 0.614690 -0.616854
O10   O     O_R   0.714650 0.499980 0.385350 -0.613327
O11   O     O_3   0.539466 0.872502 0.248589 -0.708399
Zn1   Zn    Zn3+2 0.500010 0.500020 0.653130 1.009678
Zn2   Zn    Zn3+2 0.499990 0.499980 0.346870 1.024320

loop_
_geom_bond_atom_site_label_1
_geom_bond_atom_site_label_2
_ccdc_geom_bond_type
O6    Zn2   S    
O7    Zn1   S    
O10   Zn2   S    
C20   H5    S    
N2    Zn1   S    
C17   O2    S    
C7    O9    A    
H7    O2    S    
C2    C18   A    
C19   C20   A    
C1    C11   S    
C4    O5    A    
C4    C8    S    
C20   N2    A    
C2    N2    A    
C2    C3    S    
C7    O10   A    
C16   I3    S    
C11   C13   A    
C3    O3    S    
O4    Zn2   S    
H8    O3    S    
O5    Zn1   S    
C1    O4    A    
C13   I1    S    
O9    Zn1   S    
C12   C14   A    
C19   H4    S    
C16   H3    S    
C12   O11   S    
O8    Zn2   S    
C19   N1    A    
N1    Zn2   S    
C18   N1    A    
C3    H1    S    
C6    C14   S    
C10   C11   A    
C10   C17   S    
C15   C16   S    
C12   C13   A    
C1    O1    A    
C5    I2    S    
C6    O8    A    
C7    C9    S    
C17   I4    S    
C14   C15   A    
C16   C17   S    
C5    C18   S    
H6    O11   S    
C10   C15   A    
O1    Zn1   S    
C5    H2    S    
C4    O6    A    
C8    C9    T    
C3    C5    S    
C6    O7    A    
