data_mof_unit_60382.cif
_audit_creation_date              2012-10-26T18:34:57-0400
_audit_creation_method            fapswitch 2.2
_symmetry_space_group_name_H-M    P1
_symmetry_Int_Tables_number       1
_space_group_crystal_system       monoclinic
_cell_length_a                    13.146516
_cell_length_b                    14.433219
_cell_length_c                    13.971106
_cell_angle_alpha                 90.0
_cell_angle_beta                  85.038151
_cell_angle_gamma                 90.0
_cell_volume                      2641.03460858

loop_
_atom_site_label
_atom_site_type_symbol
_atom_type_description
_atom_site_fract_x
_atom_site_fract_y
_atom_site_fract_z
_atom_type_partial_charge
C1    C     C_R   0.500000 0.671300 0.500000 0.553079
C2    C     C_2   0.457907 0.500000 0.976675 -0.116400
C3    C     C_1   0.466219 0.500000 0.873865 -0.045406
C4    C     C_1   0.533781 0.500000 0.126135 -0.045406
C5    C     C_1   0.500000 0.772881 0.500000 -0.041253
C6    C     C_1   0.500000 0.227119 0.500000 -0.041253
C7    C     C_1   0.500000 0.857692 0.500000 -0.036546
C8    C     C_1   0.500000 0.142308 0.500000 -0.036546
C9    C     C_1   0.500000 0.957596 0.500000 0.005167
C10   C     C_1   0.500000 0.042404 0.500000 0.005167
C11   C     C_1   0.826370 0.500000 0.499986 0.127100
C12   C     C_R   0.500000 0.328700 0.500000 0.553078
C13   C     C_1   0.173630 0.500000 0.500014 0.127100
C14   C     C_1   0.949320 0.500000 0.499996 -0.042112
C15   C     C_1   0.050680 0.500000 0.500004 -0.042112
C16   C     C_R   0.484491 0.500000 0.685352 0.560124
C17   C     C_R   0.515509 0.500000 0.314648 0.560124
C18   C     C_1   0.525448 0.500000 0.212322 -0.018870
C19   C     C_1   0.474552 0.500000 0.787678 -0.018870
C20   C     C_2   0.542093 0.500000 0.023325 -0.116400
Cu1   Cu    Cu3+1 0.407320 0.500000 0.500010 0.988293
Cu2   Cu    Cu3+1 0.592680 0.500000 0.499990 0.988293
H1    H     H_    0.382538 0.500001 0.015352 0.139444
H2    H     H_    0.617462 0.499999 0.984648 0.139444
N1    N     N_1   0.731930 0.500000 0.499980 -0.164393
N2    N     N_1   0.268070 0.500000 0.500020 -0.164393
O1    O     O_R   0.421720 0.623950 0.500010 -0.471940
O2    O     O_R   0.578280 0.376050 0.499990 -0.471940
O3    O     O_R   0.578280 0.623950 0.499990 -0.471940
O4    O     O_R   0.421720 0.376050 0.500010 -0.471940
O5    O     O_R   0.410670 0.500000 0.637850 -0.482020
O6    O     O_R   0.589330 0.500000 0.362150 -0.482020
O7    O     O_R   0.567200 0.500000 0.637840 -0.482329
O8    O     O_R   0.432800 0.500000 0.362160 -0.482328

loop_
_geom_bond_atom_site_label_1
_geom_bond_atom_site_label_2
_ccdc_geom_bond_type
Cu1   N2    S    
C3    C19   T    
Cu2   O3    S    
C16   O7    A    
C9    C10   T    
C4    C18   T    
C1    O3    A    
C2    C3    S    
Cu1   O1    S    
Cu2   O2    S    
Cu1   Cu2   S    
C16   O5    A    
Cu1   O5    S    
Cu2   O6    S    
C12   O2    A    
C16   C19   S    
C1    C5    S    
C17   C18   S    
C5    C7    T    
C13   C15   S    
C6    C12   S    
C11   C14   S    
C13   N2    T    
C17   O8    A    
C11   N1    T    
C2    C20   D    
C4    C20   S    
C7    C9    S    
C8    C10   S    
Cu1   O4    S    
C2    H1    S    
C1    O1    A    
C17   O6    A    
C14   C15   T    
C6    C8    T    
Cu1   O8    S    
C12   O4    A    
C20   H2    S    
Cu2   N1    S    
Cu2   O7    S    
