data_mof_unit_48002.cif
_audit_creation_date              2012-10-26T20:19:34-0400
_audit_creation_method            fapswitch 2.2
_symmetry_space_group_name_H-M    P1
_symmetry_Int_Tables_number       1
_space_group_crystal_system       triclinic
_cell_length_a                    10.741885
_cell_length_b                    10.84844
_cell_length_c                    9.615501
_cell_angle_alpha                 89.244065
_cell_angle_beta                  89.020173
_cell_angle_gamma                 93.864588
_cell_volume                      1117.69326291

loop_
_atom_site_label
_atom_site_type_symbol
_atom_type_description
_atom_site_fract_x
_atom_site_fract_y
_atom_site_fract_z
_atom_type_partial_charge
C1    C     C_R   0.507869 0.262804 0.501664 0.568294
C2    C     C_R   0.504740 0.059851 0.635018 0.026280
C3    C     C_R   0.514243 0.128212 0.507170 -0.012911
C4    C     C_R   0.259908 0.501670 0.500304 0.566256
C5    C     C_R   0.513704 0.065411 0.380734 -0.161199
C6    C     C_R   0.502537 0.937878 0.379139 -0.164267
C7    C     C_R   0.480484 0.870395 0.503027 -0.010003
C8    C     C_R   0.667551 0.664940 0.138752 -0.088732
C9    C     C_R   0.749575 0.746400 0.064274 -0.172719
C10   C     C_R   0.749808 0.746829 0.920793 -0.163674
C11   C     C_R   0.668206 0.665646 0.850844 -0.084492
C12   C     C_3   0.877922 0.505481 0.496983 0.048982
C13   C     C_R   0.583357 0.580602 0.922428 0.110365
C14   C     C_R   0.582875 0.580711 0.071904 0.135261
C15   C     C_R   0.421701 0.423804 0.079653 0.020906
C16   C     C_R   0.490623 0.736670 0.500214 0.519297
C17   C     C_R   0.418066 0.423511 0.932751 0.346221
C18   C     C_R   0.740021 0.503875 0.498837 0.520606
C19   C     C_3   0.060367 0.376306 0.544757 -0.226833
C20   C     C_3   0.917156 0.376464 0.541637 -0.241334
C21   C     C_3   0.077178 0.604882 0.597519 -0.234597
C22   C     C_3   0.075884 0.533891 0.349947 -0.227701
C23   C     C_3   0.933451 0.603367 0.599353 -0.237922
C24   C     C_3   0.121589 0.504154 0.498894 0.035210
C25   C     C_3   0.933114 0.536919 0.349461 -0.229114
C26   C     C_R   0.530854 0.111555 0.767154 -0.059407
C27   C     C_R   0.494640 0.047581 0.889474 -0.087267
C28   C     C_R   0.432670 0.931431 0.882749 -0.108141
C29   C     C_R   0.418233 0.874382 0.754582 -0.097426
C30   C     C_R   0.466691 0.933234 0.630631 0.017455
Cu1   Cu    Cu3+1 0.499990 0.499990 0.640660 0.991559
Cu2   Cu    Cu3+1 0.500010 0.500010 0.359340 0.916949
H1    H     H_    0.087336 0.353134 0.651700 0.213045
H2    H     H_    0.511108 0.892204 0.280220 0.138295
H3    H     H_    0.356304 0.365440 0.141936 0.176789
H4    H     H_    0.092594 0.303084 0.475376 0.120063
H5    H     H_    0.673940 0.671987 0.248495 0.180646
H6    H     H_    0.813233 0.809882 0.118577 0.117415
H7    H     H_    0.813583 0.810757 0.862894 0.118836
H8    H     H_    0.675346 0.674259 0.740831 0.180882
H9    H     H_    0.879941 0.305491 0.467778 0.115131
H10   H     H_    0.877362 0.350686 0.646552 0.135628
H11   H     H_    0.109827 0.589584 0.704956 0.180791
H12   H     H_    0.907430 0.630267 0.315728 0.112678
H13   H     H_    0.898242 0.581824 0.707039 0.145154
H14   H     H_    0.119114 0.624765 0.312585 0.130718
H15   H     H_    0.104328 0.462622 0.275637 0.158966
H16   H     H_    0.894673 0.469329 0.272494 0.149597
H17   H     H_    0.236738 0.193966 0.722496 0.344298
H18   H     H_    0.117561 0.697465 0.562249 0.101747
H19   H     H_    0.903982 0.696599 0.570493 0.098253
H20   H     H_    0.523704 0.114835 0.282102 0.139869
H21   H     H_    0.583129 0.199044 0.779168 0.139599
H22   H     H_    0.512394 0.089417 0.989440 0.115685
H23   H     H_    0.398839 0.883975 0.977152 0.119809
H24   H     H_    0.366904 0.785230 0.754085 0.146860
N1    N     N_R   0.501200 0.501210 0.147910 -0.290198
N2    N     N_R   0.501250 0.501290 0.852040 -0.270746
O1    O     O_R   0.499990 0.319640 0.618810 -0.448481
O2    O     O_2   0.178179 0.420835 0.874219 -0.334004
O3    O     O_3   0.291565 0.271083 0.716291 -0.507498
O4    O     O_R   0.500000 0.319660 0.381240 -0.509316
O5    O     O_R   0.317680 0.499970 0.618790 -0.419164
O6    O     O_R   0.317700 0.499990 0.381210 -0.516526
O7    O     O_R   0.500000 0.680340 0.618760 -0.542010
O8    O     O_R   0.500010 0.680360 0.381190 -0.526261
O9    O     O_R   0.682300 0.500010 0.618790 -0.538892
O10   O     O_R   0.682320 0.500030 0.381210 -0.527454
O11   O     O_2   0.249545 0.232939 0.976071 -0.353739
S1    S     S_3+6 0.282979 0.336011 0.872968 -0.012370

loop_
_geom_bond_atom_site_label_1
_geom_bond_atom_site_label_2
_ccdc_geom_bond_type
O3    S1    S    
C8    C9    A    
C20   H10   S    
C5    H20   S    
C6    C7    A    
C23   H13   S    
C29   H24   S    
C11   C13   A    
C9    C10   A    
C4    O6    A    
C23   H19   S    
Cu1   Cu2   S    
C12   C23   S    
O2    S1    D    
C12   C25   S    
Cu2   O10   S    
C1    O4    A    
C12   C20   S    
C19   C20   S    
C21   C23   S    
C2    C3    A    
C27   H22   S    
Cu2   O4    S    
C17   S1    S    
C2    C26   A    
C7    C30   A    
C21   H11   S    
C13   C14   A    
C17   N2    A    
Cu1   O9    S    
C15   N1    A    
C4    O5    A    
Cu2   O6    S    
C26   C27   A    
C29   C30   A    
Cu2   N1    S    
C5    C6    A    
Cu1   N2    S    
C15   H3    S    
C28   C29   A    
C22   H14   S    
C28   H23   S    
C20   H9    S    
C21   H18   S    
C19   H4    S    
C1    O1    A    
C19   H1    S    
O11   S1    D    
C4    C24   S    
C22   C24   S    
C16   O8    A    
C8    H5    S    
C18   O10   A    
Cu1   O1    S    
C11   H8    S    
C25   H16   S    
C26   H21   S    
Cu1   O5    S    
H17   O3    S    
C25   H12   S    
Cu2   O8    S    
C10   C11   A    
C21   C24   S    
C12   C18   S    
C27   C28   A    
C15   C17   A    
C14   N1    A    
Cu1   O7    S    
C7    C16   S    
C2    C30   A    
C9    H6    S    
C16   O7    A    
C8    C14   A    
C3    C5    A    
C18   O9    A    
C13   N2    A    
C19   C24   S    
C22   H15   S    
C6    H2    S    
C10   H7    S    
C1    C3    S    
C22   C25   S    
