data_mof_unit_31557.cif
_audit_creation_date              2012-12-10T17:51:31-0500
_audit_creation_method            fapswitch 2.2
_symmetry_space_group_name_H-M    P1
_symmetry_Int_Tables_number       1
_space_group_crystal_system       triclinic
_cell_length_a                    9.926155
_cell_length_b                    10.690337
_cell_length_c                    16.624349
_cell_angle_alpha                 92.120914
_cell_angle_beta                  83.447881
_cell_angle_gamma                 92.035853
_cell_volume                      1750.48178697

loop_
_atom_site_label
_atom_site_type_symbol
_atom_type_description
_atom_site_fract_x
_atom_site_fract_y
_atom_site_fract_z
_atom_type_partial_charge
C1    C     C_R   0.503569 0.738023 0.489873 0.906308
C2    C     C_R   0.534321 0.447391 0.262794 -0.029786
C3    C     C_R   0.293400 0.867527 0.409645 0.503138
C4    C     C_R   0.479342 0.498338 0.653485 0.840480
C5    C     C_R   0.166072 0.919096 0.410263 -0.187649
C6    C     C_R   0.137939 0.031689 0.451951 -0.265807
C7    C     C_R   0.240347 0.098523 0.487213 -0.197828
C8    C     C_R   0.373794 0.052944 0.481569 0.051774
C9    C     C_R   0.392979 0.928739 0.454042 -0.032394
C10   C     C_R   0.508771 0.869555 0.474884 -0.118333
C11   C     C_R   0.619603 0.939086 0.498310 -0.243124
C12   C     C_R   0.345308 0.420829 0.777469 -0.206630
C13   C     C_R   0.611461 0.065806 0.509695 -0.214784
C14   C     C_R   0.489736 0.124170 0.502261 -0.095145
C15   C     C_R   0.849341 0.693771 0.580444 -0.166536
C16   C     C_R   0.496306 0.259245 0.502914 0.872667
C17   C     C_R   0.914620 0.805985 0.599451 -0.281627
C18   C     C_R   0.054534 0.811477 0.595248 -0.162571
C19   C     C_R   0.124131 0.699183 0.585494 0.249595
C20   C     C_R   0.066702 0.596418 0.541422 0.142413
C21   C     C_R   0.922618 0.595602 0.540117 0.133225
C22   C     C_R   0.932800 0.408983 0.460655 -0.121188
C23   C     C_R   0.443036 0.322503 0.156627 -0.159943
C24   C     C_R   0.075800 0.409393 0.460288 -0.140903
C25   C     C_R   0.520360 0.491487 0.346840 0.860629
C26   C     C_R   0.463886 0.479095 0.740106 -0.026326
C27   C     C_R   0.574483 0.504988 0.783868 -0.212647
C28   C     C_R   0.569257 0.467817 0.863026 -0.150921
C29   C     C_R   0.453670 0.403030 0.899053 0.204402
C30   C     C_R   0.340096 0.383588 0.857031 -0.179957
C31   C     C_3   0.407644 0.787667 0.292432 0.056839
C32   C     C_3   0.353167 0.720780 0.219364 -0.321093
C33   C     C_3   0.451565 0.735018 0.142507 -0.951933
C34   C     C_R   0.430523 0.370216 0.235514 -0.220218
C35   C     C_3   0.196028 0.678080 0.658420 -0.826404
C36   C     C_R   0.654703 0.469649 0.212069 -0.214997
C37   C     C_R   0.666398 0.423224 0.132367 -0.173401
C38   C     C_R   0.558280 0.353891 0.103681 0.210963
C39   C     C_2   0.446035 0.365211 0.982910 -0.238648
C40   C     C_2   0.557241 0.336707 0.016338 -0.247697
H1    H     H_    0.666088 0.551620 0.756332 0.148935
H2    H     H_    0.856677 0.885112 0.624378 0.157520
H3    H     H_    0.339406 0.346879 0.275137 0.152615
H4    H     H_    0.101833 0.894535 0.620722 0.157471
H5    H     H_    0.132883 0.335933 0.427187 0.142258
H6    H     H_    0.737273 0.525991 0.233234 0.147336
H7    H     H_    0.653955 0.327323 0.979169 0.147341
H8    H     H_    0.248996 0.336852 0.885107 0.125365
H9    H     H_    0.360237 0.265894 0.135986 0.127431
H10   H     H_    0.259206 0.399067 0.744302 0.145993
H11   H     H_    0.349181 0.375860 0.019745 0.149938
H12   H     H_    0.755985 0.447944 0.091852 0.121740
H13   H     H_    0.655410 0.490716 0.895884 0.126265
H14   H     H_    0.509712 0.752931 0.299493 0.140061
H15   H     H_    0.419411 0.889825 0.279860 0.120951
H16   H     H_    0.335273 0.619756 0.231240 0.242818
H17   H     H_    0.254437 0.760600 0.209977 0.210657
H18   H     H_    0.465858 0.835341 0.127467 0.260830
H19   H     H_    0.410128 0.682955 0.091260 0.269293
H20   H     H_    0.551354 0.696503 0.150610 0.270159
H21   H     H_    0.304685 0.706374 0.647044 0.248753
H22   H     H_    0.155508 0.736529 0.711997 0.199794
H23   H     H_    0.711269 0.895377 0.510663 0.178119
H24   H     H_    0.175069 0.581189 0.678946 0.237855
H25   H     H_    0.088388 0.870639 0.379194 0.155299
H26   H     H_    0.037045 0.068437 0.455935 0.159770
H27   H     H_    0.209837 0.181624 0.522135 0.181770
H28   H     H_    0.700575 0.117640 0.526277 0.166670
H29   H     H_    0.882769 0.334627 0.428247 0.145404
H30   H     H_    0.743288 0.685509 0.599597 0.206362
N1    N     N_R   0.857140 0.501200 0.500750 -0.111273
N2    N     N_R   0.142740 0.501280 0.500770 -0.105103
O1    O     O_R   0.385310 0.683220 0.500000 -0.575342
O2    O     O_R   0.614640 0.683250 0.500010 -0.651072
O3    O     O_R   0.371780 0.500010 0.615800 -0.625850
O4    O     O_R   0.601110 0.500030 0.615800 -0.628488
O5    O     O_R   0.385360 0.316750 0.499990 -0.638321
O6    O     O_R   0.614690 0.316780 0.500000 -0.618428
O7    O     O_R   0.398890 0.499970 0.384200 -0.578360
O8    O     O_R   0.628220 0.499990 0.384200 -0.616914
O9    O     O_3   0.319334 0.759543 0.362977 -0.629520
Zn1   Zn    Zn3+2 0.346870 0.499980 0.499990 0.958342
Zn2   Zn    Zn3+2 0.653130 0.500020 0.500010 0.931616

loop_
_geom_bond_atom_site_label_1
_geom_bond_atom_site_label_2
_ccdc_geom_bond_type
C40   H7    S    
C39   H11   S    
C33   H18   S    
C25   O8    A    
O1    Zn1   S    
C19   C20   A    
O2    Zn2   S    
C7    C8    A    
C26   C27   A    
C29   C30   A    
C21   N1    A    
C24   H5    S    
C30   H8    S    
C36   C37   A    
C18   C19   A    
C11   H23   S    
C5    C6    A    
C23   H9    S    
C16   O5    A    
C17   H2    S    
C4    O3    A    
O6    Zn2   S    
C8    C9    A    
C3    O9    S    
C36   H6    S    
C35   H24   S    
C2    C25   S    
C9    C10   A    
C22   H29   S    
C16   O6    A    
C2    C34   A    
C33   H19   S    
C13   C14   A    
C32   H17   S    
O8    Zn2   S    
O4    Zn2   S    
N1    Zn2   S    
C34   H3    S    
C5    H25   S    
C39   C40   D    
C37   H12   S    
C12   C26   A    
C37   C38   A    
C3    C9    A    
C18   H4    S    
C27   H1    S    
C12   H10   S    
C31   C32   S    
C15   C21   A    
C23   C34   A    
C29   C39   S    
C17   C18   A    
C35   H21   S    
C33   H20   S    
C14   C16   S    
C1    O2    A    
C22   N1    A    
C24   N2    A    
C2    C36   A    
C15   C17   A    
C15   H30   S    
C28   C29   A    
C8    C14   A    
C12   C30   A    
C25   O7    A    
C1    C10   S    
C3    C5    A    
O7    Zn1   S    
C4    C26   S    
C28   H13   S    
O3    Zn1   S    
C6    C7    A    
C23   C38   A    
C31   O9    S    
C1    O1    A    
C32   C33   S    
C19   C35   S    
C38   C40   S    
C11   C13   A    
O5    Zn1   S    
C35   H22   S    
C22   C24   A    
C31   H14   S    
C4    O4    A    
C10   C11   A    
C7    H27   S    
C6    H26   S    
C20   C21   A    
C27   C28   A    
C20   N2    A    
C31   H15   S    
C32   H16   S    
N2    Zn1   S    
C13   H28   S    
