data_mof_unit_48294.cif
_audit_creation_date              2013-03-05T15:50:03-0500
_audit_creation_method            fapswitch 2.2
_symmetry_space_group_name_H-M    P1
_symmetry_Int_Tables_number       1
_space_group_crystal_system       triclinic
_cell_length_a                    8.30712
_cell_length_b                    12.708058
_cell_length_c                    17.451336
_cell_angle_alpha                 94.545584
_cell_angle_beta                  96.484373
_cell_angle_gamma                 97.45036
_cell_volume                      1806.79001278

loop_
_atom_site_label
_atom_site_type_symbol
_atom_site_description
_atom_site_fract_x
_atom_site_fract_y
_atom_site_fract_z
_atom_type_partial_charge
P1    P     P_3+3 0.990420 0.746550 0.559720 0.484980
O1    O     O_2   0.163080 0.763400 0.536930 -0.371491
O2    O     O_3   0.893330 0.628980 0.538660 -0.376607
O3    O     O_3   0.379830 0.697590 0.399610 -0.341068
O4    O     O_2   0.291378 0.883783 0.447320 -0.371887
O5    O     O_3   0.029347 0.771304 0.660694 -0.570013
O6    O     O_3   0.373484 0.871219 0.308685 -0.487151
H1    H     H_    0.381829 0.721019 0.255095 0.077309
C1    C     C_3   0.423581 0.840800 0.177092 -0.142644
H2    H     H_    0.291612 0.834169 0.155354 0.179624
P2    P     P_3+3 0.330880 0.415450 0.326700 0.521251
P3    P     P_3+3 0.913462 0.634461 0.259237 0.498432
O7    O     O_2   0.161570 0.447940 0.314920 -0.351055
O8    O     O_3   0.953630 0.643360 0.361440 -0.295346
O9    O     O_2   0.017600 0.552921 0.227520 -0.377986
O10   O     O_3   0.292311 0.276699 0.308105 -0.540451
O11   O     O_3   0.002269 0.752828 0.226785 -0.493085
C2    C     C_3   0.881059 0.815175 0.203485 0.386337
H3    H     H_    0.852172 0.862871 0.254941 0.146406
H4    H     H_    0.767260 0.767586 0.173387 0.022355
C3    C     C_3   0.945495 0.889232 0.146043 -0.770660
H5    H     H_    0.856774 0.944848 0.131171 0.261236
H6    H     H_    0.064450 0.936125 0.171000 0.297249
C4    C     C_3   0.752978 0.319005 0.305270 0.443314
H7    H     H_    0.649281 0.351743 0.328403 0.075744
H8    H     H_    0.863547 0.379725 0.315760 0.132057
C5    C     C_3   0.711243 0.290621 0.218374 -0.869182
H9    H     H_    0.590618 0.239549 0.205742 0.284006
H10   H     H_    0.706105 0.363681 0.188323 0.205265
H11   H     H_    0.806442 0.247304 0.195691 0.293159
Ba1   Ba    Ba6+2 0.158660 0.552610 0.463110 1.627085
C6    C     C_3   0.057433 0.677584 0.693754 0.421358
H12   H     H_    0.158752 0.643831 0.669190 0.094341
H13   H     H_    0.945812 0.617781 0.683684 0.127115
C7    C     C_3   0.102462 0.704469 0.780678 -0.980499
H14   H     H_    0.217695 0.761327 0.792622 0.276863
H15   H     H_    0.119439 0.631407 0.809379 0.218923
H16   H     H_    0.003104 0.741229 0.805396 0.264834
C8    C     C_3   0.255331 0.231569 0.375667 0.243961
H17   H     H_    0.145017 0.260435 0.394971 0.093390
H18   H     H_    0.358574 0.251986 0.422705 0.096848
C9    C     C_3   0.225196 0.110944 0.358632 0.038365
H19   H     H_    0.322983 0.083490 0.326821 0.194181
H20   H     H_    0.226198 0.072583 0.413319 0.105316
P4    P     P_3+3 0.819870 0.253440 0.440220 0.497201
O12   O     O_2   0.647210 0.236530 0.463040 -0.386475
O13   O     O_3   0.916960 0.371010 0.461280 -0.410012
O14   O     O_3   0.430470 0.302400 0.600330 -0.356611
O15   O     O_3   0.781859 0.226316 0.339471 -0.509300
P5    P     P_3+3 0.889180 0.360797 0.740145 0.519269
O16   O     O_3   0.388290 0.554800 0.590630 -0.379958
O17   O     O_3   0.856660 0.356630 0.638500 -0.350266
O18   O     O_2   0.786348 0.442828 0.772378 -0.351757
O19   O     O_3   0.795800 0.241579 0.768977 -0.411858
Ba2   Ba    Ba6+2 0.651510 0.447380 0.536830 1.621986
P6    P     P_3+3 0.420447 0.837189 0.402889 0.513732
C10   C     C_3   0.444419 0.804353 0.258191 0.384756
H21   H     H_    0.577198 0.806558 0.277293 -0.011702
H22   H     H_    0.481500 0.789186 0.137172 0.088451
O20   O     O_3   0.422000 0.445190 0.409310 -0.356093
C11   C     C_3   0.567109 0.774233 0.664811 0.220024
H23   H     H_    0.697684 0.761813 0.668644 0.127736
H24   H     H_    0.505839 0.752726 0.604575 0.106189
C12   C     C_3   0.555621 0.890661 0.687212 -0.004277
H25   H     H_    0.575772 0.906592 0.751179 0.145601
H26   H     H_    0.432265 0.908820 0.665814 0.151706
P7    P     P_3+3 0.471024 0.579431 0.688111 0.448732
O21   O     O_2   0.648720 0.552000 0.685060 -0.357280
O22   O     O_3   0.489003 0.715059 0.717646 -0.614964
H27   H     H_    0.963436 0.841727 0.092223 0.211658
C13   C     C_3   0.912929 0.173752 0.785932 0.423596
H28   H     H_    0.941976 0.134214 0.731155 0.119386
H29   H     H_    0.027662 0.215684 0.819403 0.022455
C14   C     C_3   0.842585 0.090644 0.835899 -0.793358
H30   H     H_    0.912784 0.022075 0.835672 0.208479
H31   H     H_    0.848032 0.126703 0.896394 0.241941
H32   H     H_    0.712801 0.061685 0.813947 0.289956
P8    P     P_3+3 0.386730 0.163807 0.599986 0.511107
C15   C     C_3   0.342344 0.153216 0.744743 1.046628
H33   H     H_    0.242202 0.196179 0.720770 -0.127171
O23   O     O_2   0.501775 0.115199 0.547868 -0.336695
O24   O     O_3   0.454138 0.130931 0.692623 -0.479177
H34   H     H_    0.194184 0.065946 0.820099 0.250695
C16   C     C_3   0.267932 0.049235 0.772648 -1.090656
H35   H     H_    0.365755 0.004084 0.795333 0.271944
H36   H     H_    0.187957 0.999452 0.724426 0.244916
C17   C     C_R   0.074482 0.183946 0.531588 -0.484230
C18   C     C_R   0.721734 0.824059 0.486525 -0.385473
C19   C     C_R   0.699960 0.997817 0.443122 -0.123655
C20   C     C_R   0.630780 0.892039 0.447565 0.205520
C21   C     C_R   0.885439 0.853715 0.515644 0.294254
C22   C     C_R   0.953592 0.963946 0.518080 0.020352
C23   C     C_R   0.857790 0.037766 0.482321 0.024045
C24   C     C_R   0.921665 0.149191 0.489244 0.320770
C25   C     C_R   0.171929 0.112381 0.561901 0.110462
C26   C     C_R   0.111089 0.003606 0.556944 -0.179783
H37   H     H_    0.626873 0.048372 0.411653 0.168361
H38   H     H_    0.188258 0.951419 0.583727 0.166906
H39   H     H_    0.123436 0.267711 0.536598 0.156782
H40   H     H_    0.661911 0.747293 0.497087 0.174850
H41   H     H_    0.538727 0.554165 0.855286 0.139204
H42   H     H_    0.720918 0.585352 0.102611 0.165048
C27   C     C_R   0.591356 0.549992 0.278055 -0.058714
C28   C     C_R   0.442123 0.484703 0.254256 0.239500
C29   C     C_R   0.386252 0.464736 0.174657 -0.285106
C30   C     C_R   0.482965 0.505965 0.119719 0.081097
C31   C     C_R   0.640940 0.560328 0.144679 -0.343769
C32   C     C_R   0.696433 0.581404 0.224128 0.103220
C33   C     C_R   0.419419 0.509971 0.834161 -0.176542
C34   C     C_R   0.363859 0.499307 0.754509 0.328638
C35   C     C_R   0.103971 0.407577 0.778932 0.154875
C36   C     C_R   0.157407 0.419333 0.858907 -0.252637
C37   C     C_R   0.317334 0.468074 0.886681 0.118363
C38   C     C_1   0.374078 0.479721 0.969022 0.015509
C39   C     C_1   0.422866 0.490506 0.037728 0.024415
C40   C     C_R   0.209748 0.443985 0.727170 -0.444342
H43   H     H_    0.074239 0.392275 0.899103 0.147459
H44   H     H_    0.268998 0.416562 0.155682 0.174930
H45   H     H_    0.166199 0.438606 0.665938 0.145622
Cl1   Cl    Cl    0.031652 0.070961 0.302502 -0.615409
Cl2   Cl    Cl    0.706066 0.975555 0.648817 -0.675028
Br1   Br    Br    0.523650 0.987500 0.177482 -0.503413
Cl3   Cl    Cl    0.451525 0.235832 0.826090 -0.614244
Br2   Br    Br    0.651404 0.596652 0.384438 -0.450552

loop_
_geom_bond_atom_site_label_1
_geom_bond_atom_site_label_2
_geom_bond_distance
_ccdc_geom_bond_type
O14   Ba2   2.810699 S    
O5    C6    1.398700 S    
C23   C24   1.436927 A    
C5    H10   1.105109 S    
C2    C3    1.522227 S    
O4    P6    1.543070 D    
C35   C36   1.406084 A    
C4    C5    1.520547 S    
P1    Ba1   3.411287 S    
O8    Ba1   2.744113 S    
P2    C28   1.859071 S    
C38   C39   1.212627 T    
C8    H18   1.107358 S    
P4    O12   1.524682 D    
P5    C35   1.839464 S    
P5    O19   1.747697 S    
C14   H31   1.110735 S    
C7    H15   1.106589 S    
C4    H8    1.108333 S    
C2    H3    1.109704 S    
P1    O2    1.597304 S    
C15   C16   1.524305 S    
C30   C31   1.406149 A    
C27   Br2   1.893862 S    
H41   C33   1.083476 S    
C12   Cl2   1.768837 S    
C17   C24   1.394156 A    
C22   C26   1.414279 A    
P1    O1    1.524454 D    
O14   P8    1.750971 S    
C11   H24   1.111903 S    
C28   C29   1.406191 A    
O2    Ba2   2.851988 S    
O19   C13   1.403614 S    
C7    H14   1.110657 S    
C26   H38   1.077472 S    
C14   H32   1.107260 S    
C17   C25   1.390213 A    
O12   Ba2   2.873516 S    
P5    O17   1.759396 S    
C31   C32   1.404056 A    
P3    O9    1.542140 D    
C27   C32   1.400600 A    
C1    H2    1.109002 S    
C1    C10   1.522125 S    
O17   Ba2   2.744711 S    
C33   C37   1.406590 A    
P6    C20   1.853906 S    
P2    Ba1   3.392660 S    
P1    C21   1.878657 S    
Ba1   O13   2.851393 S    
Ba2   O20   2.757947 S    
O3    P6    1.757450 S    
C5    H11   1.110947 S    
C1    Br1   1.939435 S    
C9    H20   1.105235 S    
O6    P6    1.747419 S    
P4    C24   1.873201 S    
C36   C37   1.406114 A    
Ba2   O21   2.817115 S    
C8    C9    1.520618 S    
C17   H39   1.082170 S    
P4    O13   1.597302 S    
P5    O18   1.542517 D    
C14   H30   1.109563 S    
P7    O21   1.565758 D    
C6    C7    1.521291 S    
C7    H16   1.110854 S    
C4    H7    1.105877 S    
C8    H17   1.106859 S    
P3    C32   1.857464 S    
O16   Ba2   2.925893 S    
C15   Cl3   1.779389 S    
P1    O5    1.750906 S    
C19   H37   1.079225 S    
O1    Ba1   2.872870 S    
C1    H22   1.110041 S    
C6    H13   1.107927 S    
Ba1   O20   2.926736 S    
P3    O11   1.751920 S    
C11   C12   1.518042 S    
H1    C10   1.112007 S    
C15   O24   1.410004 S    
P2    O10   1.748243 S    
P8    O24   1.750697 S    
P7    C34   1.832184 S    
H34   C16   1.107518 S    
C18   C21   1.389350 A    
P4    O15   1.749320 S    
P8    C25   1.847619 S    
O11   C2    1.404441 S    
H42   C31   1.083450 S    
O16   P7    1.749297 S    
C16   H35   1.109311 S    
O2    Ba1   2.923472 S    
C18   H40   1.075209 S    
C18   C20   1.387735 A    
C3    H6    1.109153 S    
C29   H44   1.083315 S    
C9    H19   1.111056 S    
P2    O20   1.545039 S    
C34   C40   1.391519 A    
C21   C22   1.436693 A    
O13   Ba2   2.924317 S    
C37   C38   1.450575 S    
C11   O22   1.398257 S    
C4    O15   1.397719 S    
O7    Ba1   2.816928 S    
Ba1   O16   2.758543 S    
C13   C14   1.522596 S    
C29   C30   1.408409 A    
C3    H27   1.110806 S    
C40   H45   1.082640 S    
C30   C39   1.450469 S    
C35   C40   1.393639 A    
Ba1   Ba2   4.550655 S    
C6    H12   1.105501 S    
P3    O8    1.768928 S    
C13   H28   1.109906 S    
C33   C34   1.404489 A    
C12   H25   1.108311 S    
P2    O7    1.513163 D    
P8    O23   1.543555 D    
C9    Cl1   1.776575 S    
C10   H21   1.111759 S    
C36   H43   1.083390 S    
C22   C23   1.441204 A    
C2    H4    1.106584 S    
C19   C23   1.419316 A    
C11   H23   1.111596 S    
O3    Ba1   2.811362 S    
O10   C8    1.398839 S    
C15   H33   1.113792 S    
P4    Ba2   3.411844 S    
C13   H29   1.107591 S    
C27   C28   1.400023 A    
C16   H36   1.109106 S    
P7    O22   1.741743 S    
C19   C20   1.403392 A    
C3    H5    1.109523 S    
O6    C10   1.405078 S    
C25   C26   1.401328 A    
C12   H26   1.109652 S    
C5    H9    1.110270 S    
