data_mof_unit_43232.cif
_audit_creation_date              2012-12-11T15:50:45-0500
_audit_creation_method            fapswitch 2.2
_symmetry_space_group_name_H-M    P1
_symmetry_Int_Tables_number       1
_space_group_crystal_system       triclinic
_cell_length_a                    19.009718
_cell_length_b                    10.959965
_cell_length_c                    18.690436
_cell_angle_alpha                 90.123386
_cell_angle_beta                  90.632356
_cell_angle_gamma                 90.181658
_cell_volume                      3893.80860171

loop_
_atom_site_label
_atom_site_type_symbol
_atom_type_description
_atom_site_fract_x
_atom_site_fract_y
_atom_site_fract_z
_atom_type_partial_charge
C1    C     C_R   0.290382 0.996213 0.860708 0.563723
C2    C     C_R   0.709785 0.996646 0.139243 0.561633
C3    C     C_R   0.790382 0.496213 0.860708 0.563721
C4    C     C_R   0.209786 0.496646 0.139243 0.561632
C5    C     C_3   0.528422 0.728965 0.970526 -0.128741
C6    C     C_3   0.471929 0.728002 0.028851 -0.128688
C7    C     C_3   0.028422 0.228965 0.970526 -0.128741
C8    C     C_3   0.971929 0.228002 0.028851 -0.128687
C9    C     C_R   0.218837 0.511565 0.061906 0.006666
C10   C     C_R   0.781363 0.510711 0.938091 0.005794
C11   C     C_R   0.718837 0.011565 0.061906 0.006666
C12   C     C_R   0.281363 0.010711 0.938091 0.005793
C13   C     C_R   0.273474 0.456720 0.023670 0.017314
C14   C     C_R   0.726048 0.456607 0.975870 0.017758
C15   C     C_R   0.773474 0.956720 0.023670 0.017314
C16   C     C_R   0.226048 0.956607 0.975870 0.017759
C17   C     C_R   0.284916 0.486307 0.952341 0.019875
C18   C     C_R   0.714475 0.486256 0.047226 0.019345
C19   C     C_R   0.784916 0.986306 0.952341 0.019876
C20   C     C_R   0.214476 0.986256 0.047227 0.019346
C21   C     C_R   0.177794 0.601172 0.950523 -0.162053
C22   C     C_R   0.822519 0.599751 0.049889 -0.162014
C23   C     C_R   0.677794 0.101172 0.950523 -0.162054
C24   C     C_R   0.322519 0.099752 0.049889 -0.162014
C25   C     C_R   0.167713 0.575651 0.022576 -0.165315
C26   C     C_R   0.832791 0.574109 0.977814 -0.165934
C27   C     C_R   0.667713 0.075651 0.022576 -0.165315
C28   C     C_R   0.332791 0.074109 0.977813 -0.165935
C29   C     C_3   0.350289 0.451865 0.039714 -0.265523
C30   C     C_3   0.649262 0.453320 0.959371 -0.264582
C31   C     C_3   0.850289 0.951864 0.039714 -0.265524
C32   C     C_3   0.149262 0.953319 0.959371 -0.264582
C33   C     C_3   0.362741 0.483835 0.961587 -0.273919
C34   C     C_3   0.636683 0.485303 0.037513 -0.274544
C35   C     C_3   0.862741 0.983835 0.961587 -0.273919
C36   C     C_3   0.136683 0.985303 0.037513 -0.274545
C37   C     C_R   0.240661 0.568320 0.916439 0.019819
C38   C     C_R   0.759206 0.567659 0.083556 0.020368
C39   C     C_R   0.740661 0.068321 0.916439 0.019820
C40   C     C_R   0.259206 0.067660 0.083556 0.020368
C41   C     C_R   0.487780 0.822852 0.417992 0.002879
C42   C     C_R   0.449805 0.825109 0.563088 0.009415
C43   C     C_R   0.987792 0.322857 0.417997 0.002924
C44   C     C_R   0.949808 0.325101 0.563090 0.009413
C45   C     C_R   0.469377 0.821751 0.855881 0.546808
C46   C     C_R   0.530697 0.821407 0.144093 0.541849
C47   C     C_R   0.969377 0.321751 0.855881 0.546810
C48   C     C_R   0.030697 0.321407 0.144093 0.541851
C49   C     C_R   0.483845 0.713297 0.457393 0.034633
C50   C     C_R   0.471613 0.719718 0.529405 0.020919
C51   C     C_R   0.983816 0.213288 0.457381 0.034637
C52   C     C_R   0.971572 0.219692 0.529391 0.020980
C53   C     C_R   0.439473 0.929770 0.520860 -0.166600
C54   C     C_R   0.460588 0.930072 0.448684 -0.175290
C55   C     C_R   0.939525 0.429791 0.520876 -0.166646
C56   C     C_R   0.960641 0.430095 0.448703 -0.175258
C57   C     C_3   0.538667 0.614551 0.469507 -0.084276
C58   C     C_3   0.529818 0.635313 0.549630 -0.105995
C59   C     C_3   0.038592 0.114456 0.469485 -0.084308
C60   C     C_3   0.029712 0.135146 0.549611 -0.105982
C61   C     C_R   0.248403 0.604033 0.419015 0.023037
C62   C     C_R   0.754414 0.574835 0.574311 0.011560
C63   C     C_R   0.748398 0.104031 0.419017 0.023034
C64   C     C_R   0.254431 0.074808 0.574303 0.011552
C65   C     C_R   0.195984 0.662955 0.457864 0.020564
C66   C     C_R   0.782078 0.679095 0.543971 0.004403
C67   C     C_R   0.695981 0.162965 0.457865 0.020586
C68   C     C_R   0.282044 0.179124 0.543979 0.004349
C69   C     C_R   0.201015 0.670270 0.529963 0.023988
C70   C     C_R   0.782410 0.688217 0.471994 0.038832
C71   C     C_R   0.701007 0.170258 0.529967 0.024044
C72   C     C_R   0.282358 0.188288 0.472000 0.038873
C73   C     C_R   0.316434 0.581211 0.527468 -0.167713
C74   C     C_R   0.713029 0.505281 0.457693 -0.178587
C75   C     C_R   0.816424 0.081187 0.527471 -0.167713
C76   C     C_R   0.213067 0.005244 0.457681 -0.178592
C77   C     C_R   0.312387 0.576847 0.452839 -0.165536
C78   C     C_R   0.715552 0.491240 0.531423 -0.167003
C79   C     C_R   0.812378 0.076829 0.452843 -0.165542
C80   C     C_R   0.215616 0.991161 0.531405 -0.167078
C81   C     C_3   0.117393 0.645636 0.461312 -0.264421
C82   C     C_3   0.849980 0.747718 0.552285 -0.278422
C83   C     C_3   0.617387 0.145672 0.461307 -0.264441
C84   C     C_3   0.349952 0.247730 0.552292 -0.278441
C85   C     C_3   0.123862 0.659364 0.541570 -0.280262
C86   C     C_3   0.852103 0.751130 0.471144 -0.264125
C87   C     C_3   0.623852 0.159347 0.541567 -0.280278
C88   C     C_3   0.352063 0.251168 0.471155 -0.264109
C89   C     C_R   0.259709 0.634230 0.851014 0.539647
C90   C     C_R   0.740234 0.634000 0.148943 0.537639
C91   C     C_R   0.759709 0.134230 0.851014 0.539645
C92   C     C_R   0.240234 0.134000 0.148943 0.537638
C93   C     C_R   0.257188 0.617844 0.566606 0.017174
C94   C     C_R   0.750992 0.600587 0.427465 0.024042
C95   C     C_R   0.757180 0.117826 0.566610 0.017148
C96   C     C_R   0.250981 0.100618 0.427467 0.024087
C97   C     C_R   0.272626 0.042323 0.645245 0.550140
C98   C     C_R   0.728823 0.048741 0.352394 0.555700
C99   C     C_R   0.772621 0.542331 0.645248 0.550146
C100  C     C_R   0.228825 0.548742 0.352392 0.555700
C101  C     C_R   0.436966 0.819217 0.639807 0.563643
C102  C     C_R   0.528162 0.822388 0.352007 0.540747
C103  C     C_R   0.936972 0.319216 0.639808 0.563720
C104  C     C_R   0.028169 0.322387 0.352011 0.540757
C105  C     C_R   0.261459 0.641472 0.641801 0.540147
C106  C     C_R   0.740935 0.635329 0.355094 0.545674
C107  C     C_R   0.761457 0.141467 0.641803 0.540150
C108  C     C_R   0.240933 0.135336 0.355096 0.545684
C109  C     C_3   0.471556 0.928326 0.029808 -0.124485
C110  C     C_3   0.528204 0.929287 0.970857 -0.124297
C111  C     C_3   0.971556 0.428326 0.029808 -0.124486
C112  C     C_3   0.028204 0.429286 0.970857 -0.124298
C113  C     C_3   0.430307 0.827618 0.988937 -0.113561
C114  C     C_3   0.569735 0.828922 0.011083 -0.112579
C115  C     C_3   0.930307 0.327618 0.988937 -0.113561
C116  C     C_3   0.069735 0.328921 0.011083 -0.112579
C117  C     C_3   0.487731 0.828754 0.931510 0.055929
C118  C     C_3   0.512313 0.828127 0.068496 0.057843
C119  C     C_3   0.987731 0.328754 0.931510 0.055930
C120  C     C_3   0.012313 0.328127 0.068496 0.057843
Cr1   Cr    Cr6+3 0.229640 0.835880 0.747370 0.995968
Cr2   Cr    Cr6+3 0.770360 0.835880 0.252630 0.998072
Cr3   Cr    Cr6+3 0.729640 0.335880 0.747370 0.995988
Cr4   Cr    Cr6+3 0.270360 0.335880 0.252630 0.998080
Cr5   Cr    Cr6+3 0.387390 0.989720 0.750850 0.998724
Cr6   Cr    Cr6+3 0.612610 0.989720 0.249150 0.997868
Cr7   Cr    Cr6+3 0.887390 0.489720 0.750850 0.998724
Cr8   Cr    Cr6+3 0.112610 0.489720 0.249150 0.997868
Cr9   Cr    Cr6+3 0.385770 0.677220 0.749340 0.992322
Cr10  Cr    Cr6+3 0.614230 0.677220 0.250660 0.983926
Cr11  Cr    Cr6+3 0.885770 0.177220 0.749340 0.992305
Cr12  Cr    Cr6+3 0.114230 0.177220 0.250660 0.983920
H1    H     H_    0.372888 0.823220 0.978139 0.111708
H2    H     H_    0.627143 0.825192 0.021853 0.111805
H3    H     H_    0.872888 0.323220 0.978139 0.111708
H4    H     H_    0.127144 0.325192 0.021853 0.111805
H5    H     H_    0.420289 0.012126 0.544749 0.135537
H6    H     H_    0.460062 0.014448 0.418764 0.120695
H7    H     H_    0.920383 0.512167 0.544778 0.135534
H8    H     H_    0.960150 0.514485 0.418796 0.120688
H9    H     H_    0.091174 0.136839 0.448415 0.179072
H10   H     H_    0.009717 0.054530 0.579405 0.131745
H11   H     H_    0.591228 0.636976 0.448401 0.179125
H12   H     H_    0.509896 0.554693 0.579467 0.131839
H13   H     H_    0.364528 0.553477 0.554179 0.126928
H14   H     H_    0.683089 0.441832 0.424795 0.126652
H15   H     H_    0.864518 0.053448 0.554181 0.126907
H16   H     H_    0.183152 0.941768 0.424777 0.126656
H17   H     H_    0.356064 0.542389 0.422405 0.119725
H18   H     H_    0.689657 0.413092 0.554494 0.150594
H19   H     H_    0.856051 0.042368 0.422407 0.119738
H20   H     H_    0.189760 0.912971 0.554468 0.150624
H21   H     H_    0.099949 0.552497 0.445345 0.166233
H22   H     H_    0.894070 0.696498 0.576755 0.151634
H23   H     H_    0.599929 0.052554 0.445315 0.166224
H24   H     H_    0.394044 0.196495 0.576748 0.151652
H25   H     H_    0.088161 0.721211 0.435179 0.129728
H26   H     H_    0.841560 0.838751 0.576786 0.135070
H27   H     H_    0.588166 0.221278 0.435190 0.129731
H28   H     H_    0.341542 0.338757 0.576804 0.135079
H29   H     H_    0.100632 0.745625 0.561718 0.132833
H30   H     H_    0.848497 0.843545 0.448484 0.153616
H31   H     H_    0.600620 0.245594 0.561735 0.132841
H32   H     H_    0.348476 0.343592 0.448507 0.153612
H33   H     H_    0.109278 0.576617 0.572117 0.140234
H34   H     H_    0.894192 0.693432 0.448256 0.128446
H35   H     H_    0.609263 0.076574 0.572092 0.140264
H36   H     H_    0.394139 0.193457 0.448254 0.128455
H37   H     H_    0.452286 0.009695 0.058434 0.110329
H38   H     H_    0.547257 0.011513 0.942900 0.110637
H39   H     H_    0.952286 0.509695 0.058434 0.110329
H40   H     H_    0.047257 0.511513 0.942900 0.110637
H41   H     H_    0.548293 0.647843 0.942482 0.115153
H42   H     H_    0.452440 0.646041 0.056351 0.114486
H43   H     H_    0.048293 0.147842 0.942482 0.115151
H44   H     H_    0.952440 0.146041 0.056351 0.114485
H45   H     H_    0.138569 0.656150 0.923607 0.128251
H46   H     H_    0.861981 0.654395 0.077151 0.127368
H47   H     H_    0.638569 0.156150 0.923607 0.128251
H48   H     H_    0.361981 0.154396 0.077150 0.127369
H49   H     H_    0.120991 0.610966 0.047922 0.139814
H50   H     H_    0.879843 0.608954 0.952715 0.139175
H51   H     H_    0.620992 0.110966 0.047922 0.139815
H52   H     H_    0.379842 0.108955 0.952715 0.139175
H53   H     H_    0.868178 0.858826 0.053750 0.137487
H54   H     H_    0.130448 0.860728 0.944857 0.137043
H55   H     H_    0.368178 0.358827 0.053750 0.137487
H56   H     H_    0.630448 0.360728 0.944857 0.137044
H57   H     H_    0.365950 0.523288 0.078790 0.142781
H58   H     H_    0.634569 0.525217 0.920502 0.143677
H59   H     H_    0.865950 0.023287 0.078790 0.142779
H60   H     H_    0.134569 0.025217 0.920502 0.143674
H61   H     H_    0.386867 0.574726 0.953186 0.156994
H62   H     H_    0.613428 0.576644 0.046072 0.157118
H63   H     H_    0.886867 0.074726 0.953186 0.156994
H64   H     H_    0.113428 0.076644 0.046072 0.157119
H65   H     H_    0.387008 0.408218 0.930868 0.140477
H66   H     H_    0.611474 0.410091 0.067820 0.138736
H67   H     H_    0.887008 0.908217 0.930868 0.140477
H68   H     H_    0.111474 0.910091 0.067820 0.138734
O1    O     O_R   0.214300 0.709080 0.827500 -0.531331
O2    O     O_R   0.785700 0.709080 0.172500 -0.534128
O3    O     O_R   0.714300 0.209080 0.827500 -0.531334
O4    O     O_R   0.285700 0.209080 0.172500 -0.534128
O5    O     O_R   0.445900 0.919370 0.676500 -0.506200
O6    O     O_R   0.554100 0.919370 0.323500 -0.506694
O7    O     O_R   0.945900 0.419370 0.676500 -0.506202
O8    O     O_R   0.054100 0.419370 0.323500 -0.506694
O9    O     O_R   0.456660 0.717710 0.669820 -0.536499
O10   O     O_R   0.543340 0.717710 0.330180 -0.529978
O11   O     O_R   0.956660 0.217710 0.669820 -0.536503
O12   O     O_R   0.043340 0.217710 0.330180 -0.529990
O13   O     O_R   0.320590 0.625770 0.672930 -0.522698
O14   O     O_R   0.679410 0.625770 0.327070 -0.519746
O15   O     O_R   0.820590 0.125770 0.672930 -0.522699
O16   O     O_R   0.179410 0.125770 0.327070 -0.519727
O17   O     O_3   0.334270 0.834280 0.749190 -0.288296
O18   O     O_3   0.665730 0.834280 0.250810 -0.263515
O19   O     O_3   0.834270 0.334280 0.749190 -0.288293
O20   O     O_3   0.165730 0.334280 0.250810 -0.263521
O21   O     O_R   0.236190 0.958390 0.823150 -0.497473
O22   O     O_R   0.763810 0.958390 0.176850 -0.501147
O23   O     O_R   0.736190 0.458390 0.823150 -0.497473
O24   O     O_R   0.263810 0.458390 0.176850 -0.501146
O25   O     O_R   0.332090 0.075280 0.831290 -0.517860
O26   O     O_R   0.667910 0.075280 0.168710 -0.520710
O27   O     O_R   0.832090 0.575280 0.831290 -0.517863
O28   O     O_R   0.167910 0.575280 0.168710 -0.520712
O29   O     O_R   0.446280 0.918040 0.826620 -0.517497
O30   O     O_R   0.553720 0.918040 0.173380 -0.520886
O31   O     O_R   0.946280 0.418040 0.826620 -0.517494
O32   O     O_R   0.053720 0.418040 0.173380 -0.520884
O33   O     O_R   0.457080 0.716270 0.831760 -0.523228
O34   O     O_R   0.542920 0.716270 0.168240 -0.527649
O35   O     O_R   0.957080 0.216270 0.831760 -0.523239
O36   O     O_R   0.042920 0.216270 0.168240 -0.527654
O37   O     O_R   0.320980 0.624440 0.823040 -0.500120
O38   O     O_R   0.679020 0.624440 0.176960 -0.502988
O39   O     O_R   0.820980 0.124440 0.823040 -0.500122
O40   O     O_R   0.179020 0.124440 0.176960 -0.502991
O41   O     O_R   0.213880 0.710510 0.665560 -0.519046
O42   O     O_R   0.786120 0.710510 0.334440 -0.519102
O43   O     O_R   0.713880 0.210510 0.665560 -0.519034
O44   O     O_R   0.286120 0.210510 0.334440 -0.519118
O45   O     O_R   0.235800 0.959720 0.673040 -0.514764
O46   O     O_R   0.764200 0.959720 0.326960 -0.505362
O47   O     O_R   0.735800 0.459720 0.673040 -0.514744
O48   O     O_R   0.264200 0.459720 0.326960 -0.505359
O49   O     O_R   0.331670 0.076720 0.669350 -0.527910
O50   O     O_R   0.668330 0.076720 0.330650 -0.521514
O51   O     O_R   0.831670 0.576720 0.669350 -0.527905
O52   O     O_R   0.168330 0.576720 0.330650 -0.521513
C121  C     C_3   0.514069 0.484588 0.448615 -0.301949
C122  C     C_3   0.510445 0.462798 0.368148 -0.404714
H69   H     H_    0.469960 0.522276 0.343150 0.173832
H70   H     H_    0.562517 0.479724 0.343753 0.181798
H71   H     H_    0.495360 0.366380 0.357658 0.111575
H72   H     H_    0.551862 0.418689 0.472342 0.130387
H73   H     H_    0.461725 0.464188 0.471607 0.134267
C123  C     C_3   0.592202 0.699010 0.589375 -0.264480
C124  C     C_3   0.626327 0.807822 0.551334 -0.426043
H74   H     H_    0.651624 0.780973 0.500811 0.151297
H75   H     H_    0.586914 0.878843 0.539383 0.156467
H76   H     H_    0.667408 0.848639 0.586742 0.140972
H77   H     H_    0.576002 0.731621 0.642631 0.191349
H78   H     H_    0.631285 0.629201 0.601966 0.147619
C125  C     C_3   0.013971 0.984529 0.448541 -0.301954
C126  C     C_3   0.010354 0.962822 0.368067 -0.404675
H79   H     H_    0.969893 0.022362 0.343082 0.173847
H80   H     H_    0.062435 0.979723 0.343687 0.181779
H81   H     H_    0.995242 0.866429 0.357543 0.111588
H82   H     H_    0.051751 0.918587 0.472248 0.130393
H83   H     H_    0.961627 0.964127 0.471524 0.134238
C127  C     C_3   0.092143 0.198616 0.589401 -0.264427
C128  C     C_3   0.126270 0.307582 0.551502 -0.425827
H84   H     H_    0.151396 0.281013 0.500825 0.151219
H85   H     H_    0.086889 0.378824 0.539852 0.156439
H86   H     H_    0.167494 0.348034 0.586896 0.140996
H87   H     H_    0.076017 0.230975 0.642740 0.191339
H88   H     H_    0.131205 0.128690 0.601832 0.147590

loop_
_geom_bond_atom_site_label_1
_geom_bond_atom_site_label_2
_ccdc_geom_bond_type
Cr4   O20   S    
C73   C93   A    
C75   C95   A    
C48   C120  S    
C53   H5    S    
C16   C20   A    
C63   C98   S    
C69   C93   A    
C97   O45   A    
C5    C6    S    
C20   C40   A    
C71   C95   A    
C22   C38   A    
C29   C33   S    
C55   H7    S    
C1    O21   A    
C127  C128  S    
C9    C13   A    
C122  H70   S    
C11   C15   A    
C121  H72   S    
C87   H35   S    
C12   C16   A    
C88   H36   S    
C121  C122  S    
Cr12  O16   S    
Cr4   O44   S    
C23   H47   S    
Cr2   O46   S    
C34   H62   S    
C21   H45   S    
C96   C108  S    
C59   C60   S    
Cr8   O32   S    
C113  H1    S    
C107  O43   A    
Cr6   O26   S    
C105  O41   A    
C109  C118  S    
C47   O35   A    
C90   O38   A    
Cr11  O15   S    
C51   C52   A    
C7    C119  S    
C99   O51   A    
C62   C66   A    
C97   O49   A    
C6    H42   S    
Cr11  O35   S    
Cr3   O23   S    
C58   C123  S    
C66   C82   S    
C125  H82   S    
C11   C27   A    
C68   C72   A    
Cr12  O36   S    
C26   H50   S    
C64   C97   S    
C126  H80   S    
C29   H57   S    
C123  H78   S    
C2    O26   A    
C125  H83   S    
Cr9   O37   S    
C84   C88   S    
C9    C25   A    
C32   H54   S    
C38   C90   S    
C59   C125  S    
C85   H33   S    
Cr5   O49   S    
C18   C38   A    
Cr1   O1    S    
C19   C35   S    
C76   C96   A    
C84   H24   S    
C44   C55   A    
C66   C70   A    
C56   H8    S    
Cr5   O5    S    
Cr10  O14   S    
C27   H51   S    
C62   C99   S    
C72   C96   A    
C61   C65   A    
C107  O15   A    
C76   H16   S    
Cr2   O22   S    
Cr9   O33   S    
C73   C77   A    
Cr8   O8    S    
C75   C79   A    
Cr6   O18   S    
C90   O2    A    
C67   C83   S    
C111  C112  S    
Cr3   O43   S    
C35   H67   S    
C7    C8    S    
C53   C54   A    
Cr1   O41   S    
C32   H60   S    
C60   C127  S    
C64   C68   A    
C103  O7    A    
Cr5   O29   S    
C42   C53   A    
C124  H74   S    
C82   H26   S    
C83   H23   S    
C49   C57   S    
C41   C102  S    
Cr10  O18   S    
C43   C104  S    
Cr7   O7    S    
C52   C60   S    
Cr4   O24   S    
C61   C77   A    
C24   H48   S    
C76   C80   A    
Cr8   O20   S    
C44   C52   A    
C104  O8    A    
C1    C12   S    
C2    C11   S    
C44   C103  S    
C109  H37   S    
C106  O14   A    
C30   C34   S    
C127  H87   S    
C128  H86   S    
C10   C14   A    
C103  O11   A    
C122  H71   S    
C101  O9    A    
C88   H32   S    
C116  C120  S    
C73   H13   S    
Cr12  O20   S    
C7    C116  S    
Cr4   O48   S    
C36   H64   S    
C34   H66   S    
Cr8   O28   S    
C31   H53   S    
C114  H2    S    
C114  C118  S    
C102  O6    A    
C19   C39   A    
C42   C50   A    
C113  C117  S    
C115  C119  S    
C46   O34   A    
Cr11  O11   S    
C61   C100  S    
C104  O12   A    
C99   O47   A    
C42   C101  S    
C112  C116  S    
C69   C85   S    
C45   C117  S    
C21   C25   A    
C92   O40   A    
C3    O23   A    
Cr1   O17   S    
C62   C78   A    
C24   C28   A    
C123  C124  S    
C124  H76   S    
C125  C126  S    
C8    H44   S    
C15   C31   S    
C16   C32   S    
C13   C17   A    
C28   H52   S    
C57   C58   S    
C115  H3    S    
C111  H39   S    
C30   H58   S    
C57   C121  S    
C58   H12   S    
C59   H9    S    
C49   C50   A    
C4    C9    S    
C81   C85   S    
C83   C87   S    
C55   C56   A    
C85   H29   S    
C74   C94   A    
C89   O1    A    
C128  H84   S    
C86   H34   S    
C84   H28   S    
Cr7   O19   S    
C15   C19   A    
C8    C120  S    
C12   C28   A    
C13   C29   S    
C70   C94   A    
C45   O33   A    
C98   O46   A    
C31   H59   S    
C2    O22   A    
C46   C118  S    
C41   C49   A    
Cr9   O17   S    
C60   H10   S    
Cr10  O38   S    
C92   O4    A    
C35   H63   S    
Cr1   O45   S    
C32   C36   S    
C33   H61   S    
Cr7   O27   S    
C64   C80   A    
C17   C33   S    
C106  O42   A    
Cr5   O25   S    
C110  C117  S    
C81   H25   S    
C68   C84   S    
C89   O37   A    
C77   H17   S    
C98   O50   A    
C75   H15   S    
C82   C86   S    
Cr3   O19   S    
Cr10  O34   S    
C29   H55   S    
C50   C58   S    
C122  H69   S    
C100  O48   A    
C121  H73   S    
C65   C81   S    
C108  O16   A    
C95   C107  S    
C71   C87   S    
C110  H38   S    
C31   C35   S    
C3    O27   A    
C1    O25   A    
C128  H85   S    
C46   O30   A    
C74   H14   S    
C36   H68   S    
C112  C119  S    
C116  H4    S    
C37   C89   S    
Cr6   O50   S    
Cr2   O2    S    
C109  C110  S    
C43   C51   A    
C112  H40   S    
Cr6   O6    S    
C65   C69   A    
C67   C71   A    
C4    O28   A    
Cr12  O40   S    
C20   C36   S    
C21   C37   A    
C126  H79   S    
C22   C26   A    
Cr1   O21   S    
C123  H77   S    
C91   O3    A    
C30   H56   S    
Cr5   O17   S    
C87   H31   S    
C5    C114  S    
C14   C18   A    
Cr12  O12   S    
C22   H46   S    
C5    H41   S    
C81   H21   S    
Cr2   O42   S    
C63   C79   A    
Cr8   O52   S    
Cr4   O4    S    
C127  H88   S    
Cr6   O30   S    
C47   O31   A    
Cr11  O19   S    
C8    C115  S    
C93   C105  S    
Cr11  O39   S    
C7    H43   S    
C86   H30   S    
C23   C27   A    
C74   C78   A    
C109  C113  S    
C10   C26   A    
C47   C119  S    
Cr9   O13   S    
C45   O29   A    
C14   C30   S    
C72   C88   S    
C25   H49   S    
C63   C67   A    
C105  O13   A    
C57   H11   S    
C124  H75   S    
C102  O10   A    
C4    O24   A    
C5    C117  S    
C111  C120  S    
C48   O32   A    
C6    C113  S    
C126  H81   S    
C33   H65   S    
C108  O44   A    
Cr7   O31   S    
C17   C37   A    
C40   C92   S    
C18   C34   S    
C48   O36   A    
C101  O5    A    
Cr10  O10   S    
C51   C59   S    
C70   C86   S    
C78   H18   S    
C79   H19   S    
C80   H20   S    
C110  C114  S    
C94   C106  S    
Cr2   O18   S    
C39   C91   S    
Cr3   O3    S    
C100  O52   A    
C3    C10   S    
Cr3   O47   S    
C54   H6    S    
C23   C39   A    
C24   C40   A    
Cr7   O51   S    
C41   C54   A    
C82   H22   S    
C43   C56   A    
C83   H27   S    
C91   O39   A    
C111  C115  S    
Cr9   O9    S    
C6    C118  S    
