data_mof_unit_23750.cif
_audit_creation_date              2012-12-10T19:08:07-0500
_audit_creation_method            fapswitch 2.2
_symmetry_space_group_name_H-M    P1
_symmetry_Int_Tables_number       1
_space_group_crystal_system       triclinic
_cell_length_a                    9.07748
_cell_length_b                    10.862187
_cell_length_c                    9.552643
_cell_angle_alpha                 90.06727
_cell_angle_beta                  90.020289
_cell_angle_gamma                 90.193646
_cell_volume                      941.896788178

loop_
_atom_site_label
_atom_site_type_symbol
_atom_type_description
_atom_site_fract_x
_atom_site_fract_y
_atom_site_fract_z
_atom_type_partial_charge
C1    C     C_R   0.500203 0.262718 0.499801 0.812319
C2    C     C_R   0.508541 0.935289 0.370644 -0.223270
C3    C     C_R   0.502259 0.869909 0.498249 -0.100970
C4    C     C_R   0.497332 0.938158 0.620925 0.128676
C5    C     C_3   0.487238 0.929469 0.776273 -0.463056
C6    C     C_3   0.486608 0.071267 0.776137 -0.454469
C7    C     C_R   0.572814 0.590031 0.073746 0.147802
C8    C     C_R   0.416060 0.418786 0.074013 0.663472
C9    C     C_R   0.416334 0.418775 0.925234 -0.168424
C10   C     C_R   0.572921 0.589943 0.926471 0.233296
C11   C     C_3   0.733752 0.618015 0.920910 -0.471246
C12   C     C_R   0.220692 0.499964 0.499964 0.854359
C13   C     C_3   0.733487 0.618515 0.079796 -0.470367
C14   C     C_R   0.500589 0.737280 0.499887 0.791893
C15   C     C_R   0.779298 0.500117 0.500039 0.837447
C16   C     C_1   0.065539 0.500059 0.499968 -0.171945
C17   C     C_1   0.934432 0.500120 0.500038 -0.188345
C18   C     C_R   0.496870 0.062118 0.620824 0.119995
C19   C     C_R   0.501672 0.130090 0.498087 -0.106355
C20   C     C_R   0.508214 0.064440 0.370567 -0.183589
Cu1   Cu    Cu3+1 0.499990 0.499980 0.640670 0.945384
Cu2   Cu    Cu3+1 0.500010 0.500020 0.359330 0.998342
H1    H     H_    0.512731 0.112071 0.271106 0.194202
H2    H     H_    0.756613 0.709992 0.874850 0.186005
H3    H     H_    0.799525 0.542417 0.125266 0.225831
H4    H     H_    0.755456 0.710951 0.125460 0.194600
H5    H     H_    0.513297 0.887436 0.271206 0.169734
H6    H     H_    0.381413 0.887987 0.811324 0.203748
H7    H     H_    0.588030 0.889352 0.823609 0.193570
H8    H     H_    0.380307 0.111473 0.810995 0.204460
H9    H     H_    0.586972 0.112994 0.823394 0.203721
H10   H     H_    0.350759 0.351598 0.869143 0.164425
H11   H     H_    0.799574 0.541401 0.876103 0.222628
N1    N     N_R   0.500920 0.500930 0.147930 -0.236456
N2    N     N_R   0.500930 0.500890 0.852020 -0.215790
O1    O     O_R   0.500000 0.319640 0.618810 -0.591000
O2    O     O_R   0.500020 0.319680 0.381230 -0.534107
O3    O     O_R   0.288380 0.499980 0.618770 -0.585477
O4    O     O_R   0.288400 0.500020 0.381190 -0.531830
O5    O     O_R   0.499980 0.680320 0.618770 -0.579542
O6    O     O_R   0.500000 0.680360 0.381190 -0.590921
O7    O     O_R   0.711600 0.499980 0.618810 -0.581243
O8    O     O_R   0.711620 0.500020 0.381230 -0.584213
F1    F     F_    0.332650 0.334780 0.142853 -0.663291

loop_
_geom_bond_atom_site_label_1
_geom_bond_atom_site_label_2
_ccdc_geom_bond_type
C7    C10   A    
C10   N2    A    
Cu1   N2    S    
C5    H6    S    
C19   C20   A    
C20   H1    S    
C1    O2    A    
C4    C18   A    
C12   O4    A    
C7    C13   S    
C6    H9    S    
C15   O8    A    
Cu1   O1    S    
C8    N1    A    
Cu1   Cu2   S    
C11   C13   S    
C13   H3    S    
C2    H5    S    
C3    C14   S    
C14   O6    A    
C6    C18   S    
Cu2   O4    S    
C6    H8    S    
C2    C3    A    
C5    H7    S    
C12   O3    A    
C5    C6    S    
Cu2   N1    S    
C7    N1    A    
C13   H4    S    
C1    C19   S    
Cu2   O6    S    
C16   C17   T    
C10   C11   S    
C2    C20   A    
C3    C4    A    
C8    F1    S    
C11   H2    S    
C11   H11   S    
C15   O7    A    
C15   C17   S    
C18   C19   A    
C9    N2    A    
C8    C9    A    
Cu1   O7    S    
C9    H10   S    
Cu2   O2    S    
C14   O5    A    
Cu2   O8    S    
Cu1   O3    S    
C12   C16   S    
C1    O1    A    
C4    C5    S    
Cu1   O5    S    
