data_mof_unit_28998.cif
_audit_creation_date              2012-12-10T17:07:14-0500
_audit_creation_method            fapswitch 2.2
_symmetry_space_group_name_H-M    P1
_symmetry_Int_Tables_number       1
_space_group_crystal_system       triclinic
_cell_length_a                    10.068763
_cell_length_b                    10.717338
_cell_length_c                    13.642401
_cell_angle_alpha                 90.524195
_cell_angle_beta                  83.386323
_cell_angle_gamma                 89.314948
_cell_volume                      1462.17269198

loop_
_atom_site_label
_atom_site_type_symbol
_atom_type_description
_atom_site_fract_x
_atom_site_fract_y
_atom_site_fract_z
_atom_type_partial_charge
C1    C     C_R   0.498876 0.738272 0.502807 0.838395
C2    C     C_1   0.459249 0.502425 0.788839 -0.143524
C3    C     C_2   0.615521 0.065575 0.473348 -0.250666
C4    C     C_2   0.508422 0.135649 0.464000 -0.305969
C5    C     C_2   0.605177 0.931539 0.457410 0.381076
C6    C     C_2   0.500077 0.873294 0.507992 0.228780
C7    C     C_2   0.082502 0.415003 0.455942 -0.070572
C8    C     C_2   0.935767 0.427890 0.443580 0.036884
C9    C     C_R   0.476469 0.500371 0.685405 0.901323
C10   C     C_R   0.502022 0.263399 0.492751 0.953186
C11   C     C_R   0.523695 0.500351 0.314576 0.888793
C12   C     C_1   0.541727 0.502400 0.211129 -0.168368
C13   C     C_2   0.557268 0.506905 0.019776 0.168258
C14   C     C_2   0.440756 0.507084 0.981430 0.434210
C15   C     C_1   0.447309 0.504561 0.876427 -0.083428
C16   C     C_1   0.553957 0.504524 0.123577 0.060110
H1    H     H_    0.706281 0.103219 0.497410 0.168916
H2    H     H_    0.423331 0.097143 0.433570 0.140761
H3    H     H_    0.136548 0.333968 0.423121 0.131780
H4    H     H_    0.101142 0.582954 0.515108 0.194048
H5    H     H_    0.898591 0.374175 0.384973 0.079731
N1    N     N_2   0.147970 0.498670 0.498970 -0.174436
N2    N     N_2   0.852310 0.498640 0.498940 0.058619
O1    O     O_R   0.386960 0.680940 0.500020 -0.642410
O2    O     O_R   0.613100 0.680900 0.499980 -0.608846
O3    O     O_R   0.370650 0.500000 0.640370 -0.609925
O4    O     O_R   0.596800 0.499960 0.640330 -0.588774
O5    O     O_R   0.386900 0.319100 0.500020 -0.618400
O6    O     O_R   0.613040 0.319060 0.499980 -0.615291
O7    O     O_R   0.403200 0.500040 0.359670 -0.601983
O8    O     O_R   0.629350 0.500000 0.359630 -0.618519
Zn1   Zn    Zn3+2 0.349000 0.500030 0.500020 0.944431
Zn2   Zn    Zn3+2 0.651000 0.499970 0.499980 0.994228
O9    O     O_3   0.320646 0.502698 0.044445 -0.658642
C17   C     C_3   0.207270 0.541658 0.999592 0.121323
H6    H     H_    0.117133 0.513952 0.048938 0.180927
H7    H     H_    0.199871 0.492755 0.928145 0.153467
C18   C     C_3   0.203127 0.684116 0.989157 -0.395840
H8    H     H_    0.197417 0.728302 0.063544 0.230224
H9    H     H_    0.295493 0.716729 0.944938 0.224507
C19   C     C_3   0.083173 0.725894 0.938494 -0.920904
H10   H     H_    0.091038 0.685817 0.862748 0.272769
H11   H     H_    0.081420 0.829224 0.933453 0.262151
H12   H     H_    0.988547 0.695378 0.980943 0.296008
O10   O     O_3   0.892735 0.528665 0.587144 -0.559693
C20   C     C_3   0.853722 0.653452 0.610044 0.213366
H13   H     H_    0.746735 0.659845 0.637608 0.202873
H14   H     H_    0.873392 0.714878 0.544724 0.128620
C21   C     C_3   0.930944 0.701543 0.692510 -0.425996
H15   H     H_    0.928312 0.630625 0.751608 0.280311
H16   H     H_    0.036951 0.716439 0.663084 0.201574
C22   C     C_3   0.870299 0.823404 0.737474 -0.915738
H17   H     H_    0.859584 0.893339 0.679374 0.257117
H18   H     H_    0.935721 0.862146 0.790063 0.273193
H19   H     H_    0.770172 0.806091 0.777989 0.284054
Br1   Br    Br    0.729745 0.511970 0.942403 -0.576558
O11   O     O_3   0.701117 0.863337 0.395739 -0.652968
C23   C     C_3   0.770994 0.937850 0.322632 0.070347
H20   H     H_    0.837229 0.003613 0.356945 0.143049
H21   H     H_    0.699903 0.991065 0.281370 0.147200
C24   C     C_3   0.857429 0.853282 0.249791 -0.310990
H22   H     H_    0.924937 0.795269 0.290261 0.227876
H23   H     H_    0.792192 0.789817 0.212366 0.234573
C25   C     C_3   0.941450 0.929650 0.172411 -0.965236
H24   H     H_    0.008762 0.992552 0.208262 0.261810
H25   H     H_    0.875869 0.986099 0.129322 0.274697
H26   H     H_    0.003593 0.865943 0.121157 0.276608
O12   O     O_3   0.414317 0.940402 0.578676 -0.666701
C26   C     C_3   0.276948 0.911318 0.579840 0.114070
H27   H     H_    0.221169 0.968850 0.639438 0.167639
H28   H     H_    0.255658 0.814288 0.603204 0.158208
C27   C     C_3   0.220637 0.945549 0.482974 -0.385925
H29   H     H_    0.213246 0.048690 0.477768 0.217334
H30   H     H_    0.286457 0.908825 0.417932 0.216822
C28   C     C_3   0.081543 0.894163 0.478452 -0.947371
H31   H     H_    0.085246 0.790992 0.479188 0.256416
H32   H     H_    0.044489 0.924035 0.408809 0.264128
H33   H     H_    0.011875 0.930365 0.541340 0.266884

loop_
_geom_bond_atom_site_label_1
_geom_bond_atom_site_label_2
_ccdc_geom_bond_type
C14   O9    S    
C24   C25   S    
C18   H9    S    
C28   H31   S    
O1    Zn1   S    
O3    Zn1   S    
N2    O10   S    
C26   C27   S    
C7    N1    D    
C28   H32   S    
C19   H10   S    
C17   H6    S    
C10   O6    A    
C22   H19   S    
C5    O11   S    
C11   C12   S    
C21   C22   S    
C4    H2    S    
C25   H24   S    
C13   Br1   S    
C23   C24   S    
O8    Zn2   S    
C8    H5    S    
C3    C5    S    
C11   O8    A    
C7    C8    S    
C13   C14   D    
O4    Zn2   S    
O7    Zn1   S    
C2    C15   T    
C19   H11   S    
C20   C21   S    
O11   C23   S    
C5    C6    D    
N1    Zn1   S    
C18   C19   S    
C27   C28   S    
C12   C16   T    
C28   H33   S    
C6    O12   S    
C17   H7    S    
C22   H18   S    
C9    O3    A    
C3    H1    S    
C7    H3    S    
C26   H27   S    
C19   H12   S    
C20   H14   S    
C26   H28   S    
C24   H22   S    
C23   H21   S    
C1    C6    S    
C25   H26   S    
O6    Zn2   S    
O5    Zn1   S    
C8    N2    D    
C18   H8    S    
C22   H17   S    
C9    O4    A    
C1    O1    A    
C27   H30   S    
O9    C17   S    
C20   H13   S    
C13   C16   S    
C10   O5    A    
C21   H15   S    
C17   C18   S    
C27   H29   S    
C21   H16   S    
C23   H20   S    
O10   C20   S    
C2    C9    S    
C4    C10   S    
O2    Zn2   S    
C1    O2    A    
C24   H23   S    
C3    C4    D    
C14   C15   S    
C11   O7    A    
H4    N1    S    
O12   C26   S    
N2    Zn2   S    
C25   H25   S    
