data_mof_unit_57771.cif
_audit_creation_date              2012-10-26T18:50:21-0400
_audit_creation_method            fapswitch 2.2
_symmetry_space_group_name_H-M    P1
_symmetry_Int_Tables_number       1
_space_group_crystal_system       triclinic
_cell_length_a                    9.611572
_cell_length_b                    10.77361
_cell_length_c                    15.481033
_cell_angle_alpha                 87.750589
_cell_angle_beta                  74.154713
_cell_angle_gamma                 90.068224
_cell_volume                      1540.86184127

loop_
_atom_site_label
_atom_site_type_symbol
_atom_type_description
_atom_site_fract_x
_atom_site_fract_y
_atom_site_fract_z
_atom_type_partial_charge
C1    C     C_R   0.998636 0.262647 0.502998 0.543873
C2    C     C_R   0.228211 0.530526 0.041735 0.083812
C3    C     C_R   0.325576 0.492082 0.091481 0.037127
C4    C     C_R   0.918197 0.497219 0.671947 0.534101
C5    C     C_R   0.082234 0.551500 0.085515 -0.089337
C6    C     C_R   0.032061 0.537919 0.178716 -0.132941
C7    C     C_R   0.273152 0.483283 0.185616 -0.132018
C8    C     C_R   0.078169 0.121507 0.647356 -0.106815
C9    C     C_R   0.118517 0.052909 0.714655 -0.112509
C10   C     C_R   0.119376 0.923808 0.714395 -0.117002
C11   C     C_R   0.079674 0.862495 0.646915 -0.101948
C12   C     C_R   0.671786 0.474203 0.906668 0.000695
C13   C     C_R   0.040274 0.930139 0.577191 0.029039
C14   C     C_R   0.039737 0.061435 0.577367 0.025670
C15   C     C_R   0.995656 0.128508 0.509142 0.002800
C16   C     C_R   0.998861 0.737079 0.502780 0.526060
C17   C     C_R   0.946636 0.067103 0.445162 -0.144213
C18   C     C_R   0.946878 0.939065 0.445066 -0.151072
C19   C     C_R   0.996250 0.870563 0.508912 0.006138
C20   C     C_R   0.697730 0.662678 0.379627 -0.093221
C21   C     C_R   0.652121 0.742865 0.320826 -0.175327
C22   C     C_R   0.508521 0.744407 0.321437 -0.165024
C23   C     C_R   0.764886 0.418217 0.953897 0.059663
C24   C     C_R   0.409712 0.665487 0.380640 -0.084204
C25   C     C_R   0.451462 0.580934 0.441226 0.157497
C26   C     C_R   0.601061 0.580251 0.440956 0.157769
C27   C     C_R   0.548987 0.423523 0.556196 -0.000861
C28   C     C_R   0.081956 0.501226 0.327927 0.535069
C29   C     C_R   0.401223 0.423467 0.556117 -0.002817
C30   C     C_R   0.872450 0.480615 0.770031 -0.046452
C31   C     C_R   0.128127 0.505956 0.229277 -0.004135
C32   C     C_R   0.909475 0.391081 0.907741 0.214006
C33   C     C_R   0.961993 0.422481 0.816357 -0.113391
C34   C     C_R   0.522784 0.492010 0.951442 0.038232
C35   C     C_R   0.730729 0.509518 0.815624 -0.145943
C36   C     C_R   0.472321 0.466724 0.045784 0.036410
C37   C     C_R   0.569040 0.413756 0.090862 -0.147577
C38   C     C_R   0.711233 0.388946 0.045665 -0.109913
C39   C     C_R   0.421478 0.529743 0.904396 -0.123139
C40   C     C_R   0.277157 0.547626 0.948818 -0.090178
Cl1   Cl    Cl    0.025749 0.308753 0.959432 -0.671322
Cu1   Cu    Cu3+1 0.140660 0.499990 0.500010 0.912403
Cu2   Cu    Cu3+1 0.859340 0.500010 0.499990 0.927912
H1    H     H_    0.778926 0.346771 0.083953 0.178655
H2    H     H_    0.809898 0.669530 0.374029 0.176577
H3    H     H_    0.729017 0.804641 0.274659 0.121805
H4    H     H_    0.344259 0.462607 0.227021 0.127871
H5    H     H_    0.473015 0.807502 0.275766 0.128583
H6    H     H_    0.302391 0.675419 0.375657 0.184041
H7    H     H_    0.325742 0.360691 0.602163 0.111599
H8    H     H_    0.919474 0.555981 0.211205 0.124340
H9    H     H_    0.203243 0.575517 0.909969 0.122710
H10   H     H_    0.071089 0.397030 0.780869 0.145260
H11   H     H_    0.668700 0.560024 0.777877 0.130185
H12   H     H_    0.007033 0.579259 0.047578 0.126370
H13   H     H_    0.537147 0.385211 0.160985 0.110579
H14   H     H_    0.448670 0.542041 0.832341 0.104650
H15   H     H_    0.911063 0.118815 0.393731 0.135256
H16   H     H_    0.074741 0.221350 0.652022 0.125926
H17   H     H_    0.147450 0.100134 0.767862 0.151443
H18   H     H_    0.149086 0.870817 0.767390 0.119482
H19   H     H_    0.077595 0.762139 0.651249 0.144031
H20   H     H_    0.911414 0.893140 0.393578 0.113172
H21   H     H_    0.583605 0.360742 0.602311 0.124536
N1    N     N_R   0.648320 0.501210 0.499140 -0.244393
N2    N     N_R   0.352470 0.501290 0.499110 -0.243560
O1    O     O_R   0.118810 0.319640 0.500010 -0.498834
O2    O     O_R   0.881240 0.319660 0.500000 -0.494741
O3    O     O_R   0.055570 0.499980 0.629840 -0.517467
O4    O     O_R   0.818000 0.500010 0.629830 -0.497109
O5    O     O_R   0.118760 0.680340 0.500000 -0.525310
O6    O     O_R   0.881190 0.680360 0.499990 -0.513441
O7    O     O_R   0.182000 0.499990 0.370170 -0.521505
O8    O     O_R   0.944430 0.500020 0.370160 -0.517627

loop_
_geom_bond_atom_site_label_1
_geom_bond_atom_site_label_2
_ccdc_geom_bond_type
C22   H5    S    
Cu2   O6    S    
C27   C29   A    
C16   O6    A    
C11   H19   S    
C28   O8    A    
C4    O4    A    
C12   C23   A    
C30   C35   A    
C36   C37   A    
C3    C7    A    
C8    H16   S    
C5    C6    A    
C18   H20   S    
C39   H14   S    
C1    O2    A    
C18   C19   A    
C37   H13   S    
Cu2   O2    S    
C32   Cl1   S    
C1    C15   S    
C6    H8    S    
C9    C10   A    
C20   H2    S    
C17   H15   S    
Cu2   O8    S    
C6    C31   A    
C13   C14   A    
C35   H11   S    
C16   O5    A    
C28   O7    A    
C4    O3    A    
C29   H7    S    
C33   H10   S    
C7    C31   A    
C13   C19   A    
C34   C39   A    
C24   C25   A    
C27   H21   S    
C39   C40   A    
C8    C9    A    
C25   C26   A    
C40   H9    S    
Cu1   O3    S    
C7    H4    S    
C38   H1    S    
C37   C38   A    
C27   N1    A    
Cu2   N1    S    
C17   C18   A    
C12   C35   A    
Cu2   O4    S    
Cu1   O1    S    
C22   C24   A    
C10   H18   S    
Cu1   Cu2   S    
C12   C34   A    
C21   H3    S    
C24   H6    S    
C15   C17   A    
Cu1   O7    S    
C8    C14   A    
C30   C33   A    
C26   N1    A    
C5    H12   S    
C28   C31   S    
C25   N2    A    
C23   C38   A    
C9    H17   S    
C23   C32   A    
C2    C3    A    
C32   C33   A    
C11   C13   A    
C20   C26   A    
C3    C36   A    
C16   C19   S    
Cu1   O5    S    
C1    O1    A    
C34   C36   A    
C10   C11   A    
C29   N2    A    
C2    C5    A    
C2    C40   A    
C20   C21   A    
Cu1   N2    S    
C14   C15   A    
C21   C22   A    
C4    C30   S    
