data_mof_unit_38623.cif
_audit_creation_date              2012-12-10T19:43:24-0500
_audit_creation_method            fapswitch 2.2
_symmetry_space_group_name_H-M    P1
_symmetry_Int_Tables_number       1
_space_group_crystal_system       triclinic
_cell_length_a                    10.840399
_cell_length_b                    10.792181
_cell_length_c                    9.625225
_cell_angle_alpha                 88.667572
_cell_angle_beta                  92.619052
_cell_angle_gamma                 93.948996
_cell_volume                      1121.99452222

loop_
_atom_site_label
_atom_site_type_symbol
_atom_type_description
_atom_site_fract_x
_atom_site_fract_y
_atom_site_fract_z
_atom_type_partial_charge
C1    C     C_R   0.511059 0.263254 0.502963 0.791144
C2    C     C_R   0.198128 0.125403 0.165637 -0.134550
C3    C     C_R   0.924211 0.400753 0.419634 0.126085
C4    C     C_R   0.871886 0.481951 0.511716 -0.098388
C5    C     C_R   0.950554 0.552598 0.606391 -0.027067
C6    C     C_R   0.076473 0.562537 0.586583 -0.238947
C7    C     C_R   0.128595 0.490447 0.491209 -0.123881
C8    C     C_R   0.054256 0.405922 0.408724 -0.014431
C9    C     C_R   0.966054 0.705744 0.798315 -0.202012
C10   C     C_R   0.979186 0.724479 0.941993 0.230370
C11   C     C_R   0.934162 0.630809 0.033974 -0.124326
C12   C     C_R   0.262603 0.494767 0.496864 0.804853
C13   C     C_R   0.876192 0.520856 0.982080 -0.212759
C14   C     C_R   0.870626 0.499378 0.839543 -0.107725
C15   C     C_R   0.916139 0.591192 0.745668 0.086652
C16   C     C_R   0.540024 0.100454 0.771030 0.188773
C17   C     C_R   0.482573 0.037440 0.884069 0.214470
C18   C     C_R   0.405080 0.930241 0.860292 -0.175553
C19   C     C_R   0.398748 0.876341 0.730435 -0.209525
C20   C     C_R   0.463004 0.934128 0.619912 0.045342
C21   C     C_R   0.509931 0.057840 0.634137 0.048749
C22   C     C_R   0.527754 0.129404 0.510257 -0.122518
C23   C     C_R   0.492054 0.737117 0.498402 0.785977
C24   C     C_R   0.542007 0.068881 0.386082 -0.214857
C25   C     C_R   0.526785 0.940615 0.380939 -0.213027
C26   C     C_R   0.486396 0.871941 0.497254 -0.102920
C27   C     C_R   0.645270 0.684763 0.145798 -0.170010
C28   C     C_R   0.700841 0.786374 0.074804 0.150051
C29   C     C_R   0.699349 0.786001 0.930347 -0.197292
C30   C     C_R   0.645619 0.683902 0.859448 -0.141433
C31   C     C_R   0.571585 0.590411 0.926750 0.197054
C32   C     C_R   0.571474 0.590598 0.075836 0.169969
C33   C     C_R   0.429023 0.416011 0.072441 -0.071391
C34   C     C_R   0.737832 0.496009 0.503692 0.771817
C35   C     C_R   0.428875 0.415963 0.924684 -0.081007
C36   C     C_R   0.139670 0.223568 0.099572 -0.176764
C37   C     C_R   0.097372 0.317941 0.178370 -0.136737
C38   C     C_R   0.111570 0.313735 0.324017 0.133958
C39   C     C_R   0.172257 0.215829 0.389631 -0.145908
C40   C     C_R   0.215484 0.122134 0.310449 -0.129558
Cu1   Cu    Cu3+1 0.499990 0.499990 0.640660 0.918736
Cu2   Cu    Cu3+1 0.500010 0.500010 0.359340 0.935410
H1    H     H_    0.229673 0.051876 0.104545 0.146136
H2    H     H_    0.942451 0.643321 0.145393 0.124345
H3    H     H_    0.839388 0.450067 0.052637 0.140287
H4    H     H_    0.837322 0.408412 0.803376 0.143368
H5    H     H_    0.566573 0.121762 0.293892 0.183664
H6    H     H_    0.357336 0.882593 0.944654 0.160567
H7    H     H_    0.343920 0.789383 0.717479 0.170578
H8    H     H_    0.545491 0.895428 0.285849 0.195436
H9    H     H_    0.371608 0.346887 0.126652 0.165072
H10   H     H_    0.127198 0.226586 0.987351 0.135128
H11   H     H_    0.664949 0.682446 0.255052 0.204485
H12   H     H_    0.748788 0.859810 0.873089 0.141424
H13   H     H_    0.669081 0.678946 0.753445 0.204089
H14   H     H_    0.371061 0.346364 0.868697 0.146141
H15   H     H_    0.052316 0.393335 0.126356 0.138444
H16   H     H_    0.183545 0.210711 0.501975 0.111180
H17   H     H_    0.260758 0.046058 0.361502 0.142265
H18   H     H_    0.137399 0.619095 0.656025 0.161077
H19   H     H_    0.004840 0.776472 0.728036 0.132824
N1    N     N_R   0.501190 0.501210 0.147910 -0.191407
N2    N     N_R   0.501230 0.501290 0.852040 -0.199632
O1    O     O_R   0.499990 0.319640 0.618810 -0.575341
O2    O     O_R   0.500000 0.319660 0.381240 -0.579019
O3    O     O_R   0.319640 0.500000 0.618780 -0.582994
O4    O     O_R   0.319650 0.500020 0.381210 -0.564650
O5    O     O_R   0.500000 0.680340 0.618760 -0.598403
O6    O     O_R   0.500010 0.680360 0.381190 -0.599077
O7    O     O_R   0.680350 0.499980 0.618790 -0.603316
O8    O     O_R   0.680360 0.500000 0.381220 -0.588250
C41   C     C_3   0.650201 0.191861 0.799893 -0.824868
H20   H     H_    0.720293 0.146771 0.867826 0.204813
H21   H     H_    0.697464 0.221990 0.703722 0.220384
H22   H     H_    0.621721 0.274501 0.853136 0.252447
C42   C     C_3   0.506430 0.080061 0.030192 -0.901731
H23   H     H_    0.482279 0.177270 0.038035 0.231429
H24   H     H_    0.449903 0.022461 0.103638 0.226365
H25   H     H_    0.605446 0.073256 0.061452 0.250404
N3    N     N_3   0.764653 0.885532 0.151867 -0.615348
H26   H     H_    0.839750 0.849356 0.207085 0.209262
H27   H     H_    0.800827 0.954580 0.084259 0.212119
C43   C     C_3   0.844971 0.297019 0.348591 -0.832206
H28   H     H_    0.838943 0.313760 0.234809 0.224565
H29   H     H_    0.885729 0.206594 0.370375 0.230847
H30   H     H_    0.750289 0.285245 0.386997 0.227631
N4    N     N_3   0.041981 0.837133 0.992263 -0.619481
H31   H     H_    0.046800 0.836219 0.101018 0.207116
H32   H     H_    0.988894 0.910667 0.960045 0.205007

loop_
_geom_bond_atom_site_label_1
_geom_bond_atom_site_label_2
_ccdc_geom_bond_type
N4    H31   S    
C16   C21   A    
Cu1   Cu2   S    
C23   O6    A    
C19   C20   A    
C16   C41   S    
C42   H25   S    
C7    C8    A    
C14   H4    S    
C37   C38   A    
C9    H19   S    
C36   C37   A    
C42   H24   S    
C5    C6    A    
C16   C17   A    
C29   H12   S    
C18   C19   A    
C23   C26   S    
C25   H8    S    
C31   C32   A    
C33   N1    A    
Cu2   O2    S    
C1    O2    A    
C9    C10   A    
Cu2   N1    S    
C36   H10   S    
C27   C32   A    
C1    C22   S    
C40   H17   S    
C21   C22   A    
C8    C38   S    
C41   H22   S    
Cu1   O5    S    
C7    C12   S    
C12   O4    A    
C4    C34   S    
C10   N4    S    
C31   N2    A    
C38   C39   A    
C42   H23   S    
C41   H21   S    
C3    C8    A    
C39   C40   A    
C41   H20   S    
C25   C26   A    
C39   H16   S    
C12   O3    A    
Cu2   O6    S    
C23   O5    A    
C29   C30   A    
C6    H18   S    
C17   C42   S    
C19   H7    S    
C43   H28   S    
C2    H1    S    
C17   C18   A    
C11   H2    S    
C24   C25   A    
C6    C7    A    
N3    H27   S    
C43   H29   S    
N4    H32   S    
C3    C43   S    
Cu2   O4    S    
C22   C24   A    
Cu1   N2    S    
C3    C4    A    
C1    O1    A    
C2    C36   A    
C34   O7    A    
C28   C29   A    
C35   H14   S    
C24   H5    S    
N3    H26   S    
C18   H6    S    
C27   H11   S    
Cu1   O3    S    
C33   H9    S    
C30   H13   S    
C9    C15   A    
C32   N1    A    
C13   H3    S    
C11   C13   A    
C30   C31   A    
C20   C26   A    
Cu2   O8    S    
C33   C35   A    
C28   N3    S    
C5    C15   S    
C10   C11   A    
C2    C40   A    
C4    C5    A    
C43   H30   S    
C20   C21   A    
C27   C28   A    
C14   C15   A    
C35   N2    A    
Cu1   O1    S    
C13   C14   A    
C34   O8    A    
C37   H15   S    
Cu1   O7    S    
