data_mof_unit_58231.cif
_audit_creation_date              2013-03-05T16:11:05-0500
_audit_creation_method            fapswitch 2.2
_symmetry_space_group_name_H-M    P1
_symmetry_Int_Tables_number       1
_space_group_crystal_system       triclinic
_cell_length_a                    10.904588
_cell_length_b                    9.864312
_cell_length_c                    10.750715
_cell_angle_alpha                 89.332165
_cell_angle_beta                  90.057752
_cell_angle_gamma                 89.448532
_cell_volume                      1156.28134538

loop_
_atom_site_label
_atom_site_type_symbol
_atom_site_description
_atom_site_fract_x
_atom_site_fract_y
_atom_site_fract_z
_atom_type_partial_charge
O1    O     O_R   0.317570 0.620260 0.500070 -0.599851
O2    O     O_R   0.317570 0.379740 0.500070 -0.524463
C1    C     C_R   0.261151 0.500181 0.507782 0.822850
O3    O     O_R   0.499850 0.620240 0.316900 -0.497698
O4    O     O_R   0.499850 0.379760 0.316900 -0.482241
C2    C     C_R   0.511186 0.500676 0.260252 0.873901
Cu1   Cu    Cu3+1 0.499860 0.642410 0.500060 1.046491
Cu2   Cu    Cu3+1 0.499860 0.357590 0.500060 1.062723
O5    O     O_R   0.682190 0.620260 0.500030 -0.504792
O6    O     O_R   0.682190 0.379740 0.500030 -0.528115
O7    O     O_R   0.499910 0.620280 0.683200 -0.585439
O8    O     O_R   0.499910 0.379720 0.683200 -0.582909
C3    C     C_R   0.738398 0.499601 0.505916 0.832972
C4    C     C_R   0.498714 0.499385 0.737995 0.771737
C5    C     C_3   0.405339 0.521375 0.041522 0.100332
C6    C     C_3   0.557033 0.383702 0.034008 0.140242
C7    C     C_3   0.437045 0.399147 0.959813 -0.074705
H1    H     H_    0.373694 0.317104 0.932767 0.177498
C8    C     C_3   0.503413 0.498605 0.872555 -0.120514
C9    C     C_3   0.468663 0.621608 0.951820 -0.191873
C10   C     C_3   0.624197 0.478576 0.943089 -0.340587
C11   C     C_3   0.588282 0.598735 0.025922 0.415360
C12   C     C_3   0.523393 0.502492 0.120318 -0.126534
H2    H     H_    0.429667 0.720349 0.920041 0.188220
H3    H     H_    0.715453 0.459399 0.900535 0.153181
C13   C     C_3   0.067321 0.616941 0.597694 -0.059419
C14   C     C_3   0.070419 0.362126 0.566151 -0.017620
H4    H     H_    0.086195 0.717436 0.555271 0.125853
H5    H     H_    0.111877 0.275980 0.514820 0.182791
C15   C     C_3   0.925554 0.599713 0.608601 -0.420860
C16   C     C_3   0.929586 0.358392 0.546733 -0.518989
H6    H     H_    0.900236 0.560362 0.702493 0.190275
H7    H     H_    0.883723 0.324081 0.633712 0.189808
H8    H     H_    0.880339 0.699994 0.603183 0.179997
H9    H     H_    0.909630 0.282020 0.475685 0.187631
C17   C     C_3   0.071888 0.520762 0.373702 0.120164
C18   C     C_3   0.121576 0.500673 0.512770 0.106438
C19   C     C_3   0.877032 0.500147 0.507943 0.052420
C20   C     C_3   0.926039 0.543276 0.375621 0.248612
C21   C     C_3   0.605252 0.077122 0.584845 0.318037
C22   C     C_3   0.616211 0.912150 0.563754 0.342752
C23   C     C_3   0.384945 0.083966 0.558589 0.052645
C24   C     C_3   0.391084 0.919844 0.573817 -0.038747
C25   C     C_3   0.507994 0.083651 0.368542 0.386976
C26   C     C_3   0.481280 0.918059 0.370209 0.371316
N1    N     N_3   0.500250 0.143650 0.502780 -0.222595
N2    N     N_3   0.500250 0.856350 0.502780 -0.238369
H10   H     H_    0.309418 0.103823 0.494512 0.200739
H11   H     H_    0.304246 0.881226 0.534770 0.173430
N3    N     N_3   0.890980 0.686663 0.353206 -0.468609
H12   H     H_    0.910478 0.717007 0.262316 0.285461
H13   H     H_    0.935752 0.753827 0.411189 0.187993
N4    N     N_3   0.863524 0.464920 0.278348 -0.537475
H14   H     H_    0.870425 0.360728 0.292298 0.231979
H15   H     H_    0.901489 0.486670 0.191443 0.244100
N5    N     N_3   0.581955 0.100399 0.718815 -0.556854
H16   H     H_    0.602247 0.199454 0.740793 0.259346
H17   H     H_    0.648079 0.053401 0.775125 0.191020
N6    N     N_3   0.639008 0.835522 0.681407 -0.472610
H18   H     H_    0.726562 0.853704 0.717048 0.191661
H19   H     H_    0.579520 0.854515 0.754211 0.290069
N7    N     N_3   0.725044 0.141879 0.564141 -0.555544
H20   H     H_    0.770057 0.122390 0.482104 0.236062
H21   H     H_    0.787421 0.110172 0.632870 0.161989
N8    N     N_3   0.725889 0.880403 0.489481 -0.497584
H22   H     H_    0.735861 0.939538 0.411088 0.251837
H23   H     H_    0.806177 0.898363 0.539486 0.157297
N9    N     N_3   0.341739 0.157967 0.668849 -0.483818
H24   H     H_    0.379025 0.124959 0.752942 0.265016
H25   H     H_    0.249038 0.136249 0.679372 0.179826
N10   N     N_3   0.380509 0.875323 0.703868 -0.565172
H26   H     H_    0.304424 0.921884 0.744575 0.189304
H27   H     H_    0.351449 0.775683 0.704547 0.241455
N11   N     N_R   0.416222 0.145608 0.281397 0.187643
O9    O     O_R   0.324945 0.221340 0.316827 -0.330455
O10   O     O_R   0.419916 0.114584 0.164191 -0.270606
N12   N     N_R   0.352077 0.887032 0.326721 0.122303
O11   O     O_R   0.258126 0.968108 0.338269 -0.413743
O12   O     O_R   0.331831 0.778818 0.262892 -0.323400
N13   N     N_R   0.630454 0.116740 0.311052 0.072269
O13   O     O_R   0.678334 0.049880 0.219368 -0.300729
O14   O     O_R   0.676680 0.235467 0.323243 -0.360279
N14   N     N_R   0.558187 0.855313 0.272110 0.189133
O15   O     O_R   0.523073 0.871912 0.157002 -0.239761
O16   O     O_R   0.656588 0.782889 0.291237 -0.284475
N15   N     N_3   0.281740 0.541341 0.087225 -0.561612
H28   H     H_    0.260542 0.644478 0.079303 0.267725
H29   H     H_    0.283886 0.515356 0.181172 0.275254
N16   N     N_3   0.613270 0.255263 0.068037 -0.399059
H30   H     H_    0.706082 0.273575 0.084838 0.249241
H31   H     H_    0.609942 0.193155 0.990013 0.240057
N17   N     N_R   0.681116 0.702101 0.041416 0.201137
O17   O     O_R   0.787883 0.665676 0.083615 -0.389169
O18   O     O_R   0.673132 0.813544 0.975947 -0.338903
N18   N     N_3   0.120964 0.618225 0.723075 -0.575100
H32   H     H_    0.216196 0.611571 0.718967 0.212209
H33   H     H_    0.099097 0.710825 0.764469 0.225781
N19   N     N_3   0.101469 0.338006 0.697923 -0.556970
H34   H     H_    0.077710 0.238124 0.719844 0.194398
H35   H     H_    0.044176 0.394169 0.755870 0.269649
N20   N     N_3   0.132697 0.636825 0.313809 -0.542456
H36   H     H_    0.098133 0.652842 0.224113 0.235135
H37   H     H_    0.124234 0.726872 0.362480 0.251774
N21   N     N_3   0.108076 0.400153 0.301016 -0.533719
H38   H     H_    0.059858 0.313188 0.324925 0.220112
H39   H     H_    0.093245 0.416644 0.206026 0.240799

loop_
_geom_bond_atom_site_label_1
_geom_bond_atom_site_label_2
_geom_bond_distance
_ccdc_geom_bond_type
C14   N19   1.472333 S    
N20   H36   1.044727 S    
C14   H5    1.111333 S    
N18   H32   1.040921 S    
N4    H15   1.043137 S    
C8    C9    1.535535 S    
N21   H39   1.044399 S    
Cu1   Cu2   2.809552 S    
C20   N4    1.477595 S    
N4    H14   1.038932 S    
Cu1   O7    1.978420 S    
C6    C10   1.536542 S    
N11   O10   1.300710 A    
C17   C18   1.599214 S    
C8    C10   1.529150 S    
O4    C2    1.339730 A    
Cu2   O6    2.002292 S    
O7    C4    1.324123 A    
N15   H29   1.039308 S    
N19   H34   1.045478 S    
C21   N7    1.475568 S    
N5    H16   1.033909 S    
C15   C19   1.565006 S    
Cu1   O5    1.998112 S    
C23   N1    1.514947 S    
C26   N2    1.556078 S    
O5    C3    1.334329 A    
N7    H21   1.046879 S    
C9    H2    1.109155 S    
N9    H24   1.038508 S    
C21   N5    1.482892 S    
N3    H13   1.039768 S    
C16   H7    1.111703 S    
N16   H31   1.045281 S    
C5    C12   1.548882 S    
C6    N16   1.445289 S    
N20   H37   1.039550 S    
C10   C11   1.538725 S    
C23   N9    1.474658 S    
C26   N14   1.485149 S    
O3    Cu1   1.983740 S    
N21   H38   1.040317 S    
C25   N1    1.568212 S    
C7    H1    1.110212 S    
N12   O12   1.296301 A    
C5    C9    1.541647 S    
N6    H19   1.034703 S    
N11   O9    1.298825 A    
C15   H8    1.101912 S    
C14   C16   1.550490 S    
C25   N13   1.509012 S    
C19   C20   1.575458 S    
C22   N6    1.485427 S    
O3    C2    1.338385 A    
N10   H27   1.035547 S    
N15   H28   1.043623 S    
C24   H11   1.108095 S    
C22   N8    1.471932 S    
N8    H23   1.044590 S    
N12   O11   1.300539 A    
C17   N20   1.470831 S    
O1    C1    1.341734 A    
Cu1   N2    2.110959 S    
C21   N1    1.578003 S    
N7    H20   1.028952 S    
N14   O15   1.303054 A    
Cu2   O8    1.983479 S    
N17   O18   1.300561 A    
N3    H12   1.041349 S    
C22   N2    1.533551 S    
C23   H10   1.088042 S    
C25   N11   1.491880 S    
C3    C19   1.511942 S    
C5    N15   1.447496 S    
N13   O14   1.287514 A    
C21   C22   1.648882 S    
N14   O16   1.298229 A    
C9    C11   1.541118 S    
C13   C15   1.561228 S    
C6    C12   1.544796 S    
N19   H35   1.042841 S    
C16   H9    1.102071 S    
C23   C24   1.626032 S    
C25   C26   1.661879 S    
C13   N18   1.469085 S    
C5    C7    1.536932 S    
C10   H3    1.111142 S    
C24   N10   1.465588 S    
O1    Cu1   2.001858 S    
C4    C8    1.447399 S    
C17   C20   1.603920 S    
O2    Cu2   1.997677 S    
O8    C4    1.325323 A    
N13   O13   1.299494 A    
O6    C3    1.339118 A    
O4    Cu2   1.978673 S    
N18   H33   1.046304 S    
C13   C18   1.584746 S    
C13   H4    1.107538 S    
C16   C19   1.558235 S    
C17   N21   1.481574 S    
O2    C1    1.336115 A    
N10   H26   1.043511 S    
C15   H6    1.113228 S    
C6    C7    1.537089 S    
C14   C18   1.582826 S    
C2    C12   1.510316 S    
N17   O17   1.295178 A    
C7    C8    1.536189 S    
N5    H17   1.042821 S    
Cu2   N1    2.110196 S    
N6    H18   1.046262 S    
C20   N3    1.478604 S    
C1    C18   1.522973 S    
N9    H25   1.041340 S    
N8    H22   1.025830 S    
C11   N17   1.454535 S    
C11   C12   1.556850 S    
C26   N12   1.519073 S    
N16   H30   1.045696 S    
C24   N2    1.546364 S    
