data_mof_unit_61423.cif
_audit_creation_date              2012-12-10T18:22:11-0500
_audit_creation_method            fapswitch 2.2
_symmetry_space_group_name_H-M    P1
_symmetry_Int_Tables_number       1
_space_group_crystal_system       triclinic
_cell_length_a                    23.411397
_cell_length_b                    23.411396
_cell_length_c                    51.872499
_cell_angle_alpha                 90.0
_cell_angle_beta                  90.000061
_cell_angle_gamma                 89.999949
_cell_volume                      28430.9788086

loop_
_atom_site_label
_atom_site_type_symbol
_atom_type_description
_atom_site_fract_x
_atom_site_fract_y
_atom_site_fract_z
_atom_type_partial_charge
C1    C     C_R   0.000000 0.500000 0.179179 0.986842
C2    C     C_R   0.021400 0.452713 0.609182 0.411886
C3    C     C_1   0.687095 0.187095 0.250000 0.013438
C4    C     C_1   0.812908 0.687092 0.750000 0.023722
C5    C     C_1   0.187095 0.312905 0.250000 0.013439
C6    C     C_1   0.687091 0.187092 0.750000 0.023724
C7    C     C_1   0.312905 0.812905 0.250000 0.013439
C8    C     C_1   0.231307 0.731306 0.250000 0.029925
C9    C     C_1   0.768690 0.268690 0.750000 0.027189
C10   C     C_1   0.268693 0.231306 0.250000 0.029925
C11   C     C_1   0.731310 0.768690 0.750000 0.027189
C12   C     C_1   0.768693 0.268693 0.250000 0.029924
C13   C     C_R   0.547321 0.978630 0.390816 0.411834
C14   C     C_1   0.231310 0.731310 0.750000 0.027189
C15   C     C_1   0.731306 0.768693 0.250000 0.029921
C16   C     C_1   0.268690 0.231310 0.750000 0.027190
C17   C     C_1   0.231307 0.268693 0.750000 0.029927
C18   C     C_1   0.768690 0.731310 0.250000 0.027186
C19   C     C_1   0.268693 0.768693 0.750000 0.029926
C20   C     C_1   0.731310 0.231310 0.250000 0.027187
C21   C     C_1   0.768693 0.731306 0.750000 0.029926
C22   C     C_1   0.231310 0.268690 0.250000 0.027189
C23   C     C_1   0.731306 0.231306 0.750000 0.029927
C24   C     C_R   0.547278 0.021430 0.609184 0.411883
C25   C     C_1   0.268690 0.768690 0.250000 0.027188
C26   C     C_R   0.449015 0.999258 0.054459 0.555303
C27   C     C_R   0.550984 0.999255 0.945541 0.555303
C28   C     C_R   0.000743 0.449016 0.054459 0.555306
C29   C     C_R   0.000744 0.550984 0.945541 0.555311
C30   C     C_R   0.550984 0.000735 0.054459 0.555313
C31   C     C_R   0.449016 0.000743 0.945541 0.555309
C32   C     C_R   0.999262 0.550984 0.054459 0.555318
C33   C     C_R   0.999256 0.449016 0.945541 0.555308
C34   C     C_R   0.949016 0.499267 0.554459 0.555321
C35   C     C_R   0.021404 0.547291 0.390817 0.411878
C36   C     C_R   0.050984 0.499257 0.445541 0.555309
C37   C     C_R   0.500780 0.949014 0.554460 0.555309
C38   C     C_R   0.500721 0.050983 0.445542 0.555253
C39   C     C_R   0.050984 0.500745 0.554459 0.555295
C40   C     C_R   0.949016 0.500746 0.445541 0.555305
C41   C     C_R   0.499223 0.050981 0.554460 0.555310
C42   C     C_R   0.499317 0.949014 0.445542 0.555344
C43   C     C_R   0.552001 0.000262 0.027300 -0.054784
C44   C     C_R   0.447998 0.000270 0.972700 -0.054790
C45   C     C_R   0.999735 0.552002 0.027300 -0.054795
C46   C     C_R   0.978599 0.547296 0.609183 0.411874
C47   C     C_R   0.999730 0.447998 0.972700 -0.054800
C48   C     C_R   0.447998 0.999733 0.027300 -0.054797
C49   C     C_R   0.552001 0.999728 0.972700 -0.054795
C50   C     C_R   0.000268 0.447998 0.027300 -0.054807
C51   C     C_R   0.000270 0.552002 0.972700 -0.054798
C52   C     C_R   0.052001 0.500270 0.527300 -0.054806
C53   C     C_R   0.947998 0.500273 0.472700 -0.054793
C54   C     C_R   0.499698 0.051999 0.527301 -0.054785
C55   C     C_R   0.499786 0.947996 0.472701 -0.054708
C56   C     C_R   0.947998 0.499739 0.527300 -0.054779
C57   C     C_R   0.452709 0.021366 0.390821 0.411889
C58   C     C_R   0.052001 0.499732 0.472700 -0.054789
C59   C     C_R   0.500311 0.947996 0.527301 -0.054784
C60   C     C_R   0.500241 0.052000 0.472701 -0.054804
C61   C     C_R   0.500000 0.999998 0.013667 -0.012077
C62   C     C_R   0.500000 0.999998 0.986333 -0.012078
C63   C     C_R   0.000001 0.500000 0.013667 -0.012080
C64   C     C_R   0.000001 0.500000 0.986333 -0.012079
C65   C     C_R   1.000000 0.500004 0.513667 -0.012079
C66   C     C_R   1.000000 0.500003 0.486333 -0.012077
C67   C     C_R   0.500006 0.999998 0.513668 -0.012084
C68   C     C_R   0.452723 0.978566 0.609184 0.411881
C69   C     C_R   0.500011 0.999998 0.486334 -0.012064
C70   C     C_R   0.603670 0.000215 0.013479 -0.152150
C71   C     C_R   0.396330 0.000227 0.986521 -0.152151
C72   C     C_R   0.999782 0.603670 0.013479 -0.152151
C73   C     C_R   0.999774 0.396330 0.986521 -0.152153
C74   C     C_R   0.396330 0.999781 0.013479 -0.152151
C75   C     C_R   0.603670 0.999769 0.986521 -0.152152
C76   C     C_R   0.000221 0.396330 0.013479 -0.152152
C77   C     C_R   0.000227 0.603670 0.986521 -0.152152
C78   C     C_R   0.103670 0.500221 0.513479 -0.152154
C79   C     C_R   0.478596 0.952709 0.890817 0.411878
C80   C     C_R   0.896330 0.500231 0.486521 -0.152153
C81   C     C_R   0.499705 0.103667 0.513480 -0.152151
C82   C     C_R   0.499867 0.896328 0.486522 -0.152141
C83   C     C_R   0.896330 0.499786 0.513479 -0.152150
C84   C     C_R   0.103670 0.499774 0.486521 -0.152151
C85   C     C_R   0.500307 0.896328 0.513480 -0.152152
C86   C     C_R   0.500154 0.103668 0.486523 -0.152151
C87   C     C_3   0.000089 0.368283 0.410087 0.108875
C88   C     C_3   0.976616 0.321979 0.427914 -0.307142
C89   C     C_3   0.022831 0.279038 0.435306 -0.938970
C90   C     C_R   0.521399 0.952705 0.109183 0.411876
C91   C     C_3   0.999901 0.368288 0.589910 0.108856
C92   C     C_3   0.023359 0.322014 0.572064 -0.307161
C93   C     C_3   0.977143 0.279074 0.564671 -0.938973
C94   C     C_3   0.631743 0.000197 0.410070 0.108986
C95   C     C_3   0.678302 0.976680 0.427749 -0.306892
C96   C     C_3   0.721199 0.022940 0.435136 -0.939041
C97   C     C_3   0.631721 0.999985 0.589916 0.108873
C98   C     C_3   0.678023 0.023487 0.572097 -0.307126
C99   C     C_3   0.720994 0.977296 0.564708 -0.938966
C100  C     C_3   0.999910 0.631720 0.410085 0.108876
C101  C     C_R   0.047289 0.478595 0.890817 0.411883
C102  C     C_3   0.023385 0.678036 0.427905 -0.307122
C103  C     C_3   0.977169 0.720977 0.435296 -0.938986
C104  C     C_3   0.000103 0.631725 0.589917 0.108888
C105  C     C_3   0.976622 0.678070 0.572115 -0.307090
C106  C     C_3   0.022843 0.721006 0.564724 -0.938992
C107  C     C_3   0.368300 0.999806 0.410093 0.108863
C108  C     C_3   0.321993 0.023237 0.427928 -0.307148
C109  C     C_3   0.279084 0.976990 0.435319 -0.938965
C110  C     C_3   0.368280 0.000008 0.589916 0.108883
C111  C     C_3   0.321972 0.976501 0.572101 -0.307117
C112  C     C_R   0.000000 0.500000 0.820821 0.986847
C113  C     C_R   0.047293 0.521402 0.109183 0.411878
C114  C     C_3   0.279001 0.022690 0.564710 -0.938983
C115  C     C_3   0.500091 0.868281 0.910087 0.108877
C116  C     C_3   0.476616 0.821969 0.927908 -0.307127
C117  C     C_3   0.522833 0.779032 0.935303 -0.938974
C118  C     C_3   0.499895 0.868277 0.089916 0.108884
C119  C     C_3   0.523370 0.821944 0.072106 -0.307109
C120  C     C_3   0.477149 0.779007 0.064716 -0.938977
C121  C     C_3   0.131717 0.500085 0.910088 0.108865
C122  C     C_3   0.178004 0.476617 0.927925 -0.307151
C123  C     C_3   0.220947 0.522830 0.935317 -0.938969
C124  C     C_R   0.521404 0.047289 0.890817 0.411883
C125  C     C_3   0.131720 0.499904 0.089913 0.108872
C126  C     C_3   0.178022 0.523373 0.072085 -0.307138
C127  C     C_3   0.220962 0.477155 0.064694 -0.938971
C128  C     C_3   0.499910 0.131718 0.910087 0.108869
C129  C     C_3   0.523381 0.178016 0.927917 -0.307141
C130  C     C_3   0.477166 0.220959 0.935308 -0.938970
C131  C     C_3   0.500103 0.131715 0.089912 0.108868
C132  C     C_3   0.476637 0.178016 0.072082 -0.307143
C133  C     C_3   0.522857 0.220951 0.064689 -0.938970
C134  C     C_3   0.868282 0.499913 0.910088 0.108868
C135  C     C_R   0.478600 0.047290 0.109182 0.411881
C136  C     C_3   0.821990 0.523382 0.927921 -0.307146
C137  C     C_3   0.779047 0.477168 0.935313 -0.938971
C138  C     C_3   0.868284 0.500095 0.089911 0.108856
C139  C     C_3   0.822014 0.476638 0.072063 -0.307173
C140  C     C_3   0.779073 0.522854 0.064671 -0.938966
C141  C     C_R   0.952710 0.521405 0.890817 0.411884
C142  C     C_R   0.952711 0.478598 0.109182 0.411887
C143  C     C_R   0.976838 0.453363 0.363681 0.237024
C144  C     C_R   0.023158 0.453362 0.636319 0.237026
C145  C     C_R   0.546661 0.976867 0.363680 0.237025
C146  C     C_R   0.546625 0.023187 0.636320 0.237011
C147  C     C_R   0.023162 0.546638 0.363680 0.237023
C148  C     C_R   0.500000 1.000000 0.179179 0.986841
C149  C     C_R   0.976840 0.546642 0.636320 0.237023
C150  C     C_R   0.453352 0.023125 0.363684 0.237029
C151  C     C_R   0.453375 0.976810 0.636320 0.237011
C152  C     C_R   0.476838 0.953361 0.863680 0.237028
C153  C     C_R   0.523158 0.953359 0.136320 0.237023
C154  C     C_R   0.046638 0.476837 0.863681 0.237026
C155  C     C_R   0.046640 0.523160 0.136320 0.237026
C156  C     C_R   0.523162 0.046638 0.863681 0.237024
C157  C     C_R   0.476843 0.046639 0.136319 0.237027
C158  C     C_R   0.953362 0.523163 0.863680 0.237024
C159  C     C_R   0.500000 1.000000 0.820821 0.986844
C160  C     C_R   0.953361 0.476841 0.136319 0.237025
C161  C     C_R   0.000000 0.500000 0.349678 -0.359475
C162  C     C_R   0.999999 0.500001 0.650322 -0.359476
C163  C     C_R   0.500003 0.999996 0.349678 -0.359495
C164  C     C_R   0.500000 0.999999 0.650323 -0.359455
C165  C     C_R   0.500000 1.000000 0.849678 -0.359476
C166  C     C_R   0.500000 0.999999 0.150322 -0.359478
C167  C     C_R   0.000000 0.500000 0.849678 -0.359474
C168  C     C_R   0.000000 0.500000 0.150322 -0.359475
C169  C     C_R   1.000000 0.500001 0.404500 -0.035902
C170  C     C_R   0.500000 1.000000 0.679179 0.986890
C171  C     C_R   0.000000 0.500005 0.595500 -0.035904
C172  C     C_R   0.500019 0.999999 0.404502 -0.035906
C173  C     C_R   0.500000 0.999998 0.595501 -0.035889
C174  C     C_R   0.500000 0.999999 0.904500 -0.035905
C175  C     C_R   0.499999 0.999997 0.095500 -0.035905
C176  C     C_R   1.000000 0.500000 0.904500 -0.035908
C177  C     C_R   0.000002 0.500000 0.095500 -0.035906
C178  C     C_R   0.895274 0.604726 0.250000 0.812826
C179  C     C_R   0.104725 0.395274 0.750000 0.828081
C180  C     C_R   0.395274 0.895274 0.250000 0.812822
C181  C     C_R   0.500000 0.999999 0.320822 0.986791
C182  C     C_R   0.604725 0.104725 0.750000 0.828091
C183  C     C_R   0.104726 0.395274 0.250000 0.812826
C184  C     C_R   0.895274 0.604725 0.750000 0.828082
C185  C     C_R   0.604726 0.104726 0.250000 0.812821
C186  C     C_R   0.395274 0.895275 0.750000 0.828093
C187  C     C_R   0.895274 0.395274 0.750000 0.812827
C188  C     C_R   0.104725 0.604725 0.250000 0.828081
C189  C     C_R   0.395274 0.104726 0.750000 0.812830
C190  C     C_R   0.604725 0.895274 0.250000 0.828071
C191  C     C_R   0.104726 0.604726 0.750000 0.812826
C192  C     C_R   1.000000 0.500000 0.679179 0.986841
C193  C     C_R   0.895275 0.395274 0.250000 0.828081
C194  C     C_R   0.604726 0.895274 0.750000 0.812829
C195  C     C_R   0.395274 0.104725 0.250000 0.828065
C196  C     C_1   0.149707 0.649708 0.250000 -0.127583
C197  C     C_1   0.850290 0.350290 0.750000 -0.146562
C198  C     C_1   0.350292 0.149707 0.250000 -0.127589
C199  C     C_1   0.649710 0.850290 0.750000 -0.146564
C200  C     C_1   0.850292 0.350292 0.250000 -0.127583
C201  C     C_1   0.149710 0.649710 0.750000 -0.146563
C202  C     C_1   0.649707 0.850292 0.250000 -0.127588
C203  C     C_R   0.000000 0.500000 0.320821 0.986845
C204  C     C_1   0.350290 0.149710 0.750000 -0.146564
C205  C     C_1   0.149708 0.350292 0.750000 -0.127582
C206  C     C_1   0.850290 0.649710 0.250000 -0.146564
C207  C     C_1   0.350292 0.850292 0.750000 -0.127579
C208  C     C_1   0.649710 0.149710 0.250000 -0.146564
C209  C     C_1   0.850292 0.649707 0.750000 -0.127582
C210  C     C_1   0.149710 0.350290 0.250000 -0.146563
C211  C     C_1   0.649707 0.149708 0.750000 -0.127579
C212  C     C_1   0.350290 0.850290 0.250000 -0.146561
C213  C     C_1   0.187092 0.687092 0.250000 0.023721
C214  C     C_R   0.978595 0.452711 0.390817 0.411880
C215  C     C_1   0.812905 0.312905 0.750000 0.013440
C216  C     C_1   0.312908 0.187092 0.250000 0.023718
C217  C     C_1   0.687095 0.812905 0.750000 0.013440
C218  C     C_1   0.812908 0.312908 0.250000 0.023721
C219  C     C_1   0.187095 0.687095 0.750000 0.013440
C220  C     C_1   0.687092 0.812908 0.250000 0.023716
C221  C     C_1   0.312905 0.187095 0.750000 0.013440
C222  C     C_1   0.187092 0.312908 0.750000 0.023723
C223  C     C_1   0.812905 0.687095 0.250000 0.013437
C224  C     C_1   0.312908 0.812908 0.750000 0.023724
Cl1   Cl    Cl    0.943137 0.395366 0.348042 -0.533308
Cl2   Cl    Cl    0.556854 0.895360 0.151959 -0.533299
Cl3   Cl    Cl    0.104633 0.443136 0.848041 -0.533302
Cl4   Cl    Cl    0.104637 0.556858 0.151959 -0.533299
Cl5   Cl    Cl    0.556862 0.104634 0.848041 -0.533303
Cl6   Cl    Cl    0.443148 0.104640 0.151958 -0.533297
Cl7   Cl    Cl    0.895367 0.556864 0.848041 -0.533302
Cl8   Cl    Cl    0.895363 0.443143 0.151958 -0.533300
Cl9   Cl    Cl    0.056853 0.395361 0.651957 -0.533299
Cl10  Cl    Cl    0.604677 0.943203 0.348039 -0.533282
Cl11  Cl    Cl    0.604601 0.056921 0.651961 -0.533334
Cl12  Cl    Cl    0.056863 0.604634 0.348041 -0.533308
Cl13  Cl    Cl    0.943144 0.604639 0.651960 -0.533300
Cl14  Cl    Cl    0.395326 0.056782 0.348048 -0.533275
Cl15  Cl    Cl    0.395399 0.943078 0.651961 -0.533334
Cl16  Cl    Cl    0.443138 0.895365 0.848041 -0.533300
H1    H     H_    0.644323 0.000374 0.023440 0.195619
H2    H     H_    0.855676 0.500394 0.476560 0.195619
H3    H     H_    0.199165 0.441796 0.054337 0.270043
H4    H     H_    0.463822 0.110034 0.920129 0.139393
H5    H     H_    0.483657 0.152094 0.892119 0.175546
H6    H     H_    0.540467 0.157822 0.945722 0.229816
H7    H     H_    0.558871 0.200851 0.918094 0.250665
H8    H     H_    0.459962 0.242247 0.917814 0.275104
H9    H     H_    0.495638 0.254023 0.948192 0.271522
H10   H     H_    0.441804 0.199164 0.945663 0.270043
H11   H     H_    0.536189 0.110027 0.079869 0.139392
H12   H     H_    0.516360 0.152090 0.107879 0.175544
H13   H     H_    0.499511 0.144321 0.523442 0.195621
H14   H     H_    0.459546 0.157822 0.054277 0.229819
H15   H     H_    0.441151 0.200856 0.081905 0.250664
H16   H     H_    0.540067 0.242236 0.082182 0.275103
H17   H     H_    0.504388 0.254018 0.051805 0.271523
H18   H     H_    0.558214 0.199150 0.054332 0.270045
H19   H     H_    0.889966 0.463821 0.920127 0.139391
H20   H     H_    0.847900 0.483664 0.892120 0.175552
H21   H     H_    0.842191 0.540463 0.945726 0.229815
H22   H     H_    0.799154 0.558876 0.918101 0.250664
H23   H     H_    0.757753 0.459969 0.917820 0.275103
H24   H     H_    0.499738 0.855674 0.476561 0.195612
H25   H     H_    0.745988 0.495639 0.948200 0.271521
H26   H     H_    0.800843 0.441803 0.945665 0.270044
H27   H     H_    0.889974 0.536200 0.079883 0.139385
H28   H     H_    0.847881 0.516324 0.107877 0.175585
H29   H     H_    0.842237 0.459579 0.054258 0.229805
H30   H     H_    0.799173 0.441130 0.081870 0.250661
H31   H     H_    0.757755 0.540029 0.082163 0.275100
H32   H     H_    0.746032 0.504393 0.051772 0.271520
H33   H     H_    0.800875 0.558235 0.054332 0.270049
H34   H     H_    0.855676 0.499627 0.523440 0.195618
H35   H     H_    0.144323 0.499610 0.476560 0.195619
H36   H     H_    0.500498 0.855674 0.523441 0.195618
H37   H     H_    0.500286 0.144322 0.476561 0.195623
H38   H     H_    0.036174 0.389966 0.420132 0.139394
H39   H     H_    0.016347 0.347911 0.392119 0.175538
H40   H     H_    0.959524 0.342170 0.445719 0.229819
H41   H     H_    0.355676 0.000392 0.976559 0.195620
H42   H     H_    0.941129 0.299144 0.418088 0.250663
H43   H     H_    0.040043 0.257756 0.417813 0.275104
H44   H     H_    0.004357 0.245970 0.448187 0.271520
H45   H     H_    0.058188 0.300833 0.445665 0.270043
H46   H     H_    0.963800 0.389978 0.579880 0.139385
H47   H     H_    0.983667 0.347888 0.607876 0.175578
H48   H     H_    0.040424 0.342233 0.554260 0.229806
H49   H     H_    0.058863 0.299171 0.581873 0.250662
H50   H     H_    0.959961 0.257761 0.582163 0.275099
H51   H     H_    0.995605 0.246029 0.551774 0.271520
H52   H     H_    0.999621 0.644324 0.023440 0.195620
H53   H     H_    0.941766 0.300877 0.554330 0.270047
H54   H     H_    0.610073 0.036132 0.420227 0.139431
H55   H     H_    0.651887 0.016670 0.392088 0.175226
H56   H     H_    0.658353 0.959362 0.445565 0.229904
H57   H     H_    0.701125 0.941350 0.417803 0.250700
H58   H     H_    0.742227 0.040393 0.417629 0.275129
H59   H     H_    0.754470 0.004428 0.447899 0.271542
H60   H     H_    0.699425 0.058127 0.445621 0.270005
H61   H     H_    0.610063 0.963891 0.579867 0.139400
H62   H     H_    0.652091 0.983731 0.607886 0.175531
H63   H     H_    0.999610 0.355676 0.976560 0.195620
H64   H     H_    0.657834 0.040573 0.554290 0.229822
H65   H     H_    0.700832 0.058983 0.581927 0.250668
H66   H     H_    0.742274 0.960092 0.582203 0.275100
H67   H     H_    0.754060 0.995792 0.551832 0.271527
H68   H     H_    0.699224 0.941930 0.554344 0.270044
H69   H     H_    0.963830 0.610040 0.420135 0.139397
H70   H     H_    0.983642 0.652082 0.392116 0.175522
H71   H     H_    0.040488 0.657857 0.445711 0.229823
H72   H     H_    0.058866 0.700869 0.418074 0.250664
H73   H     H_    0.959948 0.742247 0.417802 0.275101
H74   H     H_    0.355676 0.999622 0.023440 0.195620
H75   H     H_    0.995646 0.754054 0.448172 0.271523
H76   H     H_    0.941819 0.699184 0.445661 0.270043
H77   H     H_    0.036165 0.610046 0.579854 0.139401
H78   H     H_    0.016394 0.652060 0.607888 0.175488
H79   H     H_    0.959495 0.657919 0.554307 0.229832
H80   H     H_    0.941159 0.700901 0.581959 0.250671
H81   H     H_    0.040091 0.742248 0.582220 0.275106
H82   H     H_    0.004363 0.754107 0.551862 0.271526
H83   H     H_    0.058175 0.699217 0.554346 0.270036
H84   H     H_    0.390014 0.963730 0.420131 0.139380
H85   H     H_    0.644323 0.999605 0.976560 0.195620
H86   H     H_    0.347928 0.983543 0.392126 0.175556
H87   H     H_    0.342183 0.040329 0.445734 0.229807
H88   H     H_    0.299130 0.058717 0.418111 0.250667
H89   H     H_    0.257797 0.959783 0.417826 0.275104
H90   H     H_    0.246016 0.995432 0.448209 0.271520
H91   H     H_    0.300908 0.941635 0.445668 0.270044
H92   H     H_    0.389937 0.036097 0.579862 0.139399
H93   H     H_    0.347915 0.016269 0.607885 0.175521
H94   H     H_    0.342155 0.959406 0.554294 0.229824
H95   H     H_    0.299163 0.941010 0.581935 0.250669
H96   H     H_    0.000381 0.355676 0.023440 0.195621
H97   H     H_    0.257726 0.039903 0.582205 0.275106
H98   H     H_    0.245930 0.004191 0.551837 0.271523
H99   H     H_    0.300769 0.058051 0.554342 0.270039
H100  H     H_    0.536170 0.889964 0.920136 0.139398
H101  H     H_    0.516358 0.847917 0.892118 0.175523
H102  H     H_    0.459511 0.842152 0.945713 0.229827
H103  H     H_    0.441138 0.799132 0.918077 0.250663
H104  H     H_    0.540059 0.757760 0.917810 0.275103
H105  H     H_    0.504357 0.745956 0.948179 0.271524
H106  H     H_    0.558180 0.800829 0.945668 0.270042
H107  H     H_    0.000391 0.644324 0.976560 0.195620
H108  H     H_    0.463825 0.889959 0.079859 0.139398
H109  H     H_    0.483613 0.847932 0.107886 0.175506
H110  H     H_    0.540485 0.842106 0.054298 0.229826
H111  H     H_    0.558841 0.799111 0.081944 0.250671
H112  H     H_    0.459915 0.757753 0.082212 0.275106
H113  H     H_    0.495625 0.745916 0.051847 0.271525
H114  H     H_    0.441808 0.800799 0.054345 0.270039
H115  H     H_    0.110033 0.536180 0.920125 0.139389
H116  H     H_    0.152105 0.516330 0.892121 0.175558
H117  H     H_    0.157798 0.459538 0.945729 0.229814
H118  H     H_    0.144323 0.500381 0.523440 0.195621
H119  H     H_    0.200841 0.441120 0.918107 0.250663
H120  H     H_    0.242247 0.540025 0.917825 0.275102
H121  H     H_    0.254002 0.504359 0.948207 0.271521
H122  H     H_    0.199150 0.558198 0.945668 0.270045
H123  H     H_    0.110035 0.463818 0.079870 0.139393
H124  H     H_    0.152094 0.483647 0.107882 0.175541
H125  H     H_    0.157831 0.540462 0.054280 0.229817
H126  H     H_    0.200859 0.558860 0.081909 0.250665
H127  H     H_    0.242247 0.459947 0.082187 0.275104
H128  H     H_    0.254029 0.495626 0.051811 0.271521
N1    N     N_R   0.500000 0.999996 0.067549 -0.315654
N2    N     N_R   0.500000 0.999999 0.932451 -0.315652
N3    N     N_R   0.000002 0.500000 0.067549 -0.315648
N4    N     N_R   1.000000 0.500000 0.932451 -0.315650
N5    N     N_R   1.000000 0.500006 0.567549 -0.315653
N6    N     N_R   1.000000 0.500002 0.432451 -0.315653
N7    N     N_R   0.500000 0.999997 0.567550 -0.315652
N8    N     N_R   0.500021 0.999999 0.432452 -0.315681
O1    O     O_3   0.000000 0.500000 0.250000 -0.468384
O2    O     O_R   0.044090 0.500000 0.807650 -0.599819
O3    O     O_R   0.500000 0.955910 0.192350 -0.599816
O4    O     O_R   0.500000 0.044090 0.807650 -0.599819
O5    O     O_R   0.544090 0.000000 0.692350 -0.599831
O6    O     O_R   0.455910 0.000000 0.307650 -0.599798
O7    O     O_R   0.000000 0.544090 0.692350 -0.599818
O8    O     O_R   0.000000 0.455910 0.307650 -0.599818
O9    O     O_R   0.455910 0.000000 0.692350 -0.599832
O10   O     O_R   0.544090 0.000000 0.307650 -0.599806
O11   O     O_R   0.000000 0.455910 0.692350 -0.599816
O12   O     O_3   0.000000 0.500000 0.750000 -0.468384
O13   O     O_R   1.000000 0.544090 0.307650 -0.599819
O14   O     O_R   0.893990 0.562090 0.235170 -0.621544
O15   O     O_R   0.106010 0.437910 0.764830 -0.609671
O16   O     O_R   0.437910 0.893990 0.235170 -0.621547
O17   O     O_R   0.562090 0.106010 0.764830 -0.609671
O18   O     O_R   0.106010 0.437910 0.235170 -0.621544
O19   O     O_R   0.893990 0.562090 0.764830 -0.609670
O20   O     O_R   0.562090 0.106010 0.235170 -0.621545
O21   O     O_R   0.437910 0.893990 0.764830 -0.609670
O22   O     O_R   0.893990 0.437910 0.764830 -0.621545
O23   O     O_3   0.500000 0.000000 0.250000 -0.468386
O24   O     O_R   0.106010 0.562090 0.235170 -0.609670
O25   O     O_R   0.437910 0.106010 0.764830 -0.621542
O26   O     O_R   0.562090 0.893990 0.235170 -0.609670
O27   O     O_R   0.106010 0.562090 0.764830 -0.621545
O28   O     O_R   0.893990 0.437910 0.235170 -0.609671
O29   O     O_R   0.562090 0.893990 0.764830 -0.621542
O30   O     O_R   0.437910 0.106010 0.235170 -0.609671
O31   O     O_R   0.393990 0.062090 0.735170 -0.621554
O32   O     O_R   0.606010 0.937910 0.264830 -0.609668
O33   O     O_R   0.937910 0.393990 0.735170 -0.621544
O34   O     O_3   0.500000 0.000000 0.750000 -0.468382
O35   O     O_R   0.062090 0.606010 0.264830 -0.609671
O36   O     O_R   0.606010 0.937910 0.735170 -0.621554
O37   O     O_R   0.393990 0.062090 0.264830 -0.609673
O38   O     O_R   0.062090 0.606010 0.735170 -0.621544
O39   O     O_R   0.937910 0.393990 0.264830 -0.609671
O40   O     O_R   0.393990 0.937910 0.264830 -0.621533
O41   O     O_R   0.606010 0.062090 0.735170 -0.609671
O42   O     O_R   0.937910 0.606010 0.264830 -0.621546
O43   O     O_R   0.062090 0.393990 0.735170 -0.609672
O44   O     O_R   0.606010 0.062090 0.264830 -0.621537
O45   O     O_R   0.044090 0.500000 0.192350 -0.599818
O46   O     O_R   0.393990 0.937910 0.735170 -0.609672
O47   O     O_R   0.062090 0.393990 0.264830 -0.621545
O48   O     O_R   0.937910 0.606010 0.735170 -0.609671
O49   O     O_2   0.399404 0.997544 0.067667 -0.528217
O50   O     O_2   0.600595 0.997536 0.932333 -0.528219
O51   O     O_2   0.002459 0.399405 0.067667 -0.528216
O52   O     O_2   0.002463 0.600595 0.932333 -0.528218
O53   O     O_2   0.600595 0.002448 0.067667 -0.528220
O54   O     O_2   0.399405 0.002463 0.932333 -0.528221
O55   O     O_2   0.997546 0.600596 0.067667 -0.528221
O56   O     O_R   0.955910 0.500000 0.807650 -0.599818
O57   O     O_2   0.997536 0.399405 0.932333 -0.528217
O58   O     O_2   0.899404 0.497553 0.567667 -0.528223
O59   O     O_2   0.100595 0.497538 0.432333 -0.528221
O60   O     O_2   0.502530 0.899404 0.567668 -0.528225
O61   O     O_2   0.502401 0.100596 0.432335 -0.528195
O62   O     O_2   0.100595 0.502460 0.567667 -0.528213
O63   O     O_2   0.899404 0.502465 0.432333 -0.528221
O64   O     O_2   0.497469 0.100591 0.567668 -0.528228
O65   O     O_2   0.497642 0.899401 0.432334 -0.528229
O66   O     O_3   0.955732 0.406980 0.404154 -0.561236
O67   O     O_R   0.500000 0.044090 0.192350 -0.599815
O68   O     O_3   0.044260 0.406981 0.595844 -0.561230
O69   O     O_3   0.593079 0.955805 0.404149 -0.561250
O70   O     O_3   0.592996 0.044319 0.595847 -0.561244
O71   O     O_3   0.044267 0.593023 0.404154 -0.561237
O72   O     O_3   0.955741 0.593031 0.595847 -0.561237
O73   O     O_3   0.406962 0.044193 0.404160 -0.561234
O74   O     O_3   0.407005 0.955675 0.595847 -0.561243
O75   O     O_3   0.455733 0.906977 0.904154 -0.561235
O76   O     O_3   0.544257 0.906970 0.095847 -0.561236
O77   O     O_3   0.093019 0.455730 0.904154 -0.561231
O78   O     O_R   0.500000 0.955910 0.807650 -0.599819
O79   O     O_3   0.093025 0.544263 0.095846 -0.561233
O80   O     O_3   0.544267 0.093020 0.904154 -0.561234
O81   O     O_3   0.455742 0.093023 0.095845 -0.561234
O82   O     O_3   0.906980 0.544269 0.904154 -0.561233
O83   O     O_3   0.906980 0.455737 0.095845 -0.561230
O84   O     O_R   0.955910 0.500000 0.192350 -0.599817
Zn1   Zn    Zn3+2 0.000000 0.563030 0.272130 1.040757
Zn2   Zn    Zn3+2 0.500000 0.936970 0.227870 1.040756
Zn3   Zn    Zn3+2 0.936970 0.500000 0.772130 1.040760
Zn4   Zn    Zn3+2 0.063030 0.500000 0.227870 1.040760
Zn5   Zn    Zn3+2 0.500000 0.936970 0.772130 1.040763
Zn6   Zn    Zn3+2 0.500000 0.063030 0.227870 1.040755
Zn7   Zn    Zn3+2 0.063030 0.500000 0.772130 1.040760
Zn8   Zn    Zn3+2 0.936970 0.500000 0.227870 1.040760
Zn9   Zn    Zn3+2 1.000000 0.436970 0.727870 1.040760
Zn10  Zn    Zn3+2 0.436970 0.000000 0.272130 1.040761
Zn11  Zn    Zn3+2 0.563030 0.000000 0.727870 1.040757
Zn12  Zn    Zn3+2 0.000000 0.436970 0.272130 1.040759
Zn13  Zn    Zn3+2 0.000000 0.563030 0.727870 1.040759
Zn14  Zn    Zn3+2 0.563030 0.000000 0.272130 1.040757
Zn15  Zn    Zn3+2 0.436970 0.000000 0.727870 1.040757
Zn16  Zn    Zn3+2 0.500000 0.063030 0.772130 1.040763

loop_
_geom_bond_atom_site_label_1
_geom_bond_atom_site_label_2
_ccdc_geom_bond_type
C113  C177  A    
C128  O80   S    
C179  O43   A    
C126  C127  S    
C28   N3    A    
C153  C166  A    
C200  C218  T    
C138  O83   S    
C91   H47   S    
C121  H115  S    
O26   Zn2   S    
C198  C216  T    
C162  C192  S    
C7    C212  T    
O20   Zn6   S    
C195  O30   A    
C34   C56   A    
C5    C210  T    
C139  H29   S    
C27   O50   S    
C43   C61   A    
O37   Zn10  S    
C144  Cl9   S    
C116  H103  S    
O56   Zn3   S    
C112  O56   A    
O29   Zn5   S    
C110  H93   S    
C34   O58   S    
C142  C177  A    
C108  C109  S    
C32   C45   A    
C86   H37   S    
C110  C111  S    
O6    Zn10  S    
C119  H110  S    
C37   N7    A    
C149  Cl13  S    
C99   H67   S    
C49   C62   A    
C83   H34   S    
C98   H64   S    
C105  H79   S    
C81   C86   A    
C132  H14   S    
C2    C171  A    
C195  C198  S    
C94   O69   S    
C106  H82   S    
C145  Cl10  S    
C122  H119  S    
C95   H57   S    
O47   Zn12  S    
C113  C155  A    
C80   C83   A    
O27   Zn7   S    
C14   C19   T    
C12   C218  S    
C104  C105  S    
C158  C167  A    
C214  O66   S    
C131  O81   S    
C2    O68   S    
C39   O62   S    
O14   Zn8   S    
C19   C224  S    
O1    Zn12  S    
C48   C74   A    
C90   O76   S    
C201  C219  T    
C203  O8    A    
C47   C64   A    
C60   C86   A    
C31   O54   S    
C94   H55   S    
C114  H99   S    
C40   N6    A    
C203  O13   A    
C150  C163  A    
C50   C76   A    
C42   C55   A    
C100  H70   S    
O67   Zn6   S    
C102  H72   S    
C12   C20   T    
O36   Zn11  S    
C188  O24   A    
C90   C153  A    
C194  O36   A    
C18   C223  S    
O23   Zn10  S    
C133  H18   S    
C75   H85   S    
C33   C47   A    
C154  C167  A    
O7    Zn13  S    
C56   C83   A    
C129  H7    S    
O44   Zn14  S    
O39   Zn12  S    
C191  O38   A    
C136  H21   S    
C120  H113  S    
C9    C23   T    
C51   C64   A    
C26   O49   S    
O34   Zn11  S    
C74   H74   S    
C88   H42   S    
C158  Cl7   S    
C110  O74   S    
C68   O74   S    
C139  C140  S    
O34   Zn5   S    
C82   C85   A    
C85   H36   S    
C38   N8    A    
C95   H56   S    
C34   N5    A    
C117  H106  S    
C68   C151  A    
O43   Zn9   S    
C16   C17   T    
C190  O32   A    
O38   Zn13  S    
C178  C206  S    
O17   Zn16  S    
C177  N3    S    
C160  C168  A    
C88   C89   S    
C98   C99   S    
C122  H117  S    
C149  C162  A    
C191  C201  S    
C81   H13   S    
C123  H121  S    
C179  O15   A    
C143  C161  A    
C54   C81   A    
C52   C65   A    
C15   C18   T    
O4    Zn16  S    
C135  C157  A    
C204  C221  T    
C163  C181  S    
C2    C144  A    
C28   O51   S    
C164  C170  S    
C13   C145  A    
C128  C129  S    
O33   Zn9   S    
C97   C98   S    
C184  C209  S    
C125  H124  S    
C41   N7    A    
C93   H50   S    
C128  H5    S    
C98   H65   S    
C100  O71   S    
C124  C174  A    
C138  H27   S    
O13   Zn1   S    
C115  C116  S    
C103  H75   S    
C116  H102  S    
O12   Zn13  S    
C202  C220  T    
C180  C212  S    
C184  O19   A    
C115  O75   S    
C92   C93   S    
C59   C67   A    
C126  H125  S    
C46   O72   S    
C108  H88   S    
C107  C108  S    
C160  Cl8   S    
C87   O66   S    
C124  O80   S    
C89   H45   S    
C147  Cl12  S    
C119  H111  S    
O41   Zn11  S    
C57   C150  A    
C193  O28   A    
C50   C63   A    
C111  H94   S    
O84   Zn8   S    
C143  Cl1   S    
C114  H97   S    
C131  H11   S    
C13   C172  A    
C32   N3    A    
C172  N8    S    
C27   N2    A    
C53   C80   A    
C127  H3    S    
C125  O79   S    
C91   C92   S    
C190  C202  S    
C6    C211  T    
C145  C163  A    
C112  C167  S    
C146  C164  A    
C11   C21   T    
C4    C209  T    
C159  C165  S    
O32   Zn14  S    
C87   H38   S    
C140  H33   S    
C59   C85   A    
C137  H26   S    
C176  N4    S    
C173  N7    S    
C93   H53   S    
C55   C69   A    
C118  H109  S    
C37   C59   A    
C38   C60   A    
O42   Zn1   S    
C82   H24   S    
O31   Zn15  S    
C109  H91   S    
C13   O69   S    
C129  C130  S    
C29   C51   A    
C130  H9    S    
C146  Cl11  S    
C89   H44   S    
C181  O10   A    
C136  C137  S    
C117  H104  S    
C68   C173  A    
C170  O9    A    
C30   O53   S    
C103  H73   S    
C140  H31   S    
C193  O39   A    
C192  O7    A    
C72   H52   S    
C39   N5    A    
O23   Zn14  S    
C10   C216  S    
C36   O59   S    
C101  C154  A    
C134  O82   S    
C61   C62   A    
O45   Zn4   S    
C26   N1    A    
C63   C64   A    
C46   C149  A    
C151  C164  A    
C70   C75   A    
C97   H62   S    
O1    Zn4   S    
O34   Zn15  S    
C27   C49   A    
C187  O22   A    
C57   O73   S    
C79   C152  A    
C87   C88   S    
C112  O2    A    
C106  H83   S    
C148  C166  S    
C79   C174  A    
C179  C205  S    
C120  H112  S    
C10   C22   T    
C183  C210  S    
C121  O77   S    
O30   Zn6   S    
C191  O27   A    
C97   O70   S    
C29   N4    A    
O28   Zn8   S    
C70   H1    S    
O23   Zn2   S    
C205  C222  T    
C107  O73   S    
C178  O14   A    
O78   Zn5   S    
C77   H107  S    
C33   N4    A    
C134  H19   S    
C73   H63   S    
C141  C176  A    
C1    O45   A    
C11   C217  S    
C26   C48   A    
C57   C172  A    
C142  O83   S    
C184  O48   A    
C133  H17   S    
C189  C204  S    
C8    C25   T    
C185  C208  S    
C16   C221  S    
C121  H116  S    
C52   C78   A    
C24   C173  A    
C109  H89   S    
C159  O4    A    
C129  H6    S    
C29   O52   S    
C139  H30   S    
C136  H22   S    
C71   H41   S    
C120  H114  S    
C153  Cl2   S    
C127  H128  S    
C47   C73   A    
C110  H92   S    
C8    C213  S    
C147  C161  A    
C142  C160  A    
C130  H8    S    
C24   O70   S    
C1    C168  S    
C1    O84   A    
C90   C175  A    
C9    C215  S    
C44   C71   A    
C107  H86   S    
C91   O68   S    
C51   C77   A    
C117  H105  S    
C111  H95   S    
C155  C168  A    
O40   Zn10  S    
C188  O35   A    
C3    C20   S    
C96   H58   S    
C88   H40   S    
C105  H80   S    
C121  C122  S    
C185  O44   A    
C137  H23   S    
C106  H81   S    
C182  O41   A    
C125  C126  S    
C35   C169  A    
C73   C76   A    
C101  O77   S    
C14   C219  S    
C174  N2    S    
C186  O21   A    
C131  C132  S    
C104  O72   S    
O21   Zn5   S    
C36   N6    A    
C190  O26   A    
O35   Zn1   S    
C180  O40   A    
C71   C74   A    
C119  C120  S    
C127  H127  S    
C125  H123  S    
C178  O42   A    
C193  C200  S    
C151  Cl15  S    
C105  C106  S    
C31   N2    A    
C7    C25   S    
C183  O47   A    
C104  H78   S    
C94   H54   S    
C24   C146  A    
O16   Zn2   S    
C100  H69   S    
O5    Zn11  S    
O25   Zn16  S    
C138  H28   S    
C156  C165  A    
C171  N5    S    
C102  H71   S    
C182  C211  S    
C80   H2    S    
C111  C114  S    
C187  O33   A    
C94   C95   S    
C182  O17   A    
C138  C139  S    
C33   O57   S    
C126  H126  S    
C141  C158  A    
C141  O82   S    
C115  H101  S    
C84   H35   S    
C175  N1    S    
C91   H46   S    
O46   Zn15  S    
C123  H120  S    
O15   Zn7   S    
C4    C21   S    
O11   Zn9   S    
C95   C96   S    
O1    Zn1   S    
C92   H48   S    
C114  H98   S    
C113  O79   S    
C46   C171  A    
C169  C214  A    
C186  C207  S    
C187  C197  S    
C3    C208  T    
C60   C69   A    
C42   O65   S    
C107  H84   S    
C36   C58   A    
C169  N6    S    
C181  O6    A    
C56   C65   A    
C116  C117  S    
C194  O29   A    
C96   H60   S    
O1    Zn8   S    
O10   Zn14  S    
C37   O60   S    
C118  C119  S    
C35   O71   S    
C17   C222  S    
C132  H15   S    
C137  H25   S    
C156  Cl5   S    
C58   C66   A    
C5    C22   S    
C76   H96   S    
C185  O20   A    
C132  C133  S    
C150  Cl14  S    
C92   H49   S    
O48   Zn13  S    
C123  H122  S    
C197  C215  T    
C192  O11   A    
C39   C52   A    
C96   H59   S    
C207  C224  T    
C195  O37   A    
C45   C72   A    
C189  O31   A    
C42   N8    A    
C102  C103  S    
O12   Zn7   S    
C28   C50   A    
C133  H16   S    
C109  H90   S    
C157  Cl6   S    
O23   Zn6   S    
C130  H10   S    
C152  C165  A    
C180  O16   A    
C155  Cl4   S    
C89   H43   S    
C31   C44   A    
C93   H51   S    
C99   H68   S    
O18   Zn4   S    
C148  O3    A    
C134  C136  S    
C54   C67   A    
C170  O5    A    
C44   C62   A    
C45   C63   A    
C103  H76   S    
C140  H32   S    
O3    Zn2   S    
C99   H66   S    
C67   C69   A    
C30   N1    A    
C135  C175  A    
C72   C77   A    
C58   C84   A    
C78   H118  S    
C194  C199  S    
C152  Cl16  S    
C206  C223  T    
C199  C217  T    
C108  H87   S    
C100  C102  S    
C135  O81   S    
C35   C147  A    
O22   Zn3   S    
C55   C82   A    
C53   C66   A    
C38   O61   S    
O19   Zn3   S    
O8    Zn12  S    
C143  C214  A    
C115  H100  S    
C40   C53   A    
C43   C70   A    
C124  C156  A    
C186  O46   A    
C97   H61   S    
O34   Zn16  S    
C79   O75   S    
C131  H12   S    
C104  H77   S    
C144  C162  A    
C161  C203  S    
C159  O78   A    
C148  O67   A    
C157  C166  A    
C87   H39   S    
C41   O64   S    
C118  O76   S    
C154  Cl3   S    
C40   O63   S    
C122  C123  S    
O9    Zn15  S    
C196  C213  T    
C48   C61   A    
C183  O18   A    
C128  H4    S    
C6    C23   S    
C118  H108  S    
C30   C43   A    
C32   O55   S    
C41   C54   A    
C78   C84   A    
C188  C196  S    
O12   Zn3   S    
C134  H20   S    
C65   C66   A    
C189  O25   A    
O2    Zn7   S    
C101  C176  A    
O12   Zn9   S    
O24   Zn4   S    
C15   C220  S    
C49   C75   A    
