data_mof_unit_56082.cif
_audit_creation_date              2013-03-05T16:10:28-0500
_audit_creation_method            fapswitch 2.2
_symmetry_space_group_name_H-M    P1
_symmetry_Int_Tables_number       1
_space_group_crystal_system       triclinic
_cell_length_a                    10.892058
_cell_length_b                    9.979162
_cell_length_c                    14.959439
_cell_angle_alpha                 88.488235
_cell_angle_beta                  92.383267
_cell_angle_gamma                 87.521733
_cell_volume                      1622.42258452

loop_
_atom_site_label
_atom_site_type_symbol
_atom_site_description
_atom_site_fract_x
_atom_site_fract_y
_atom_site_fract_z
_atom_type_partial_charge
O1    O     O_R   0.316770 0.614620 0.499990 -0.574742
O2    O     O_R   0.683230 0.385380 0.500010 -0.579325
O3    O     O_R   0.683230 0.614620 0.500010 -0.572104
O4    O     O_R   0.316770 0.385380 0.499990 -0.573419
C1    C     C_R   0.260173 0.502400 0.501300 1.058477
C2    C     C_R   0.739764 0.497444 0.498499 1.043770
O5    O     O_R   0.499980 0.614680 0.367850 -0.599436
O6    O     O_R   0.500020 0.385320 0.632150 -0.599751
O7    O     O_R   0.500020 0.614680 0.632150 -0.631132
O8    O     O_R   0.499980 0.385320 0.367850 -0.647179
C3    C     C_R   0.502396 0.500342 0.327056 0.970446
C4    C     C_R   0.500821 0.498662 0.672765 0.987653
Zn1   Zn    Zn3+2 0.500000 0.653120 0.500000 1.106760
Zn2   Zn    Zn3+2 0.500000 0.346880 0.500000 1.105398
C5    C     C_R   0.608778 0.454245 0.817393 0.248231
C6    C     C_R   0.398724 0.534698 0.179578 0.203180
C7    C     C_R   0.500144 0.493946 0.768718 -0.218777
C8    C     C_R   0.505156 0.494895 0.230599 -0.215441
C9    C     C_R   0.390577 0.525383 0.811041 -0.084919
C10   C     C_R   0.601452 0.420132 0.192150 -0.095825
C11   C     C_R   0.384624 0.496896 0.903311 0.014724
C12   C     C_R   0.604640 0.414708 0.097666 -0.002703
C13   C     C_R   0.494418 0.456234 0.952935 0.059686
C14   C     C_R   0.496339 0.456128 0.046637 0.059529
C15   C     C_R   0.603454 0.422665 0.909167 -0.049188
C16   C     C_R   0.389282 0.499970 0.089240 -0.034969
C17   C     C_R   0.271638 0.501928 0.947335 -0.121479
C18   C     C_R   0.709511 0.365567 0.052532 -0.087289
C19   C     C_R   0.274653 0.501616 0.041396 -0.105802
C20   C     C_R   0.705704 0.362117 0.958501 -0.100940
C21   C     C_R   0.071284 0.390464 0.538951 0.216085
C22   C     C_R   0.928583 0.607602 0.459873 0.226059
C23   C     C_R   0.944385 0.383253 0.531771 0.187021
C24   C     C_R   0.055383 0.615517 0.467844 0.201074
C25   C     C_R   0.872562 0.493647 0.494626 -0.339953
C26   C     C_R   0.127338 0.505506 0.505370 -0.301463
C27   C     C_R   0.541619 0.066126 0.573632 -0.024483
C28   C     C_R   0.458761 0.934203 0.426450 -0.024250
C29   C     C_R   0.453564 0.077047 0.427613 -0.005997
C30   C     C_R   0.545695 0.923178 0.572628 -0.011009
N1    N     N_R   0.500000 0.857200 0.500000 -0.159266
N2    N     N_R   0.500000 0.142800 0.500000 -0.157341
N3    N     N_R   0.725789 0.476753 0.779144 0.188749
O9    O     O_R   0.750432 0.435226 0.700083 -0.376346
O10   O     O_R   0.803677 0.551657 0.820347 -0.335697
N4    N     N_R   0.299408 0.607760 0.219561 0.209367
O11   O     O_R   0.248784 0.558229 0.289677 -0.363810
O12   O     O_R   0.248321 0.713877 0.178451 -0.284722
C31   C     C_2   0.292452 0.610842 0.762678 0.964491
O13   O     O_2   0.245521 0.575181 0.692249 -0.615570
O14   O     O_R   0.253320 0.732195 0.799113 -0.715959
H1    H     H_    0.185991 0.781449 0.760731 0.388215
C32   C     C_2   0.689079 0.337585 0.251823 0.970575
O15   O     O_2   0.690079 0.215165 0.249078 -0.512791
O16   O     O_R   0.770976 0.399807 0.309757 -0.765893
H2    H     H_    0.829731 0.332713 0.343228 0.363641
C33   C     C_2   0.153204 0.487141 0.896026 0.965444
O17   O     O_2   0.066977 0.567830 0.904068 -0.478330
O18   O     O_R   0.143007 0.383460 0.835472 -0.709100
H3    H     H_    0.060887 0.387486 0.800790 0.404879
C34   C     C_2   0.827994 0.330487 0.100906 0.964091
O19   O     O_2   0.880817 0.417312 0.141253 -0.548551
O20   O     O_R   0.877824 0.198944 0.101280 -0.712840
H4    H     H_    0.958415 0.187642 0.137592 0.379147
C35   C     C_2   0.162891 0.475147 0.090948 1.042204
O21   O     O_2   0.071773 0.550759 0.081811 -0.443986
O22   O     O_R   0.167051 0.367859 0.153291 -0.786467
H5    H     H_    0.094113 0.368534 0.192950 0.392266
C36   C     C_2   0.804200 0.286366 0.912010 1.048031
O23   O     O_2   0.912548 0.307416 0.927876 -0.562592
O24   O     O_R   0.771761 0.191109 0.849523 -0.747531
H6    H     H_    0.846045 0.145689 0.822575 0.402678
N5    N     N_R   0.142606 0.279129 0.580486 0.262547
O25   O     O_R   0.209452 0.295529 0.653143 -0.292899
O26   O     O_R   0.139661 0.160765 0.546156 -0.253687
N6    N     N_R   0.857219 0.715562 0.414477 0.268671
O27   O     O_R   0.792676 0.693448 0.341615 -0.271323
O28   O     O_R   0.858093 0.836343 0.445196 -0.239567
N7    N     N_R   0.890428 0.263853 0.564562 0.284763
O29   O     O_R   0.847547 0.179612 0.507437 -0.290315
O30   O     O_R   0.916717 0.221737 0.646503 -0.260354
N8    N     N_R   0.109385 0.734152 0.434032 0.271779
O31   O     O_R   0.151036 0.820173 0.490399 -0.278909
O32   O     O_R   0.084517 0.773608 0.351387 -0.193816
C37   C     C_2   0.577670 0.130361 0.656927 1.003995
O33   O     O_2   0.677778 0.179319 0.664769 -0.502293
O34   O     O_R   0.498208 0.130663 0.727957 -0.710141
H7    H     H_    0.533304 0.176190 0.782488 0.367745
C38   C     C_2   0.422263 0.870670 0.343498 1.007379
O35   O     O_2   0.317926 0.833535 0.333137 -0.492996
O36   O     O_R   0.505091 0.861299 0.274749 -0.691618
H8    H     H_    0.468336 0.820598 0.218965 0.368931
C39   C     C_2   0.387782 0.153007 0.352734 0.985733
O37   O     O_2   0.291820 0.216039 0.365590 -0.541212
O38   O     O_R   0.432583 0.147943 0.266622 -0.743681
H9    H     H_    0.379262 0.203436 0.221062 0.369831
C40   C     C_2   0.611352 0.847476 0.647338 0.977088
O39   O     O_2   0.567587 0.843873 0.721303 -0.561062
O40   O     O_R   0.726502 0.786049 0.634172 -0.722540
H10   H     H_    0.764525 0.740764 0.690702 0.384446

loop_
_geom_bond_atom_site_label_1
_geom_bond_atom_site_label_2
_geom_bond_distance
_ccdc_geom_bond_type
O34   H7    1.013224 S    
C3    C8    1.446901 S    
C39   O37   1.221216 D    
C17   C19   1.406038 A    
N5    O25   1.300830 A    
O38   H9    1.013824 S    
O16   H2    1.013485 S    
O3    C2    1.298953 A    
Zn1   N1    2.036547 S    
C40   O39   1.223132 D    
C32   O15   1.223014 D    
O5    C3    1.307851 A    
C28   C38   1.456755 S    
O1    C1    1.301551 A    
C27   C37   1.463193 S    
C9    C11   1.406633 A    
C14   C16   1.410569 A    
C27   C30   1.425767 A    
C28   C29   1.424736 A    
C21   N5    1.439691 S    
C1    C26   1.449679 S    
C2    C25   1.448909 S    
C34   O20   1.398399 S    
C27   N2    1.374127 A    
C36   O24   1.396675 S    
O7    Zn1   2.003791 S    
C29   C39   1.477885 S    
C23   C25   1.411168 A    
C31   O14   1.398137 S    
C4    C7    1.435266 S    
C13   C14   1.400981 A    
C21   C23   1.387025 A    
C38   O36   1.398328 S    
C8    C10   1.411634 A    
C34   O19   1.219783 D    
O3    Zn1   2.016009 S    
Zn2   N2    2.036547 S    
C18   C34   1.477003 S    
C37   O34   1.398069 S    
C11   C17   1.419342 A    
O18   H3    1.013922 S    
C39   O38   1.397740 S    
C12   C18   1.426279 A    
N5    O26   1.301482 A    
O2    C2    1.299869 A    
C40   O40   1.395719 S    
C29   N2    1.370996 A    
C32   O16   1.394405 S    
C6    C16   1.404706 A    
N4    O12   1.302081 A    
O20   H4    1.013349 S    
O22   H5    1.010996 S    
C22   C25   1.411026 A    
N6    O27   1.301287 A    
C28   N1    1.373775 A    
C17   C33   1.488309 S    
C6    N4    1.438103 S    
O36   H8    1.012803 S    
N7    O30   1.301696 A    
C23   N7    1.435064 S    
C35   O22   1.399185 S    
C37   O33   1.216490 D    
O14   H1    1.013894 S    
C22   C24   1.387143 A    
N3    O9    1.298160 A    
C9    C31   1.489059 S    
O40   H10   1.012621 S    
O6    C4    1.298150 A    
N3    O10   1.301550 A    
C19   C35   1.481102 S    
C30   N1    1.372142 A    
C10   C12   1.417701 A    
N8    O31   1.301458 A    
N8    O32   1.301591 A    
C11   C13   1.419220 A    
O8    Zn2   2.003793 S    
C12   C14   1.418232 A    
C33   O18   1.398009 S    
O1    Zn1   2.048640 S    
C30   C40   1.474264 S    
C20   C36   1.491892 S    
C15   C20   1.414212 A    
C5    C7    1.399941 A    
N4    O11   1.301102 A    
O6    Zn2   2.023665 S    
N6    O28   1.301485 A    
C10   C32   1.486179 S    
C22   N6    1.439141 S    
C18   C20   1.406920 A    
C5    N3    1.442493 S    
O24   H6    1.013724 S    
C35   O21   1.221275 D    
C33   O17   1.222303 D    
O4    C1    1.297700 A    
C7    C9    1.401586 A    
C24   C26   1.411048 A    
C13   C15   1.411804 A    
O4    Zn2   2.016011 S    
C36   O23   1.222279 D    
O2    Zn2   2.048638 S    
O7    C4    1.292758 A    
C5    C15   1.404587 A    
O8    C3    1.287474 A    
N7    O29   1.301457 A    
O5    Zn1   2.023667 S    
C16   C19   1.412332 A    
C6    C8    1.398140 A    
C31   O13   1.220129 D    
C21   C26   1.413784 A    
C24   N8    1.434131 S    
C38   O35   1.215586 D    
