data_mof_unit_10056.cif
_audit_creation_date              2012-12-10T17:45:32-0500
_audit_creation_method            fapswitch 2.2
_symmetry_space_group_name_H-M    P1
_symmetry_Int_Tables_number       1
_space_group_crystal_system       triclinic
_cell_length_a                    11.548207
_cell_length_b                    10.730002
_cell_length_c                    9.894869
_cell_angle_alpha                 89.634153
_cell_angle_beta                  89.970211
_cell_angle_gamma                 91.623118
_cell_volume                      1225.57858469

loop_
_atom_site_label
_atom_site_type_symbol
_atom_type_description
_atom_site_fract_x
_atom_site_fract_y
_atom_site_fract_z
_atom_type_partial_charge
C1    C     C_R   0.507647 0.259995 0.501478 0.860114
C2    C     C_R   0.503917 0.048882 0.878185 -0.145393
C3    C     C_R   0.442065 0.936169 0.872446 -0.153850
C4    C     C_R   0.422908 0.879360 0.747917 -0.156981
C5    C     C_R   0.465859 0.935500 0.627033 0.094848
C6    C     C_R   0.505933 0.059436 0.630917 0.088155
C7    C     C_R   0.512928 0.126140 0.506286 -0.119064
C8    C     C_R   0.505497 0.063688 0.382932 -0.222890
C9    C     C_R   0.490612 0.936814 0.381339 -0.218899
C10   C     C_R   0.474261 0.871716 0.502657 -0.126073
C11   C     C_R   0.350671 0.333952 0.140885 -0.227444
C12   C     C_R   0.281954 0.499442 0.500050 0.883664
C13   C     C_R   0.278586 0.250393 0.071509 -0.204028
C14   C     C_R   0.277754 0.249459 0.930338 0.196628
C15   C     C_R   0.350353 0.334487 0.860964 -0.236757
C16   C     C_R   0.426406 0.418131 0.928330 0.134067
C17   C     C_R   0.426536 0.418016 0.072766 0.171753
C18   C     C_R   0.569905 0.578880 0.070964 -0.122370
C19   C     C_R   0.569891 0.578835 0.927718 -0.115230
C20   C     C_R   0.488475 0.739036 0.500279 0.881435
C21   C     C_R   0.718050 0.500243 0.499976 0.913270
C22   C     C_1   0.161501 0.499013 0.500162 -0.194844
C23   C     C_1   0.059336 0.498901 0.500174 -0.004544
C24   C     C_1   0.940677 0.499185 0.500073 -0.001555
C25   C     C_1   0.838516 0.499666 0.499973 -0.194478
C26   C     C_R   0.536172 0.110313 0.758764 -0.167578
H1    H     H_    0.512370 0.112510 0.286899 0.172537
H2    H     H_    0.345310 0.331732 0.753822 0.210535
H3    H     H_    0.626856 0.643284 0.873282 0.154909
H4    H     H_    0.587515 0.195362 0.769049 0.172891
H5    H     H_    0.524473 0.090363 0.975031 0.140635
H6    H     H_    0.411779 0.891050 0.964567 0.137253
H7    H     H_    0.373529 0.792209 0.747386 0.164726
H8    H     H_    0.493687 0.889801 0.284834 0.168757
H9    H     H_    0.626932 0.643311 0.124373 0.147590
H10   H     H_    0.343717 0.330039 0.247990 0.217695
H11   H     H_    0.223066 0.187729 0.130024 0.163445
N1    N     N_R   0.498930 0.498800 0.142780 -0.114653
N2    N     N_R   0.498900 0.498720 0.857170 -0.117998
O1    O     O_R   0.500000 0.316780 0.614690 -0.652653
O2    O     O_R   0.499990 0.316750 0.385360 -0.637938
O3    O     O_R   0.334450 0.500030 0.614670 -0.635406
O4    O     O_R   0.334440 0.500000 0.385330 -0.625878
O5    O     O_R   0.500010 0.683250 0.614640 -0.624489
O6    O     O_R   0.500000 0.683220 0.385310 -0.619408
O7    O     O_R   0.665560 0.500000 0.614670 -0.610168
O8    O     O_R   0.665550 0.499970 0.385330 -0.606365
Zn1   Zn    Zn3+2 0.500010 0.500020 0.653130 0.924118
Zn2   Zn    Zn3+2 0.499990 0.499980 0.346870 0.936158
C27   C     C_3   0.201215 0.161341 0.847750 -0.395630
C28   C     C_3   0.133907 0.061295 0.928596 -0.873015
H12   H     H_    0.194241 0.003745 0.988144 0.258009
H13   H     H_    0.070421 0.104753 0.996811 0.257099
H14   H     H_    0.085415 0.999085 0.857946 0.253209
H15   H     H_    0.138508 0.217184 0.789578 0.204335
H16   H     H_    0.256392 0.113113 0.773541 0.217746

loop_
_geom_bond_atom_site_label_1
_geom_bond_atom_site_label_2
_ccdc_geom_bond_type
C23   C24   S    
C6    C7    A    
C18   H9    S    
N2    Zn1   S    
C13   H11   S    
C27   H15   S    
C14   C15   A    
O6    Zn2   S    
C28   H14   S    
C2    C3    A    
C18   N1    A    
C7    C8    A    
C2    C26   A    
N1    Zn2   S    
O3    Zn1   S    
C13   C14   A    
C11   C13   A    
C15   H2    S    
C6    C26   A    
C19   N2    A    
C5    C6    A    
C1    O2    A    
C11   H10   S    
C20   O5    A    
C9    H8    S    
C26   H4    S    
C12   O4    A    
C21   O8    A    
C17   N1    A    
C2    H5    S    
C3    H6    S    
O7    Zn1   S    
C16   C17   A    
C14   C27   S    
C16   N2    A    
O4    Zn2   S    
C15   C16   A    
C19   H3    S    
C12   C22   S    
C5    C10   A    
C28   H12   S    
C24   C25   T    
O8    Zn2   S    
C21   O7    A    
C9    C10   A    
C20   O6    A    
O2    Zn2   S    
O1    Zn1   S    
C18   C19   A    
C21   C25   S    
C4    H7    S    
C4    C5    A    
C12   O3    A    
C1    O1    A    
C27   C28   S    
C8    H1    S    
C1    C7    S    
C22   C23   T    
C27   H16   S    
C3    C4    A    
O5    Zn1   S    
C10   C20   S    
C8    C9    A    
C28   H13   S    
C11   C17   A    
