data_mof_unit_14694.cif
_audit_creation_date              2012-12-11T19:28:07-0500
_audit_creation_method            fapswitch 2.2
_symmetry_space_group_name_H-M    P1
_symmetry_Int_Tables_number       1
_space_group_crystal_system       triclinic
_cell_length_a                    8.37563
_cell_length_b                    15.136249
_cell_length_c                    16.438478
_cell_angle_alpha                 110.597174
_cell_angle_beta                  97.463977
_cell_angle_gamma                 80.093033
_cell_volume                      1916.24674677

loop_
_atom_site_label
_atom_site_type_symbol
_atom_type_description
_atom_site_fract_x
_atom_site_fract_y
_atom_site_fract_z
_atom_type_partial_charge
Ba1   Ba    Ba6+2 0.364200 0.465260 0.540900 1.619032
Ba2   Ba    Ba6+2 0.825630 0.534670 0.459090 1.622297
C1    C     C_3   0.315191 0.268129 0.863685 -0.271644
C2    C     C_R   0.920039 0.598971 0.772017 -0.320434
C3    C     C_2   0.495504 0.412650 0.140046 -0.121979
C4    C     C_3   0.649338 0.223129 0.732523 0.331027
C5    C     C_2   0.460542 0.435139 0.223333 0.100581
C6    C     C_2   0.188252 0.516421 0.195401 -0.006475
C7    C     C_3   0.242916 0.521257 0.112178 -0.070207
C8    C     C_3   0.374664 0.438355 0.072419 -0.006256
C9    C     C_2   0.110514 0.536412 0.044311 -0.078418
C10   C     C_2   0.141718 0.564857 0.979164 -0.015265
C11   C     C_R   0.851840 0.608661 0.934506 -0.108405
C12   C     C_3   0.238057 0.306059 0.791173 0.780941
C13   C     C_R   0.013798 0.583175 0.912281 -0.000698
C14   C     C_R   0.721404 0.620759 0.873978 0.360257
C15   C     C_R   0.756613 0.606896 0.788931 0.016002
C16   C     C_3   0.580166 0.134678 0.729149 -0.378067
C17   C     C_R   0.049574 0.573863 0.826739 0.085866
C18   C     C_R   0.329023 0.811142 0.424764 -0.011320
C19   C     C_R   0.261482 0.904729 0.428827 -0.033559
C20   C     C_R   0.122645 0.093394 0.440191 -0.023987
C21   C     C_R   0.275653 0.054312 0.407412 -0.051626
C22   C     C_R   0.343312 0.961618 0.401301 -0.119191
C23   C     C_3   0.043540 0.770069 0.733352 0.284506
C24   C     C_R   0.053071 0.187991 0.449034 0.018500
C25   C     C_R   0.889236 0.215744 0.466874 -0.314461
C26   C     C_R   0.102878 0.799204 0.497942 0.044394
C27   C     C_R   0.031040 0.891482 0.499959 -0.043388
C28   C     C_3   0.661029 0.210333 0.308894 0.282458
C29   C     C_R   0.107780 0.943027 0.462727 0.008633
C30   C     C_R   0.884947 0.934354 0.538788 -0.036495
C31   C     C_R   0.802085 0.017351 0.528007 -0.063707
C32   C     C_R   0.876337 0.071279 0.493809 -0.022676
C33   C     C_R   0.034681 0.035501 0.464294 0.004844
C34   C     C_3   0.082968 0.835279 0.826212 0.246633
C35   C     C_R   0.802214 0.163151 0.495196 0.016551
C36   C     C_R   0.245703 0.758541 0.456182 -0.290380
C37   C     C_3   0.610360 0.111064 0.273850 -0.386178
C38   C     C_3   0.487148 0.758394 0.642377 0.299472
C39   C     C_3   0.449724 0.865608 0.661825 -0.397371
C40   C     C_3   0.175981 0.306049 0.278921 0.312604
C41   C     C_3   0.179842 0.264785 0.180163 -0.395468
C42   C     C_3   0.043532 0.272600 0.676339 0.263840
C43   C     C_3   0.917050 0.363137 0.688494 -0.168102
C44   C     C_3   0.903870 0.402823 0.612002 -0.306873
C45   C     C_3   0.454611 0.704669 0.221873 0.330412
C46   C     C_3   0.897261 0.839820 0.921266 0.133754
C47   C     C_3   0.542818 0.678242 0.985151 0.200170
C48   C     C_3   0.343561 0.774408 0.184902 -0.440552
C49   C     C_3   0.955569 0.740039 0.264755 0.386516
C50   C     C_3   0.899906 0.824593 0.233474 -0.374529
C51   C     C_2   0.300202 0.487913 0.250975 -0.274268
H1    H     H_    0.324011 0.288926 0.741347 -0.060848
H2    H     H_    0.292086 0.332938 0.308073 0.013430
H3    H     H_    0.073718 0.365040 0.295147 0.087204
H4    H     H_    0.322072 0.189469 0.841224 0.073887
H5    H     H_    0.287004 0.209289 0.162205 0.128532
H6    H     H_    0.186778 0.320988 0.152745 0.061219
H7    H     H_    0.067462 0.232356 0.150830 0.129218
H8    H     H_    0.238768 0.296974 0.920173 0.121570
H9    H     H_    0.912988 0.760787 0.725306 0.007122
H10   H     H_    0.124913 0.701368 0.722270 0.039341
H11   H     H_    0.019282 0.908974 0.835652 0.014783
H12   H     H_    0.664434 0.069414 0.211040 0.120239
H13   H     H_    0.215182 0.840592 0.834480 0.079207
H14   H     H_    0.437908 0.289968 0.885844 0.032336
H15   H     H_    0.665161 0.069297 0.699478 0.125475
H16   H     H_    0.521026 0.649774 0.168149 0.064404
H17   H     H_    0.379386 0.666760 0.246078 -0.033471
H18   H     H_    0.416851 0.811833 0.159154 0.119373
H19   H     H_    0.259560 0.735497 0.131430 0.085759
H20   H     H_    0.270422 0.827875 0.236340 0.113931
H21   H     H_    0.090473 0.726047 0.266462 -0.083557
H22   H     H_    0.916423 0.759001 0.331503 0.074361
H23   H     H_    0.652920 0.073130 0.321142 0.058223
H24   H     H_    0.937516 0.807334 0.166645 0.110034
H25   H     H_    0.955708 0.887514 0.277802 0.067005
H26   H     H_    0.563625 0.288454 0.738884 0.032746
H27   H     H_    0.765647 0.842551 0.232749 0.144862
H28   H     H_    0.607990 0.367681 0.117927 0.099689
H29   H     H_    0.268080 0.494332 0.314791 0.059605
H30   H     H_    0.945680 0.604282 0.711885 0.031022
H31   H     H_    0.989254 0.521976 0.047168 0.102467
H32   H     H_    0.265777 0.572849 0.973804 0.084495
H33   H     H_    0.344178 0.093719 0.384424 0.096085
H34   H     H_    0.475887 0.116172 0.263337 0.129036
H35   H     H_    0.460970 0.935608 0.375162 0.097374
H36   H     H_    0.680635 0.039928 0.549340 0.107745
H37   H     H_    0.734178 0.242169 0.791916 0.056155
H38   H     H_    0.827713 0.902765 0.574743 0.116719
H39   H     H_    0.829654 0.282708 0.462160 0.026558
H40   H     H_    0.300205 0.688052 0.455390 0.061173
H41   H     H_    0.568950 0.136085 0.795896 0.060346
H42   H     H_    0.461174 0.129016 0.690514 0.117089
H43   H     H_    0.795376 0.202359 0.314323 0.034414
H44   H     H_    0.605963 0.248843 0.371924 0.042010
H45   H     H_    0.376258 0.724772 0.614326 0.015489
H46   H     H_    0.993677 0.207775 0.636291 0.094026
H47   H     H_    0.144041 0.266927 0.636252 0.024088
H48   H     H_    0.805546 0.354606 0.710330 0.132128
H49   H     H_    0.943009 0.418306 0.749294 0.066652
H50   H     H_    0.990649 0.357917 0.567637 0.113732
H51   H     H_    0.940817 0.471903 0.629461 0.114361
H52   H     H_    0.794285 0.412418 0.571016 0.162787
H53   H     H_    0.797270 0.828966 0.868560 0.040298
H54   H     H_    0.898718 0.917067 0.957898 0.041177
H55   H     H_    0.872631 0.806577 0.967814 0.070112
H56   H     H_    0.580950 0.730091 0.594606 0.090825
H57   H     H_    0.576617 0.617240 0.009642 0.040802
H58   H     H_    0.413316 0.706115 0.996350 0.068881
H59   H     H_    0.614870 0.737240 0.022083 0.015255
H60   H     H_    0.352503 0.896443 0.707777 0.139001
H61   H     H_    0.409375 0.881922 0.601235 0.068050
H62   H     H_    0.560626 0.899500 0.691531 0.107817
O1    O     O_2   0.428380 0.595300 0.716110 -0.430646
O2    O     O_2   0.664290 0.810914 0.449839 -0.503653
O3    O     O_3   0.569847 0.752953 0.284650 -0.576435
O4    O     O_3   0.649320 0.571650 0.606870 -0.526043
O5    O     O_3   0.067580 0.379340 0.450790 -0.502386
O6    O     O_2   0.850900 0.734750 0.551740 -0.478014
O7    O     O_3   0.073107 0.813681 0.676000 -0.686664
O8    O     O_2   0.867484 0.482816 0.188563 -0.483046
O9    O     O_3   0.884354 0.660837 0.208189 -0.580746
O10   O     O_3   0.202060 0.415880 0.655570 -0.516724
O11   O     O_2   0.392857 0.499247 0.805292 -0.451321
O12   O     O_3   0.154563 0.233248 0.308449 -0.633814
O13   O     O_3   0.542784 0.742069 0.720586 -0.626872
O14   O     O_3   0.196552 0.403822 0.830847 -0.645035
O15   O     O_2   0.338790 0.265210 0.448200 -0.481753
O16   O     O_3   0.612600 0.359140 0.609510 -0.502346
O17   O     O_2   0.480749 0.191100 0.558329 -0.506703
O18   O     O_3   0.096769 0.262661 0.757504 -0.671642
O19   O     O_3   0.049023 0.796397 0.887765 -0.663226
O20   O     O_3   0.560108 0.648467 0.894864 -0.614654
O21   O     O_3   0.741609 0.199389 0.661780 -0.626786
O22   O     O_2   0.761310 0.404660 0.283830 -0.462341
O23   O     O_3   0.540390 0.428270 0.393120 -0.514098
O24   O     O_3   0.987650 0.584040 0.344420 -0.482926
O25   O     O_3   0.608181 0.255999 0.248575 -0.642448
O26   O     O_3   0.122130 0.620580 0.549200 -0.484228
O27   O     O_3   0.577110 0.640790 0.390470 -0.464496
P1    P     P_3+3 0.592580 0.619750 0.703570 1.026925
P2    P     P_3+3 0.156510 0.273300 0.422380 0.959054
P3    P     P_3+3 0.643782 0.231889 0.572842 0.928394
P4    P     P_3+3 0.597130 0.380170 0.296420 0.964915
P5    P     P_3+3 0.533227 0.756009 0.387979 0.954931
P6    P     P_3+3 0.217042 0.478708 0.772153 0.964425
P7    P     P_3+3 0.038931 0.740590 0.567627 0.931153
P8    P     P_3+3 0.980920 0.559912 0.232192 0.958093

loop_
_geom_bond_atom_site_label_1
_geom_bond_atom_site_label_2
_ccdc_geom_bond_type
C16   H42   S    
C32   C35   A    
O4    P1    S    
O5    P2    S    
C49   H21   S    
C37   H34   S    
C39   H61   S    
O26   P7    S    
C43   C44   S    
C13   C17   A    
C20   C33   A    
C19   C29   A    
C28   H44   S    
C24   C25   A    
C10   H32   S    
O17   P3    D    
C46   O19   S    
O3    P5    S    
C49   H22   S    
C32   C33   A    
C27   C30   A    
C38   H45   S    
C42   H46   S    
C34   H13   S    
C30   H38   S    
C16   H15   S    
C38   O13   S    
C44   H52   S    
C3    H28   S    
Ba1   Ba2   S    
Ba1   O4    S    
C48   H19   S    
C45   H16   S    
O14   P6    S    
C28   H43   S    
C41   H5    S    
C40   H3    S    
C2    C17   A    
C45   O3    S    
C46   H53   S    
C14   C15   A    
C21   H33   S    
C4    O21   S    
C21   C22   A    
Ba1   O1    S    
O15   P2    D    
C23   O7    S    
O21   P3    S    
C41   H6    S    
C47   H58   S    
C5    P4    S    
C47   O20   S    
O8    P8    D    
C26   P7    S    
C49   O9    S    
C37   H12   S    
C39   H62   S    
C50   H25   S    
C45   C48   S    
C1    H8    S    
C4    C16   S    
C28   O25   S    
C49   C50   S    
Ba2   O23   S    
O7    P7    S    
O22   P4    D    
Ba1   O15   S    
C48   H20   S    
O25   P4    S    
C3    C5    D    
O11   P6    D    
C6    C7    S    
C4    H37   S    
C44   H51   S    
C51   H29   S    
Ba1   O5    S    
C6    P8    S    
C48   H18   S    
C45   H17   S    
Ba1   P1    S    
C31   H36   S    
C40   H2    S    
O1    P1    D    
C18   C36   A    
C10   C13   S    
C26   C36   A    
Ba2   O4    S    
C31   C32   A    
C18   P5    S    
C25   H39   S    
C37   H23   S    
C7    C9    S    
C1    C12   S    
C43   H48   S    
C41   H7    S    
C47   H59   S    
C2    C15   A    
C40   O12   S    
C38   C39   S    
C12   H1    S    
C11   C13   A    
Ba2   O27   S    
O12   P2    S    
C29   C33   A    
C19   C22   A    
C40   C41   S    
C5    C51   S    
Ba2   O24   S    
C50   H24   S    
C1    H4    S    
C42   C43   S    
C7    C8    S    
Ba2   O6    S    
C42   O18   S    
O9    P8    S    
C26   C27   A    
Ba2   O5    S    
C23   H10   S    
Ba2   O22   S    
O27   P5    S    
C22   H35   S    
C1    H14   S    
Ba1   O10   S    
Ba1   O16   S    
O10   P6    S    
C34   O19   S    
C6    C51   D    
C9    C10   D    
C38   H56   S    
C12   O18   S    
C9    H31   S    
Ba2   P4    S    
C44   H50   S    
O24   P8    S    
C17   P6    S    
C15   P1    S    
O2    P5    D    
C30   C31   A    
C3    C8    S    
C27   C29   A    
Ba1   P2    S    
C34   H11   S    
C42   H47   S    
C4    H26   S    
C46   H55   S    
C2    H30   S    
O23   P4    S    
C16   H41   S    
C36   H40   S    
C39   H60   S    
O6    P7    D    
C28   C37   S    
O16   P3    S    
C23   H9    S    
O13   P1    S    
Ba1   O26   S    
C43   H49   S    
C23   C34   S    
C46   H54   S    
C18   C19   A    
C20   C24   A    
C11   C14   A    
C24   P2    S    
Ba2   O26   S    
C20   C21   A    
C35   P3    S    
C50   H27   S    
C14   O20   S    
Ba1   O23   S    
C25   C35   A    
C47   H57   S    
C12   O14   S    
