data_mof_unit_34805.cif
_audit_creation_date              2012-12-11T14:06:43-0500
_audit_creation_method            fapswitch 2.2
_symmetry_space_group_name_H-M    P1
_symmetry_Int_Tables_number       1
_space_group_crystal_system       triclinic
_cell_length_a                    6.932989
_cell_length_b                    17.468719
_cell_length_c                    24.213629
_cell_angle_alpha                 104.666947
_cell_angle_beta                  90.60276
_cell_angle_gamma                 89.339442
_cell_volume                      2836.68781596

loop_
_atom_site_label
_atom_site_type_symbol
_atom_type_description
_atom_site_fract_x
_atom_site_fract_y
_atom_site_fract_z
_atom_type_partial_charge
O1    O     O_R   0.494290 0.391990 0.999150 -0.525166
O2    O     O_R   0.827170 0.534410 0.082350 -0.527598
O3    O     O_R   0.994360 0.608010 0.000850 -0.522715
C1    C     C_R   0.657934 0.549467 0.106188 0.735014
O4    O     O_R   0.824210 0.388010 0.004470 -0.549514
O5    O     O_R   0.991370 0.460560 0.922410 -0.536380
C2    C     C_R   0.654884 0.355006 0.001229 0.717330
O6    O     O_R   0.497270 0.539440 0.077590 -0.526955
O7    O     O_3   0.659770 0.523970 0.973170 -0.371100
V1    V     V_3+5 0.935840 0.495550 0.004980 1.625335
O8    O     O_R   0.320910 0.465590 0.917650 -0.543994
C3    C     C_R   0.151394 0.450747 0.893949 0.786773
O9    O     O_R   0.323870 0.611990 0.995530 -0.535029
C4    C     C_R   0.153123 0.644740 0.998471 0.801474
V2    V     V_3+5 0.435470 0.504450 0.995020 1.620081
O10   O     O_3   0.161670 0.476030 0.026830 -0.357410
C5    C     C_2   0.137200 0.726114 0.991328 -0.059913
C6    C     C_2   0.981471 0.774441 0.010047 -0.056718
C7    C     C_R   0.080201 0.249517 0.625308 0.596270
N1    N     N_R   0.075223 0.330023 0.648412 -0.550188
C8    C     C_R   0.041154 0.380457 0.613924 0.664834
C9    C     C_R   0.013094 0.350705 0.554595 -0.071146
C10   C     C_R   0.032109 0.269066 0.530216 -0.012911
C11   C     C_R   0.069651 0.217989 0.565734 -0.052204
C12   C     C_R   0.973187 0.401123 0.519038 -0.124526
C13   C     C_R   0.950070 0.371466 0.459975 0.238224
C14   C     C_R   0.965902 0.288908 0.434790 -0.090841
C15   C     C_R   0.015036 0.238416 0.470241 -0.033103
C16   C     C_R   0.051221 0.157374 0.445850 -0.054311
C17   C     C_R   0.095362 0.107407 0.481630 -0.075564
C18   C     C_R   0.098888 0.136915 0.540898 -0.085512
C19   C     C_R   0.937918 0.254377 0.375649 0.644332
N2    N     N_R   0.984960 0.176479 0.352285 -0.540781
C20   C     C_R   0.045087 0.128501 0.386106 0.666941
O11   O     O_2   0.095034 0.199898 0.659762 -0.484023
O12   O     O_2   0.036247 0.459365 0.636706 -0.486308
H1    H     H_    0.962961 0.464475 0.536930 0.196878
O13   O     O_2   0.863328 0.297291 0.341441 -0.472401
O14   O     O_2   0.098702 0.053050 0.361942 -0.472860
H2    H     H_    0.125465 0.045086 0.464005 0.215106
H3    H     H_    0.130040 0.096333 0.567100 0.212992
C21   C     C_R   0.838472 0.090391 0.264946 0.205106
C22   C     C_R   0.838687 0.056587 0.205431 0.082392
C23   C     C_R   0.974509 0.081584 0.170061 -0.194871
C24   C     C_R   0.115129 0.138706 0.196375 0.080375
C25   C     C_R   0.115551 0.171081 0.256323 -0.075559
C26   C     C_R   0.979904 0.145441 0.290701 0.199466
C27   C     C_R   0.962870 0.412522 0.740908 -0.071453
H4    H     H_    0.838088 0.427891 0.718468 0.189339
C28   C     C_R   0.984613 0.446800 0.799519 -0.060539
C29   C     C_R   0.138995 0.421764 0.830180 -0.198334
C30   C     C_R   0.280074 0.368077 0.799187 -0.107619
C31   C     C_R   0.269253 0.342964 0.738482 -0.037799
C32   C     C_R   0.103569 0.362031 0.709607 0.273225
C33   C     C_R   0.514059 0.865867 0.614460 0.657958
N3    N     N_R   0.526853 0.816324 0.649789 -0.551684
C34   C     C_R   0.546042 0.736465 0.627941 0.655853
C35   C     C_R   0.535563 0.702576 0.567912 -0.128988
C36   C     C_R   0.550581 0.754231 0.531463 -0.039280
C37   C     C_R   0.551253 0.837292 0.555368 -0.074394
C38   C     C_R   0.509210 0.620189 0.543416 0.163737
C39   C     C_R   0.502354 0.590179 0.483105 0.177145
C40   C     C_R   0.540699 0.640976 0.446502 -0.102828
C41   C     C_R   0.566126 0.723176 0.471429 -0.033378
C42   C     C_R   0.606747 0.774704 0.436261 -0.080997
C43   C     C_R   0.610413 0.857775 0.460590 -0.109168
C44   C     C_R   0.583888 0.888950 0.519756 -0.087422
C45   C     C_R   0.552807 0.613701 0.385694 0.693879
N4    N     N_R   0.608296 0.663377 0.353249 -0.542958
C46   C     C_R   0.646338 0.741002 0.377776 0.688504
O15   O     O_2   0.463724 0.942202 0.636765 -0.473575
O16   O     O_2   0.579821 0.691306 0.664547 -0.469042
O17   O     O_2   0.512295 0.538452 0.358610 -0.479232
O18   O     O_2   0.723922 0.784748 0.345185 -0.469759
C47   C     C_R   0.486843 0.659123 0.256010 0.153716
C48   C     C_R   0.500409 0.633664 0.196086 -0.059538
C49   C     C_R   0.645437 0.578332 0.170215 -0.192994
C50   C     C_R   0.777750 0.550426 0.206009 -0.104813
C51   C     C_R   0.775891 0.582113 0.266384 -0.078800
C52   C     C_R   0.624095 0.634376 0.291481 0.252757
C53   C     C_R   0.358685 0.827894 0.740477 -0.115516
H5    H     H_    0.255513 0.785476 0.716885 0.175475
C54   C     C_R   0.333521 0.860471 0.799238 -0.075625
C55   C     C_R   0.465320 0.918379 0.830034 -0.208035
C56   C     C_R   0.617382 0.942226 0.799195 0.121022
C57   C     C_R   0.647628 0.904266 0.741007 0.199176
C58   C     C_R   0.513313 0.848925 0.711028 0.261655
C59   C     C_2   0.643750 0.269200 0.998855 -0.237254
C60   C     C_2   0.472768 0.231356 0.002462 -0.234749
O19   O     O_R   0.618210 0.960470 0.922400 -0.536482
O20   O     O_R   0.291310 0.111960 0.995450 -0.539412
O21   O     O_R   0.124210 0.039530 0.077580 -0.527968
C61   C     C_R   0.460766 0.145103 0.998863 0.728054
O22   O     O_R   0.288310 0.965490 0.917650 -0.518587
O23   O     O_R   0.121180 0.892010 0.999220 -0.537973
C62   C     C_R   0.456203 0.949709 0.893802 0.754219
O24   O     O_R   0.621230 0.107990 0.000760 -0.528418
O25   O     O_3   0.455770 0.976060 0.026840 -0.359702
V3    V     V_3+5 0.179680 0.004440 0.995020 1.605129
O26   O     O_R   0.791670 0.888040 0.004570 -0.528233
C63   C     C_R   0.962975 0.855439 0.002120 0.754497
O27   O     O_R   0.794680 0.034510 0.082370 -0.528486
C64   C     C_R   0.964238 0.050151 0.106238 0.799690
V4    V     V_3+5 0.680070 0.995560 0.005010 1.608801
O28   O     O_3   0.953840 0.023940 0.973160 -0.358421
I1    I     I_    0.367670 0.755271 0.942150 -0.294031
C65   C     C_2   0.253047 0.234487 0.283812 0.913733
O29   O     O_2   0.266607 0.293752 0.266011 -0.483583
O30   O     O_R   0.359029 0.228542 0.331986 -0.651071
H6    H     H_    0.443655 0.276216 0.347591 0.341168
C66   C     C_2   0.847166 0.511364 0.826162 0.842129
O31   O     O_2   0.902228 0.568311 0.863413 -0.547265
O32   O     O_R   0.656276 0.508952 0.806520 -0.642893
H7    H     H_    0.576986 0.556243 0.827672 0.319795
C67   C     C_2   0.434985 0.336095 0.830185 0.860566
O33   O     O_2   0.392281 0.301312 0.866186 -0.529563
O34   O     O_R   0.628664 0.345209 0.818071 -0.650376
H8    H     H_    0.719854 0.321182 0.842224 0.310906
C68   C     C_2   0.430234 0.297736 0.704542 0.877964
O35   O     O_2   0.500867 0.240020 0.717329 -0.499399
O36   O     O_R   0.497880 0.320573 0.656940 -0.653611
H9    H     H_    0.606977 0.285400 0.637075 0.296311
I2    I     I_    0.458331 0.539090 0.596193 -0.156112
I3    I     I_    0.428323 0.466910 0.451044 -0.239489
C69   C     C_2   0.636384 0.914150 0.424848 0.936370
O37   O     O_2   0.512087 0.920735 0.390099 -0.478929
O38   O     O_R   0.801598 0.960607 0.432196 -0.653001
H10   H     H_    0.801542 0.998222 0.406653 0.330858
C70   C     C_2   0.604696 0.975730 0.544050 0.884412
O39   O     O_2   0.492647 0.021859 0.529714 -0.559169
O40   O     O_R   0.754644 0.004200 0.582550 -0.614907
H11   H     H_    0.754329 0.064093 0.595986 0.330999
I4    I     I_    0.253803 0.736091 0.293500 -0.129932
I5    I     I_    0.763657 0.746404 0.063539 -0.269185
C71   C     C_2   0.363523 0.667960 0.161400 0.835370
O41   O     O_2   0.219011 0.631588 0.141186 -0.531828
O42   O     O_R   0.395729 0.743634 0.154267 -0.620376
H12   H     H_    0.291544 0.761191 0.130313 0.310551
C72   C     C_2   0.905307 0.482613 0.180419 0.886209
O43   O     O_2   0.075706 0.493071 0.172425 -0.512664
O44   O     O_R   0.828873 0.406408 0.166612 -0.636840
H13   H     H_    0.930583 0.363839 0.153416 0.324708
C73   C     C_2   0.935752 0.563557 0.303188 0.883199
O45   O     O_2   0.980468 0.611829 0.347411 -0.537537
O46   O     O_R   0.038905 0.492204 0.287130 -0.608104
H14   H     H_    0.151963 0.489637 0.313487 0.369199
C74   C     C_2   0.168624 0.829956 0.825552 0.828268
O47   O     O_2   0.148210 0.758497 0.817243 -0.519677
O48   O     O_R   0.028186 0.881465 0.855515 -0.636771
H15   H     H_    0.921157 0.852717 0.869941 0.290432
I6    I     I_    0.786231 0.043746 0.836787 -0.184398
I7    I     I_    0.904022 0.924828 0.698464 -0.201096
C75   C     C_2   0.827434 0.225145 0.988227 0.838811
O49   O     O_2   0.912786 0.207110 0.027605 -0.549415
O50   O     O_R   0.898151 0.201975 0.932697 -0.624053
H16   H     H_    0.018013 0.167437 0.929705 0.326629
C76   C     C_2   0.290636 0.276577 0.013530 0.865105
O51   O     O_2   0.203570 0.293126 0.973933 -0.530467
O52   O     O_R   0.230034 0.307066 0.069640 -0.625710
H17   H     H_    0.112640 0.342687 0.071866 0.305778
I8    I     I_    0.923988 0.459453 0.413682 -0.190179
I9    I     I_    0.614199 0.064269 0.317105 -0.171249
I10   I     I_    0.643146 0.961151 0.171600 -0.183646
I11   I     I_    0.338315 0.176043 0.148249 -0.216637

loop_
_geom_bond_atom_site_label_1
_geom_bond_atom_site_label_2
_ccdc_geom_bond_type
C33   N3    A    
C50   C51   A    
C76   O51   D    
O2    C1    A    
C7    N1    A    
C74   O47   D    
C1    O6    A    
C50   C72   S    
C39   I3    S    
C53   H5    S    
O48   H15   S    
C71   O41   D    
C8    O12   S    
C49   C50   A    
C23   C24   A    
C27   C32   A    
C13   C14   A    
C16   C17   A    
C5    I1    S    
C54   C55   A    
C8    C9    A    
C15   C16   A    
C74   O48   S    
C24   I11   S    
C73   O45   D    
O32   H7    S    
N4    C46   A    
O52   H17   S    
C56   C57   A    
C17   C18   A    
O23   V3    S    
V2    O10   S    
O26   V4    S    
N3    C34   A    
C73   O46   S    
C55   C62   S    
C28   C66   S    
O21   C64   A    
O27   C64   A    
C40   C45   A    
O8    V2    S    
C23   C64   S    
C51   C73   S    
C66   O31   D    
C37   C44   A    
C45   N4    A    
C67   O34   S    
C9    C12   A    
C46   O18   S    
O23   C63   A    
C10   C11   A    
O1    V2    S    
C19   O13   S    
C75   O50   S    
C47   C52   A    
C12   H1    S    
C45   O17   S    
C35   C38   A    
C27   C28   A    
C43   C44   A    
C36   C37   A    
C76   O52   S    
C33   C37   A    
C60   C61   S    
C65   O30   S    
C4    C5    S    
C44   C70   S    
V4    O28   S    
C53   C54   A    
C48   C71   S    
C28   C29   A    
C68   O36   S    
C47   I4    S    
V3    O28   S    
C72   O43   D    
C29   C30   A    
C55   C56   A    
N1    C32   S    
O4    C2    A    
C57   C58   A    
N3    C58   S    
C12   C13   A    
C31   C32   A    
C16   C20   A    
C20   O14   S    
C19   N2    A    
C6    C63   S    
O22   C62   A    
C47   C48   A    
C56   I6    S    
C39   C40   A    
C57   I7    S    
O20   C61   A    
C2    C59   S    
C65   O29   D    
C25   C65   S    
N1    C8    A    
C31   C68   S    
C5    C6    D    
C36   C41   A    
C17   H2    S    
C60   C76   S    
C66   O32   S    
C10   C15   A    
C48   C49   A    
C68   O35   D    
O27   V4    S    
O19   V4    S    
O36   H9    S    
C53   C58   A    
O3    C4    A    
C54   C74   S    
C27   H4    S    
C42   C43   A    
O6    V2    S    
O9    V2    S    
C22   C23   A    
C69   O37   D    
N2    C26   S    
C51   C52   A    
C21   C22   A    
O38   H10   S    
O2    V1    S    
C61   O24   A    
O46   H14   S    
O50   H16   S    
C3    C29   S    
C30   C31   A    
C70   O39   D    
O7    V1    S    
C30   C67   S    
C71   O42   S    
C25   C26   A    
C18   H3    S    
C14   C19   A    
O1    C2    A    
O40   H11   S    
O5    V1    S    
O8    C3    A    
C21   I9    S    
O19   C62   A    
O42   H12   S    
C13   I8    S    
O34   H8    S    
C43   C69   S    
C38   I2    S    
C59   C75   S    
C7    C11   A    
C35   C36   A    
C11   C18   A    
C1    C49   S    
O3    V1    S    
V1    O10   S    
O44   H13   S    
C41   C42   A    
O5    C3    A    
C72   O44   S    
C34   C35   A    
O22   V3    S    
O25   V4    S    
C70   O40   S    
O26   C63   A    
N2    C20   A    
C6    I5    S    
C21   C26   A    
C34   O16   S    
O7    V2    S    
C38   C39   A    
O24   V4    S    
C40   C41   A    
C24   C25   A    
O4    V1    S    
C59   C60   D    
O25   V3    S    
O30   H6    S    
C14   C15   A    
C69   O38   S    
C9    C10   A    
N4    C52   S    
C7    O11   S    
O20   V3    S    
C42   C46   A    
O9    C4    A    
C33   O15   S    
C67   O33   D    
O21   V3    S    
C75   O49   D    
C22   I10   S    
