data_mof_unit_32811.cif
_audit_creation_date              2013-03-05T16:14:30-0500
_audit_creation_method            fapswitch 2.2
_symmetry_space_group_name_H-M    P1
_symmetry_Int_Tables_number       1
_space_group_crystal_system       triclinic
_cell_length_a                    10.664733
_cell_length_b                    10.675022
_cell_length_c                    9.45871
_cell_angle_alpha                 90.022206
_cell_angle_beta                  89.727254
_cell_angle_gamma                 90.059847
_cell_volume                      1076.82588511

loop_
_atom_site_label
_atom_site_type_symbol
_atom_site_description
_atom_site_fract_x
_atom_site_fract_y
_atom_site_fract_z
_atom_type_partial_charge
O1    O     O_R   0.500060 0.316850 0.620870 -0.554272
O2    O     O_R   0.499940 0.683150 0.379130 -0.554277
O3    O     O_R   0.500000 0.316860 0.379090 -0.579651
O4    O     O_R   0.500000 0.683140 0.620910 -0.579725
C1    C     C_R   0.501338 0.259902 0.500151 0.922045
C2    C     C_R   0.498659 0.740098 0.499850 0.922019
O5    O     O_R   0.316880 0.499960 0.620870 -0.532288
O6    O     O_R   0.683120 0.500040 0.379130 -0.532368
O7    O     O_R   0.316830 0.499970 0.379090 -0.590639
O8    O     O_R   0.683170 0.500030 0.620910 -0.590608
C3    C     C_R   0.259786 0.500191 0.500343 0.930728
C4    C     C_R   0.740215 0.499810 0.499657 0.930744
Cu1   Cu    Cu3+1 0.500030 0.499990 0.643150 1.060869
Cu2   Cu    Cu3+1 0.499970 0.500010 0.356850 1.060827
C5    C     C_3   0.041243 0.418957 0.599555 -0.188785
C6    C     C_3   0.958759 0.581048 0.400448 -0.188956
C7    C     C_3   0.960657 0.386581 0.470431 0.398254
C8    C     C_3   0.039346 0.613423 0.529573 0.398325
H1    H     H_    0.073733 0.352799 0.681863 0.236379
H2    H     H_    0.926269 0.647207 0.318141 0.236348
C9    C     C_3   0.876735 0.499531 0.498856 -0.159243
C10   C     C_3   0.123267 0.500473 0.501147 -0.159175
C11   C     C_3   0.956418 0.534781 0.628668 -0.225933
C12   C     C_3   0.043584 0.465223 0.371334 -0.226084
H3    H     H_    0.920116 0.565388 0.733335 0.210047
H4    H     H_    0.079885 0.434615 0.266668 0.210034
C13   C     C_3   0.593630 0.039554 0.581950 -0.060106
C14   C     C_3   0.406361 0.960444 0.418054 -0.060131
C15   C     C_3   0.608768 0.958107 0.448989 -0.053943
C16   C     C_3   0.391223 0.041892 0.551014 -0.053948
C17   C     C_3   0.498530 0.876501 0.498733 -0.006998
C18   C     C_3   0.501462 0.123497 0.501270 -0.006989
C19   C     C_3   0.483095 0.957106 0.633225 -0.261583
C20   C     C_3   0.516896 0.042892 0.366778 -0.261569
H5    H     H_    0.469364 0.922035 0.742675 0.196806
H6    H     H_    0.530624 0.077959 0.257327 0.196799
C21   C     C_3   0.503315 0.613839 0.050974 -0.141941
C22   C     C_3   0.496683 0.386162 0.949026 -0.141827
C23   C     C_3   0.405489 0.557919 0.952197 0.462622
C24   C     C_3   0.594510 0.442082 0.047799 0.462617
H7    H     H_    0.503892 0.709442 0.097179 0.183558
H8    H     H_    0.496107 0.290558 0.902821 0.183540
N1    N     N_3   0.500090 0.499970 0.858290 -0.229750
N2    N     N_3   0.499910 0.500030 0.141710 -0.229754
C25   C     C_3   0.600229 0.554531 0.948477 -0.153957
C26   C     C_3   0.399769 0.445470 0.051522 -0.153967
H9    H     H_    0.684835 0.598662 0.901043 0.168770
H10   H     H_    0.315162 0.401341 0.098955 0.168758
N3    N     N_R   0.919549 0.260058 0.436570 0.154238
O9    O     O_R   0.002060 0.172020 0.417393 -0.356209
O10   O     O_R   0.801230 0.235186 0.420710 -0.354462
N4    N     N_R   0.080461 0.739942 0.563443 0.154235
O11   O     O_R   0.997956 0.827992 0.582583 -0.356216
O12   O     O_R   0.198776 0.764788 0.579404 -0.354425
C27   C     C_2   0.731677 0.914975 0.389668 0.408647
H11   H     H_    0.802208 0.983144 0.359384 0.175373
O13   O     O_2   0.753004 0.803666 0.374669 -0.575604
C28   C     C_2   0.268315 0.085025 0.610335 0.408679
H12   H     H_    0.197781 0.016857 0.640615 0.175374
O14   O     O_2   0.246991 0.196334 0.625339 -0.575593
C29   C     C_2   0.699094 0.076414 0.677779 0.440677
H13   H     H_    0.759606 0.004467 0.720863 0.097427
O15   O     O_2   0.717269 0.185884 0.708535 -0.497768
C30   C     C_2   0.300893 0.923577 0.322233 0.440643
H14   H     H_    0.240407 0.995522 0.279110 0.097440
O16   O     O_2   0.282686 0.814102 0.291531 -0.497810
N5    N     N_R   0.298468 0.625554 0.895965 0.156027
O17   O     O_R   0.185782 0.580940 0.912267 -0.345185
O18   O     O_R   0.313730 0.737966 0.846017 -0.333983
N6    N     N_R   0.701531 0.374435 0.104014 0.155938
O19   O     O_R   0.814272 0.418822 0.087237 -0.345170
O20   O     O_R   0.686194 0.262146 0.154292 -0.333895

loop_
_geom_bond_atom_site_label_1
_geom_bond_atom_site_label_2
_geom_bond_distance
_ccdc_geom_bond_type
C22   C24   1.524867 S    
C27   H11   1.083685 S    
C6    C9    1.542780 S    
C13   C15   1.536612 S    
C8    N4    1.455595 S    
C13   C19   1.546683 S    
C5    H1    1.108349 S    
C24   N6    1.454194 S    
O1    C1    1.293408 A    
C12   H4    1.110458 S    
C22   H8    1.110077 S    
C28   O14   1.218136 D    
O4    Cu1   1.966496 S    
C29   O15   1.219680 D    
C13   C29   1.499999 S    
C5    C10   1.542770 S    
N2    C26   1.488117 S    
N3    O10   1.298589 A    
C17   C19   1.543767 S    
N6    O19   1.300917 A    
O6    C4    1.295009 A    
C1    C18   1.456166 S    
C5    C11   1.556485 S    
C2    C17   1.456157 S    
C14   C20   1.546683 S    
C6    C12   1.556488 S    
Cu1   Cu2   2.708032 S    
O2    C2    1.293411 A    
N4    O12   1.298596 A    
C25   H9    1.110316 S    
C9    C11   1.542824 S    
C24   C25   1.525594 S    
C26   H10   1.110316 S    
C7    C12   1.535145 S    
C8    C11   1.535148 S    
O4    C2    1.296845 A    
C7    N3    1.455589 S    
C23   N1    1.477111 S    
C15   C27   1.496350 S    
C28   H12   1.083684 S    
C15   C20   1.547095 S    
C7    C9    1.525399 S    
N5    O17   1.300739 A    
N5    O18   1.299614 A    
C30   O16   1.219664 D    
O5    C3    1.295004 A    
O7    Cu2   1.963438 S    
O7    C3    1.295703 A    
O5    Cu1   1.965579 S    
C6    H2    1.108349 S    
N1    C25   1.488108 S    
O3    Cu2   1.966496 S    
O8    C4    1.295703 A    
C23   C26   1.525603 S    
C14   C30   1.499996 S    
C6    C8    1.535849 S    
C27   O13   1.218136 D    
C10   C12   1.542821 S    
O1    Cu1   1.966268 S    
C21   C25   1.549307 S    
Cu1   N1    2.034949 S    
N4    O11   1.300210 A    
Cu2   N2    2.034951 S    
C5    C7    1.535840 S    
O6    Cu2   1.965579 S    
C16   C19   1.547094 S    
C13   C18   1.536572 S    
C8    C10   1.525397 S    
C23   N5    1.454194 S    
C14   C17   1.536567 S    
O3    C1    1.296850 A    
O8    Cu1   1.963439 S    
C3    C10   1.455929 S    
C30   H14   1.084493 S    
C21   N2    1.488064 S    
C14   C16   1.536611 S    
C22   N1    1.488055 S    
C21   C23   1.524877 S    
C16   C18   1.534722 S    
C16   C28   1.496349 S    
C19   H5    1.109997 S    
C20   H6    1.109996 S    
C11   H3    1.110458 S    
C21   H7    1.110076 S    
C29   H13   1.084526 S    
O2    Cu2   1.966268 S    
C22   C26   1.549299 S    
C4    C9    1.455938 S    
C24   N2    1.477122 S    
C15   C17   1.534719 S    
N3    O9    1.300211 A    
N6    O20   1.299640 A    
C18   C20   1.543772 S    
