data_mof_unit_39492.cif
_audit_creation_date              2012-12-10T19:52:18-0500
_audit_creation_method            fapswitch 2.2
_symmetry_space_group_name_H-M    P1
_symmetry_Int_Tables_number       1
_space_group_crystal_system       triclinic
_cell_length_a                    15.025048
_cell_length_b                    14.121037
_cell_length_c                    10.684658
_cell_angle_alpha                 90.49012
_cell_angle_beta                  89.52838
_cell_angle_gamma                 89.334998
_cell_volume                      2266.64167279

loop_
_atom_site_label
_atom_site_type_symbol
_atom_type_description
_atom_site_fract_x
_atom_site_fract_y
_atom_site_fract_z
_atom_type_partial_charge
C1    C     C_R   0.327575 0.500653 0.500086 0.851140
C2    C     C_3   0.584865 0.534279 0.927852 -0.427866
C3    C     C_R   0.094262 0.592000 0.495218 -0.187207
C4    C     C_R   0.093058 0.419790 0.501116 -0.184648
C5    C     C_R   0.186156 0.589982 0.496566 -0.218593
C6    C     C_R   0.184844 0.417632 0.502406 -0.213596
C7    C     C_R   0.231629 0.502707 0.499771 -0.027526
C8    C     C_R   0.047995 0.506893 0.496886 0.148165
C9    C     C_R   0.908911 0.451144 0.408420 -0.198501
C10   C     C_R   0.904950 0.561484 0.583329 -0.208663
C11   C     C_R   0.816970 0.444656 0.410569 0.120461
C12   C     C_R   0.812738 0.557440 0.588262 0.143661
C13   C     C_R   0.768240 0.499459 0.500051 -0.120428
C14   C     C_R   0.952217 0.508265 0.494543 0.022267
C15   C     C_R   0.421030 0.105279 0.483621 -0.309580
C16   C     C_R   0.568191 0.894205 0.441323 -0.297319
C17   C     C_R   0.496878 0.499386 0.257394 0.817552
C18   C     C_R   0.422612 0.204778 0.481647 0.004072
C19   C     C_R   0.566479 0.794682 0.440520 0.039819
C20   C     C_R   0.577029 0.203501 0.521296 0.033530
C21   C     C_R   0.433399 0.796428 0.560205 0.018317
C22   C     C_R   0.578741 0.103941 0.521621 -0.283123
C23   C     C_R   0.431876 0.895974 0.561728 -0.291453
C24   C     C_R   0.499948 0.053048 0.502900 0.131252
C25   C     C_R   0.500143 0.946623 0.502290 0.133253
C26   C     C_R   0.672241 0.499522 0.499201 0.855884
C27   C     C_R   0.497172 0.500209 0.742334 0.846886
C28   C     C_3   0.415943 0.563716 0.071630 -0.155551
C29   C     C_3   0.476847 0.394793 0.067563 -0.150240
C30   C     C_3   0.418473 0.565912 0.926882 -0.438845
C31   C     C_3   0.475278 0.398069 0.924528 -0.420030
C32   C     C_3   0.584962 0.534297 0.071240 -0.403401
C33   C     C_3   0.494719 0.498155 0.120790 0.094405
C34   C     C_3   0.494084 0.499843 0.878190 0.147758
H1    H     H_    0.358807 0.069465 0.467310 0.129811
H2    H     H_    0.621441 0.929871 0.392562 0.128489
H3    H     H_    0.361580 0.243545 0.464668 0.120632
H4    H     H_    0.618407 0.755062 0.391924 0.116786
H5    H     H_    0.637449 0.241530 0.539185 0.130647
H6    H     H_    0.381086 0.758152 0.607179 0.116129
H7    H     H_    0.641042 0.067115 0.538501 0.134371
H8    H     H_    0.378316 0.933007 0.610557 0.135581
H9    H     H_    0.353188 0.526962 0.097090 0.100449
H10   H     H_    0.407645 0.377891 0.097618 0.108038
H11   H     H_    0.353405 0.542047 0.889447 0.144749
H12   H     H_    0.408906 0.374817 0.890900 0.158458
H13   H     H_    0.428079 0.638709 0.890816 0.183508
H14   H     H_    0.524570 0.347372 0.882587 0.193637
H15   H     H_    0.598508 0.606498 0.107370 0.174382
H16   H     H_    0.640824 0.490506 0.106846 0.146928
H17   H     H_    0.598176 0.607221 0.894428 0.174534
H18   H     H_    0.639639 0.487827 0.891443 0.147919
H19   H     H_    0.059277 0.659446 0.491547 0.128960
H20   H     H_    0.057084 0.353756 0.504088 0.130354
H21   H     H_    0.221347 0.656471 0.494576 0.147839
H22   H     H_    0.218883 0.349678 0.505547 0.144783
H23   H     H_    0.947367 0.409977 0.340446 0.141422
H24   H     H_    0.940314 0.603545 0.651806 0.142228
N1    N     N_R   0.499980 0.252470 0.500000 -0.085351
N2    N     N_R   0.499980 0.747530 0.500000 -0.082657
O1    O     O_R   0.369070 0.579480 0.500010 -0.630707
O2    O     O_R   0.369070 0.420520 0.500010 -0.638402
O3    O     O_R   0.499990 0.579480 0.314790 -0.607251
O4    O     O_R   0.499990 0.420520 0.314790 -0.622700
O5    O     O_R   0.630940 0.579480 0.499990 -0.617306
O6    O     O_R   0.630940 0.420520 0.499990 -0.623556
O7    O     O_R   0.500020 0.579480 0.685200 -0.629583
O8    O     O_R   0.500020 0.420520 0.685200 -0.627496
Zn1   Zn    Zn3+2 0.500010 0.606140 0.500000 0.940355
Zn2   Zn    Zn3+2 0.500010 0.393860 0.500000 0.933924
C35   C     C_R   0.407480 0.663821 0.127760 0.176343
C36   C     C_R   0.465952 0.737220 0.094796 -0.146106
C37   C     C_R   0.455723 0.827717 0.147465 -0.157198
C38   C     C_R   0.387025 0.846603 0.233048 -0.098248
C39   C     C_R   0.328456 0.774973 0.266481 -0.124361
C40   C     C_R   0.338242 0.684385 0.214067 -0.119871
H25   H     H_    0.518485 0.725786 0.026573 0.120705
H26   H     H_    0.500958 0.883461 0.121452 0.126878
H27   H     H_    0.379271 0.916752 0.273599 0.123313
H28   H     H_    0.275409 0.789611 0.333258 0.111630
H29   H     H_    0.292046 0.630012 0.241901 0.105307
C41   C     C_R   0.535567 0.311035 0.109326 0.190321
C42   C     C_R   0.624799 0.299480 0.068956 -0.178400
C43   C     C_R   0.671491 0.215228 0.091107 -0.156059
C44   C     C_R   0.630468 0.141233 0.154149 -0.139435
C45   C     C_R   0.542568 0.151328 0.195046 -0.130360
C46   C     C_R   0.495485 0.235430 0.173359 -0.105079
H30   H     H_    0.657308 0.352354 0.013384 0.125091
H31   H     H_    0.739409 0.206881 0.057913 0.132532
H32   H     H_    0.666625 0.075832 0.170566 0.119744
H33   H     H_    0.510265 0.093109 0.241385 0.136398
H34   H     H_    0.426551 0.240195 0.203308 0.102681
C47   C     C_3   0.775833 0.374727 0.320192 -0.390278
C48   C     C_3   0.794036 0.273718 0.364749 -0.852113
H35   H     H_    0.780718 0.267877 0.466693 0.252698
H36   H     H_    0.751011 0.222966 0.315328 0.257838
H37   H     H_    0.864618 0.253510 0.346347 0.239280
H38   H     H_    0.703474 0.386074 0.307899 0.227391
H39   H     H_    0.805454 0.383623 0.225363 0.184404
C49   C     C_3   0.765599 0.610677 0.694008 -0.410500
C50   C     C_3   0.761018 0.716754 0.668314 -0.830143
H40   H     H_    0.726656 0.730354 0.578623 0.268469
H41   H     H_    0.723422 0.753236 0.744925 0.238488
H42   H     H_    0.829018 0.746586 0.663535 0.241234
H43   H     H_    0.697497 0.584223 0.710575 0.207380
H44   H     H_    0.801798 0.598768 0.782956 0.188270

loop_
_geom_bond_atom_site_label_1
_geom_bond_atom_site_label_2
_ccdc_geom_bond_type
C15   C18   A    
C47   C48   S    
C11   C13   A    
C37   C38   A    
C30   H11   S    
C4    C8    A    
C1    O2    A    
C44   C45   A    
C49   H43   S    
C50   H40   S    
C23   H8    S    
C10   H24   S    
C18   H3    S    
C45   H33   S    
C17   O4    A    
C35   C40   A    
C22   H7    S    
C41   C46   A    
C29   C33   S    
O2    Zn2   S    
C2    C32   S    
C27   O8    A    
O3    Zn1   S    
C31   H12   S    
C37   H26   S    
O4    Zn2   S    
C39   H28   S    
C47   H39   S    
C2    C34   S    
C42   H30   S    
C50   H41   S    
C46   H34   S    
C17   C33   S    
C10   C12   A    
C15   H1    S    
C27   C34   S    
C38   C39   A    
C30   C34   S    
C26   O6    A    
C30   H13   S    
C24   C25   S    
C21   N2    A    
C4    C6    A    
C3    C8    A    
C10   C14   A    
C5    C7    A    
C9    C14   A    
C45   C46   A    
C48   H37   S    
O7    Zn1   S    
C39   C40   A    
C36   H25   S    
C19   H4    S    
C42   C43   A    
C31   C34   S    
C43   C44   A    
C20   N1    A    
C48   H36   S    
C9    C11   A    
C32   H16   S    
C2    H18   S    
C15   C24   A    
C20   C22   A    
C28   C33   S    
C50   H42   S    
C38   H27   S    
C21   C23   A    
C29   H10   S    
C22   C24   A    
C13   C26   S    
C28   C35   S    
C43   H31   S    
O1    Zn1   S    
C16   C25   A    
C20   H5    S    
C8    C14   S    
C4    H20   S    
C1    C7    S    
C26   O5    A    
C5    H21   S    
C6    H22   S    
C36   C37   A    
C3    C5    A    
C1    O1    A    
C40   H29   S    
C44   H32   S    
C6    C7    A    
C19   N2    A    
C28   H9    S    
C49   H44   S    
C31   H14   S    
C32   C33   S    
C28   C30   S    
C35   C36   A    
C29   C31   S    
C16   H2    S    
C3    H19   S    
C11   C47   S    
O6    Zn2   S    
C21   H6    S    
N2    Zn1   S    
C16   C19   A    
O5    Zn1   S    
C49   C50   S    
C9    H23   S    
C23   C25   A    
C48   H35   S    
C32   H15   S    
C12   C49   S    
C27   O7    A    
C2    H17   S    
N1    Zn2   S    
C18   N1    A    
C29   C41   S    
C12   C13   A    
O8    Zn2   S    
C41   C42   A    
C47   H38   S    
C17   O3    A    
