data_mof_unit_8153.cif
_audit_creation_date              2012-12-10T17:33:53-0500
_audit_creation_method            fapswitch 2.2
_symmetry_space_group_name_H-M    P1
_symmetry_Int_Tables_number       1
_space_group_crystal_system       triclinic
_cell_length_a                    10.62655
_cell_length_b                    11.978959
_cell_length_c                    12.825173
_cell_angle_alpha                 93.987648
_cell_angle_beta                  90.270628
_cell_angle_gamma                 86.257915
_cell_volume                      1625.15576648

loop_
_atom_site_label
_atom_site_type_symbol
_atom_type_description
_atom_site_fract_x
_atom_site_fract_y
_atom_site_fract_z
_atom_type_partial_charge
C1    C     C_R   0.494286 0.522951 0.700593 0.870840
C2    C     C_3   0.121477 0.497937 0.495716 0.141913
C3    C     C_3   0.067816 0.560313 0.401381 -0.405113
C4    C     C_3   0.067791 0.556768 0.598729 -0.412371
C5    C     C_R   0.502227 0.462438 0.188277 -0.055022
C6    C     C_R   0.482171 0.538342 0.812458 -0.100610
C7    C     C_R   0.389294 0.626189 0.971314 -0.219215
C8    C     C_R   0.401981 0.625249 0.862710 0.077878
C9    C     C_R   0.545117 0.455989 0.868497 -0.301015
C10   C     C_R   0.528529 0.455905 0.974510 0.182071
C11   C     C_R   0.451028 0.542184 0.026257 0.151396
C12   C     C_R   0.742306 0.499352 0.496530 0.871828
C13   C     C_R   0.437797 0.544339 0.133139 -0.272652
C14   C     C_R   0.575008 0.373888 0.137199 -0.181199
C15   C     C_R   0.588583 0.370807 0.029689 -0.206741
C16   C     C_R   0.377362 0.954392 0.406438 -0.325205
C17   C     C_R   0.389765 0.838054 0.414872 0.028917
C18   C     C_R   0.553282 0.858320 0.540022 -0.058564
C19   C     C_R   0.544417 0.975763 0.534104 0.092924
C20   C     C_R   0.455122 0.024260 0.466319 0.090733
C21   C     C_R   0.446323 0.141698 0.460336 -0.040107
C22   C     C_R   0.610180 0.161927 0.585178 0.055984
C23   C     C_R   0.501117 0.477287 0.299606 0.892607
C24   C     C_R   0.622272 0.045622 0.593897 -0.328349
C25   C     C_R   0.257715 0.499286 0.497832 0.834224
C26   C     C_3   0.938271 0.374385 0.480134 0.126983
C27   C     C_3   0.081523 0.375225 0.485142 -0.408903
C28   C     C_3   0.923104 0.565357 0.403719 -0.364581
C29   C     C_3   0.923914 0.552850 0.599433 -0.472732
C30   C     C_3   0.878850 0.497654 0.494070 0.107628
H1    H     H_    0.092982 0.645709 0.606115 0.183509
H2    H     H_    0.886368 0.654537 0.415428 0.182232
H3    H     H_    0.099293 0.647304 0.403814 0.178182
H4    H     H_    0.379884 0.611422 0.174033 0.143316
H5    H     H_    0.625175 0.310512 0.180633 0.190283
H6    H     H_    0.330954 0.690858 0.014276 0.132208
H7    H     H_    0.647488 0.303743 0.990158 0.143388
H8    H     H_    0.606124 0.390238 0.828858 0.153008
H9    H     H_    0.378416 0.180605 0.408612 0.125693
H10   H     H_    0.907080 0.325647 0.545154 0.130411
H11   H     H_    0.670441 0.215819 0.631048 0.120277
H12   H     H_    0.307742 0.989262 0.353701 0.151676
H13   H     H_    0.691868 0.010757 0.646657 0.142313
H14   H     H_    0.329679 0.784138 0.368843 0.123298
H15   H     H_    0.621021 0.819423 0.591886 0.122659
H16   H     H_    0.115996 0.329517 0.553590 0.162731
H17   H     H_    0.125190 0.330166 0.414116 0.205995
H18   H     H_    0.886376 0.532033 0.327213 0.198095
H19   H     H_    0.102688 0.516048 0.326835 0.174660
H20   H     H_    0.880148 0.639665 0.613037 0.189737
H21   H     H_    0.895086 0.504191 0.665250 0.161269
H22   H     H_    0.108634 0.514962 0.667238 0.162049
N1    N     N_R   0.523380 0.207800 0.519350 -0.096798
N2    N     N_R   0.476620 0.792180 0.480650 -0.100128
O1    O     O_R   0.506240 0.421700 0.658830 -0.620263
O2    O     O_R   0.491240 0.609310 0.646410 -0.634680
O3    O     O_R   0.692710 0.406190 0.506230 -0.603743
O4    O     O_R   0.677700 0.593810 0.493810 -0.628923
O5    O     O_R   0.508760 0.390690 0.353590 -0.606954
O6    O     O_R   0.493760 0.578300 0.341170 -0.622719
O7    O     O_R   0.322300 0.406190 0.506190 -0.631834
O8    O     O_R   0.307290 0.593810 0.493770 -0.636593
Zn1   Zn    Zn3+2 0.510020 0.374730 0.508290 0.959947
Zn2   Zn    Zn3+2 0.489980 0.625270 0.491710 0.928425
Br1   Br    Br    0.886952 0.293858 0.349882 -0.578390
C31   C     C_3   0.329270 0.712079 0.799788 -0.374775
C32   C     C_3   0.231395 0.791365 0.860378 -0.387400
C33   C     C_3   0.160140 0.868914 0.787526 -0.867119
H23   H     H_    0.226819 0.919821 0.747934 0.265410
H24   H     H_    0.107373 0.819311 0.727655 0.253814
H25   H     H_    0.091781 0.926499 0.833490 0.251704
H26   H     H_    0.162134 0.741698 0.898532 0.227651
H27   H     H_    0.279449 0.844204 0.920984 0.226660
H28   H     H_    0.398241 0.764463 0.764733 0.222489
H29   H     H_    0.278536 0.666519 0.735710 0.203684

loop_
_geom_bond_atom_site_label_1
_geom_bond_atom_site_label_2
_ccdc_geom_bond_type
C8    C31   S    
C11   C13   A    
C7    H6    S    
C2    C4    S    
C19   C20   A    
C6    C9    A    
C3    H19   S    
C7    C8    A    
C7    C11   A    
C26   C27   S    
C4    H22   S    
C3    C28   S    
C1    O2    A    
C18   C19   A    
C10   C15   A    
C22   H11   S    
C3    H3    S    
C31   H28   S    
C32   H26   S    
O7    Zn1   S    
C15   H7    S    
O8    Zn2   S    
C16   C17   A    
C21   H9    S    
O2    Zn2   S    
C2    C27   S    
C32   H27   S    
C9    C10   A    
C5    C13   A    
C4    C29   S    
C12   O4    A    
C31   C32   S    
O3    Zn1   S    
C22   N1    A    
C29   H20   S    
O4    Zn2   S    
C23   O6    A    
C32   C33   S    
C28   H2    S    
C14   H5    S    
C33   H23   S    
C6    C8    A    
C1    C6    S    
O1    Zn1   S    
C23   O5    A    
C29   C30   S    
C5    C23   S    
C16   C20   A    
C25   O7    A    
C5    C14   A    
C12   O3    A    
C27   H16   S    
C26   C30   S    
C22   C24   A    
C18   H15   S    
C16   H12   S    
C29   H21   S    
C27   H17   S    
C28   H18   S    
C12   C30   S    
C26   Br1   S    
O5    Zn1   S    
O6    Zn2   S    
C28   C30   S    
C19   C24   A    
C1    O1    A    
C17   H14   S    
C13   H4    S    
C21   N1    A    
N1    Zn1   S    
C26   H10   S    
N2    Zn2   S    
C33   H25   S    
C31   H29   S    
C9    H8    S    
C2    C3    S    
C2    C25   S    
C25   O8    A    
C4    H1    S    
C10   C11   A    
C18   N2    A    
C20   C21   A    
C33   H24   S    
C24   H13   S    
C14   C15   A    
C17   N2    A    
