data_mof_unit_12196.cif
_audit_creation_date              2012-12-11T16:56:20-0500
_audit_creation_method            fapswitch 2.2
_symmetry_space_group_name_H-M    P1
_symmetry_Int_Tables_number       1
_space_group_crystal_system       triclinic
_cell_length_a                    6.960833
_cell_length_b                    14.522467
_cell_length_c                    16.191427
_cell_angle_alpha                 90.648609
_cell_angle_beta                  90.331616
_cell_angle_gamma                 89.893506
_cell_volume                      1636.631623

loop_
_atom_site_label
_atom_site_type_symbol
_atom_type_description
_atom_site_fract_x
_atom_site_fract_y
_atom_site_fract_z
_atom_type_partial_charge
O1    O     O_R   0.505830 0.583360 0.413880 -0.538125
O2    O     O_R   0.175830 0.595460 0.585520 -0.552169
O3    O     O_R   0.005520 0.416640 0.586120 -0.542849
C1    C     C_R   0.344829 0.617191 0.614462 0.773782
O4    O     O_R   0.176120 0.594390 0.414490 -0.548163
O5    O     O_R   0.005810 0.415570 0.413870 -0.542193
C2    C     C_R   0.344442 0.616274 0.385975 0.710512
O6    O     O_R   0.505540 0.584430 0.586130 -0.517966
O7    O     O_3   0.339200 0.441330 0.500000 -0.372622
V1    V     V_3+5 0.064350 0.510880 0.500000 1.428132
O8    O     O_R   0.676100 0.404540 0.414480 -0.543896
C3    C     C_R   0.844952 0.382381 0.385877 0.688800
O9    O     O_R   0.675810 0.405610 0.585510 -0.532303
C4    C     C_R   0.845873 0.381667 0.611561 0.729240
V2    V     V_3+5 0.564340 0.489120 0.500000 1.464865
O10   O     O_3   0.839360 0.558670 0.500000 -0.371495
C5    C     C_2   0.721072 0.207966 0.781746 -0.036510
C6    C     C_2   0.879481 0.186594 0.827049 -0.334383
H1    H     H_    0.009186 0.226956 0.819573 0.153099
C7    C     C_2   0.720358 0.285817 0.723005 -0.199409
C8    C     C_2   0.862693 0.304407 0.669488 -0.201883
H2    H     H_    0.590947 0.327803 0.721451 0.149227
C9    C     C_R   0.731206 0.179011 0.244322 0.126817
C10   C     C_R   0.883311 0.179808 0.188000 -0.091207
C11   C     C_R   0.033448 0.242682 0.203200 -0.167849
H3    H     H_    0.154969 0.245210 0.162060 0.127325
C12   C     C_R   0.021551 0.307577 0.268205 -0.170319
H4    H     H_    0.134926 0.357915 0.275358 0.125365
C13   C     C_R   0.859017 0.311562 0.319743 -0.108755
C14   C     C_R   0.719046 0.243413 0.308443 0.112347
C15   C     C_3   0.506983 0.252637 0.298314 -0.408053
C16   C     C_3   0.520141 0.181820 0.228727 -0.407241
H5    H     H_    0.465099 0.322298 0.276883 0.164285
H6    H     H_    0.427521 0.227380 0.352905 0.191245
H7    H     H_    0.484780 0.210108 0.166977 0.166676
H8    H     H_    0.449458 0.115418 0.243331 0.184634
C17   C     C_R   0.280100 0.771573 0.678988 -0.098467
C18   C     C_R   0.353365 0.682077 0.685696 -0.167338
C19   C     C_R   0.428169 0.655178 0.763407 0.448202
C20   C     C_R   0.442314 0.720101 0.829427 -0.252273
H9    H     H_    0.506496 0.699263 0.887406 0.143717
C21   C     C_R   0.376480 0.811286 0.820339 -0.130177
C22   C     C_R   0.288385 0.834463 0.745309 0.007530
C23   C     C_3   0.334135 0.914204 0.690912 -0.450358
C24   C     C_3   0.332816 0.844993 0.618456 0.407459
H10   H     H_    0.474087 0.946729 0.706358 0.172656
H11   H     H_    0.213333 0.964507 0.690051 0.170612
C25   C     C_R   0.495260 0.676336 0.256445 0.009122
C26   C     C_R   0.351919 0.682515 0.316805 -0.092736
C27   C     C_R   0.223693 0.757673 0.312873 -0.199364
H12   H     H_    0.121124 0.767573 0.362147 0.144966
C28   C     C_R   0.243310 0.826132 0.251827 -0.026310
C29   C     C_R   0.379473 0.815705 0.187809 -0.129001
C30   C     C_R   0.508901 0.742031 0.193527 -0.022277
C31   C     C_3   0.722292 0.748468 0.206268 0.393850
C32   C     C_3   0.707891 0.672864 0.270817 -0.480162
H13   H     H_    0.751452 0.692419 0.334655 0.186060
H14   H     H_    0.767895 0.605165 0.250835 0.137958
O11   O     O_R   0.229930 0.912420 0.917160 -0.530937
O12   O     O_R   0.559420 0.902500 0.088780 -0.525674
O13   O     O_R   0.729660 0.081330 0.089380 -0.543869
C33   C     C_R   0.391277 0.882315 0.118648 0.705603
O14   O     O_R   0.559650 0.901420 0.917750 -0.544764
O15   O     O_R   0.729880 0.080250 0.917130 -0.541179
C34   C     C_R   0.390381 0.879674 0.888739 0.741799
O16   O     O_R   0.229700 0.913500 0.089410 -0.530664
O17   O     O_3   0.396250 0.055540 0.003280 -0.378034
V3    V     V_3+5 0.671130 0.986010 0.003260 1.484044
O18   O     O_R   0.059600 0.091310 0.917720 -0.530089
C35   C     C_R   0.889740 0.113556 0.889988 0.733744
O19   O     O_R   0.059370 0.092380 0.088750 -0.545690
C36   C     C_R   0.890839 0.114311 0.117479 0.714975
V4    V     V_3+5 0.171120 0.007820 0.003230 1.483597
O20   O     O_3   0.896130 0.938240 0.003240 -0.359467
C37   C     C_1   0.540622 0.160068 0.791091 0.348126
N1    N     N_1   0.396433 0.121647 0.798641 -0.350839
O21   O     O_3   0.501083 0.567494 0.773516 -0.554749
C38   C     C_3   0.355560 0.512136 0.807054 -0.257311
H15   H     H_    0.229957 0.506601 0.764376 0.129486
H16   H     H_    0.309389 0.538485 0.868677 0.146927
H17   H     H_    0.413536 0.441702 0.815761 0.157471
O22   O     O_3   0.507780 0.828165 0.575039 -0.555104
C39   C     C_3   0.676444 0.828654 0.624308 -0.177926
H18   H     H_    0.783767 0.783036 0.594291 0.171120
H19   H     H_    0.656456 0.802000 0.687504 0.128042
H20   H     H_    0.737060 0.899263 0.627383 0.153782
C40   C     C_1   0.176861 0.862615 0.559083 0.285349
N2    N     N_1   0.055803 0.877004 0.511660 -0.398469
C41   C     C_1   0.155570 0.915085 0.265684 0.372190
N3    N     N_1   0.088534 0.987119 0.276829 -0.371290
O23   O     O_3   0.785596 0.837623 0.232598 -0.552253
C42   C     C_3   0.723194 0.867091 0.311985 -0.179855
H21   H     H_    0.831247 0.848403 0.359385 0.161203
H22   H     H_    0.582279 0.840193 0.330818 0.141129
H23   H     H_    0.710307 0.943225 0.312110 0.168956
C43   C     C_1   0.826887 0.718657 0.131936 0.317806
N4    N     N_1   0.909490 0.695406 0.073464 -0.379469
C44   C     C_1   0.028573 0.244687 0.660414 0.323998
N5    N     N_1   0.160861 0.197116 0.652408 -0.344347

loop_
_geom_bond_atom_site_label_1
_geom_bond_atom_site_label_2
_ccdc_geom_bond_type
C6    C35   S    
C31   C32   S    
O14   C34   A    
C37   N1    T    
C3    C13   S    
C12   C13   A    
V4    O20   S    
C24   O22   S    
C38   H17   S    
C25   C32   S    
C1    O6    A    
O21   C38   S    
C23   C24   S    
C25   C30   A    
C17   C18   A    
O15   V3    S    
C4    C8    S    
C24   C40   S    
O5    C3    A    
C14   C15   S    
C38   H16   S    
V3    O20   S    
V2    O10   S    
C5    C7    S    
C32   H13   S    
O12   C33   A    
C6    H1    S    
C31   O23   S    
C30   C31   S    
O8    V2    S    
C39   H18   S    
C21   C34   S    
C27   C28   A    
C9    C10   A    
C15   H5    S    
O18   V4    S    
O17   V4    S    
O15   C35   A    
O7    V1    S    
O11   V4    S    
C23   H11   S    
C20   C21   A    
O9    C4    A    
C28   C41   S    
C23   H10   S    
C27   H12   S    
C33   O16   A    
O17   V3    S    
C9    C14   A    
C10   C11   A    
C2    C26   S    
O23   C42   S    
O19   V4    S    
C38   H15   S    
C11   H3    S    
C29   C30   A    
O16   V4    S    
O22   C39   S    
C42   H23   S    
C17   C22   A    
O2    C1    A    
C22   C23   S    
C16   H7    S    
C13   C14   A    
C29   C33   S    
C15   C16   S    
C43   N4    T    
C42   H22   S    
C5    C6    D    
C15   H6    S    
O3    C4    A    
O1    V2    S    
O13   C36   A    
C20   H9    S    
C39   H19   S    
C7    H2    S    
C44   N5    T    
O6    V2    S    
O9    V2    S    
C21   C22   A    
C17   C24   S    
O2    V1    S    
C16   H8    S    
C19   C20   A    
C28   C29   A    
C10   C36   S    
O4    C2    A    
C19   O21   S    
O14   V3    S    
C25   C26   A    
O1    C2    A    
C1    C18   S    
C31   C43   S    
O5    V1    S    
O8    C3    A    
C11   C12   A    
C9    C16   S    
O7    V2    S    
O4    V1    S    
O3    V1    S    
V1    O10   S    
O11   C34   A    
C8    C44   S    
O13   V3    S    
C18   C19   A    
C42   H21   S    
C32   H14   S    
O18   C35   A    
O19   C36   A    
C39   H20   S    
C7    C8    D    
O12   V3    S    
C40   N2    T    
C26   C27   A    
C12   H4    S    
C5    C37   S    
C41   N3    T    
