data_mof_unit_18390.cif
_audit_creation_date              2012-10-26T19:06:53-0400
_audit_creation_method            fapswitch 2.2
_symmetry_space_group_name_H-M    P1
_symmetry_Int_Tables_number       1
_space_group_crystal_system       triclinic
_cell_length_a                    12.311032
_cell_length_b                    13.176705
_cell_length_c                    27.81198
_cell_angle_alpha                 77.769294
_cell_angle_beta                  101.130082
_cell_angle_gamma                 116.535916
_cell_volume                      3919.67593948

loop_
_atom_site_label
_atom_site_type_symbol
_atom_type_description
_atom_site_fract_x
_atom_site_fract_y
_atom_site_fract_z
_atom_type_partial_charge
C1    C     C_R   0.854879 0.286556 0.504325 0.532022
C2    C     C_R   0.899070 0.410307 0.026068 0.018130
C3    C     C_R   0.095809 0.582687 0.025194 0.018214
C4    C     C_R   0.999067 0.499420 0.592400 0.549583
C5    C     C_R   0.998073 0.496298 0.050950 0.033706
C6    C     C_R   0.801719 0.329333 0.053106 -0.140338
C7    C     C_R   0.803482 0.330612 0.103045 -0.112715
C8    C     C_R   0.901836 0.412831 0.128098 0.024551
C9    C     C_R   0.999317 0.495958 0.102232 -0.027209
C10   C     C_R   0.097982 0.578832 0.127776 0.024811
C11   C     C_R   0.097040 0.577478 0.178306 0.396814
C12   C     C_R   0.086326 0.481166 0.730700 -0.058987
C13   C     C_R   0.904658 0.414224 0.178664 0.396425
C14   C     C_R   0.088232 0.473938 0.289410 -0.059003
C15   C     C_R   0.088331 0.475105 0.339437 -0.146195
C16   C     C_R   0.145081 0.713414 0.492795 0.551825
C17   C     C_R   0.914091 0.522444 0.319175 -0.147684
C18   C     C_R   0.914338 0.521400 0.269197 -0.057946
C19   C     C_R   0.001243 0.497034 0.254117 0.240672
C20   C     C_R   0.900106 0.408352 0.975233 0.018251
C21   C     C_R   0.995520 0.497186 0.949065 0.033682
C22   C     C_R   0.092108 0.585632 0.973524 0.018162
C23   C     C_R   0.993641 0.496831 0.745998 0.242413
C24   C     C_R   0.809091 0.319888 0.949446 -0.140646
C25   C     C_R   0.178768 0.674741 0.894964 -0.113438
C26   C     C_R   0.194714 0.663000 0.052362 -0.140418
C27   C     C_R   0.195346 0.661105 0.102513 -0.112911
C28   C     C_R   0.000491 0.499968 0.407613 0.548809
C29   C     C_R   0.181571 0.674793 0.945097 -0.140513
C30   C     C_R   0.275454 0.021394 0.434294 -0.125996
C31   C     C_R   0.227927 0.834533 0.482700 -0.000754
C32   C     C_R   0.815462 0.085357 0.536833 -0.129102
C33   C     C_R   0.736630 0.970537 0.546683 -0.135051
C34   C     C_R   0.994402 0.497541 0.897791 -0.027209
C35   C     C_R   0.613247 0.932802 0.529346 -0.116777
C36   C     C_R   0.566484 0.009439 0.499822 0.033591
C37   C     C_R   0.650016 0.123731 0.485043 0.024181
C38   C     C_R   0.439817 0.976141 0.483993 0.029392
C39   C     C_R   0.400169 0.053306 0.450194 0.050889
C40   C     C_R   0.902429 0.410537 0.822664 0.395878
C41   C     C_R   0.485514 0.160293 0.431626 -0.133677
C42   C     C_R   0.608661 0.194351 0.448109 -0.116516
C43   C     C_R   0.350929 0.868512 0.501018 -0.132132
C44   C     C_R   0.189634 0.912050 0.450208 -0.132388
C45   C     C_R   0.901229 0.409082 0.873191 0.024833
C46   C     C_R   0.773047 0.163555 0.507207 -0.000924
C47   C     C_R   0.345127 0.327863 0.580483 -0.004228
C48   C     C_R   0.759021 0.645091 0.433111 0.047886
C49   C     C_R   0.662150 0.676338 0.418846 -0.156136
C50   C     C_R   0.558965 0.621333 0.444213 -0.134204
C51   C     C_R   0.551302 0.533754 0.484535 -0.005784
C52   C     C_R   0.083970 0.584907 0.820449 0.396245
C53   C     C_R   0.653241 0.505154 0.497807 0.179997
C54   C     C_R   0.447110 0.474034 0.512174 -0.026169
C55   C     C_R   0.446991 0.387276 0.552705 0.048664
C56   C     C_R   0.809757 0.320602 0.899507 -0.114063
C57   C     C_R   0.548330 0.361569 0.564524 -0.177320
C58   C     C_R   0.648177 0.419063 0.538007 -0.106463
C59   C     C_R   0.342332 0.496835 0.501261 0.030026
C60   C     C_R   0.245609 0.355890 0.567020 0.053825
C61   C     C_R   0.902136 0.512510 0.710938 -0.061403
C62   C     C_R   0.903650 0.513215 0.660867 -0.152419
C63   C     C_R   0.088026 0.481737 0.680688 -0.145660
C64   C     C_3   0.338744 0.235709 0.624509 -0.295614
C65   C     C_3   0.412991 0.288179 0.670864 -0.425144
C66   C     C_R   0.086547 0.586300 0.870986 0.024352
C67   C     C_R   0.996914 0.498185 0.645268 0.003700
C68   C     C_R   0.001095 0.499254 0.354789 0.003131
Cu1   Cu    Cu3+1 0.098270 0.475420 0.511360 0.928762
Cu2   Cu    Cu3+1 0.901730 0.524580 0.488640 0.918021
H1    H     H_    0.160834 0.469654 0.669813 0.128865
H2    H     H_    0.457018 0.218045 0.404127 0.113540
H3    H     H_    0.244764 0.079891 0.408425 0.112571
H4    H     H_    0.157065 0.468556 0.757657 0.130260
H5    H     H_    0.374746 0.808183 0.528250 0.120988
H6    H     H_    0.909448 0.113405 0.553501 0.128210
H7    H     H_    0.557775 0.842605 0.538826 0.106324
H8    H     H_    0.770656 0.910803 0.569245 0.123547
H9    H     H_    0.670801 0.275648 0.430356 0.154909
H10   H     H_    0.166768 0.312574 0.587468 0.120868
H11   H     H_    0.552844 0.296370 0.594763 0.120560
H12   H     H_    0.830279 0.524790 0.722520 0.128495
H13   H     H_    0.334537 0.560746 0.471263 0.123515
H14   H     H_    0.838795 0.688263 0.413262 0.125481
H15   H     H_    0.737854 0.250814 0.881593 0.164104
H16   H     H_    0.487116 0.649420 0.431477 0.105228
H17   H     H_    0.667051 0.743479 0.388027 0.114451
H18   H     H_    0.719926 0.392643 0.550818 0.185894
H19   H     H_    0.156470 0.456896 0.366009 0.129408
H20   H     H_    0.155507 0.454748 0.278022 0.131411
H21   H     H_    0.726652 0.266561 0.121954 0.166220
H22   H     H_    0.721052 0.264338 0.036732 0.110094
H23   H     H_    0.249762 0.744881 0.875020 0.165199
H24   H     H_    0.736477 0.247094 0.966839 0.109578
H25   H     H_    0.831926 0.525574 0.634465 0.128695
H26   H     H_    0.510572 0.340735 0.665210 0.159496
H27   H     H_    0.375844 0.343175 0.680591 0.152105
H28   H     H_    0.407068 0.218760 0.702302 0.159145
H29   H     H_    0.242600 0.183366 0.632725 0.134226
H30   H     H_    0.369418 0.174448 0.616230 0.152080
H31   H     H_    0.274777 0.727947 0.036296 0.109890
H32   H     H_    0.845863 0.541484 0.329851 0.129316
H33   H     H_    0.273142 0.724838 0.121461 0.165400
H34   H     H_    0.847147 0.539817 0.242088 0.133024
H35   H     H_    0.254587 0.747591 0.960138 0.109885
H36   H     H_    0.094483 0.886687 0.435574 0.125158
N1    N     N_R   0.993082 0.497570 0.797446 -0.396854
N2    N     N_R   0.001175 0.496005 0.202627 -0.397255
N3    N     N_R   0.246290 0.438210 0.528570 -0.246502
N4    N     N_R   0.754320 0.561170 0.471730 -0.236010
O1    O     O_R   0.972510 0.318140 0.514280 -0.502183
O2    O     O_R   0.082990 0.479230 0.439860 -0.503159
O3    O     O_R   0.917010 0.520730 0.420680 -0.514044
O4    O     O_2   0.814419 0.325149 0.799014 -0.506592
O5    O     O_2   0.812109 0.334033 0.203798 -0.500710
O6    O     O_2   0.171210 0.670461 0.794398 -0.502085
O7    O     O_2   0.190510 0.657679 0.202832 -0.501427
O8    O     O_R   0.806530 0.359640 0.495100 -0.528917
O9    O     O_R   0.082990 0.479270 0.579320 -0.503522
O10   O     O_R   0.917010 0.520770 0.560140 -0.519554
O11   O     O_R   0.193470 0.640360 0.504900 -0.505935
O12   O     O_R   0.027490 0.681860 0.485720 -0.501698

loop_
_geom_bond_atom_site_label_1
_geom_bond_atom_site_label_2
_ccdc_geom_bond_type
C53   N4    A    
C10   C27   A    
C48   N4    A    
C25   H23   S    
C8    C13   A    
C22   C29   A    
C12   H4    S    
C41   C42   A    
C49   H17   S    
C35   C36   A    
C16   O11   A    
C29   H35   S    
C34   C66   A    
C56   H15   S    
C7    C8    A    
C39   C41   A    
C28   O2    A    
C16   C31   S    
C64   H29   S    
C12   C23   A    
C26   C27   A    
C31   C43   A    
C62   C67   A    
C36   C37   A    
C28   C68   S    
C59   H13   S    
C65   H28   S    
C61   H12   S    
C26   H31   S    
C38   C39   A    
Cu1   O2    S    
C1    C46   S    
C18   C19   A    
C37   C42   A    
C16   O12   A    
C14   H20   S    
C60   N3    A    
Cu2   N4    S    
C59   N3    A    
C47   C60   A    
Cu1   N3    S    
C65   H26   S    
C40   O4    S    
C20   C24   A    
C52   N1    A    
Cu2   O10   S    
C8    C9    A    
C4    O9    A    
C9    C10   A    
C19   N2    S    
C7    H21   S    
C42   H9    S    
C21   C22   A    
C43   H5    S    
C30   C44   A    
C2    C6    A    
C13   N2    A    
C50   C51   A    
C54   C59   A    
C52   O6    S    
Cu2   O3    S    
C25   C29   A    
C40   C45   A    
C63   C67   A    
C31   C44   A    
C2    C20   A    
C45   C56   A    
C28   O3    A    
C47   C64   S    
C30   H3    S    
C21   C34   A    
C35   H7    S    
C48   H14   S    
C51   C53   A    
C17   H32   S    
C5    C9    A    
C24   H24   S    
C15   H19   S    
Cu2   O12   S    
Cu1   O11   S    
C23   N1    S    
C17   C18   A    
C34   C45   A    
C18   H34   S    
C13   O5    S    
C40   N1    A    
C48   C49   A    
C63   H1    S    
C55   C57   A    
C57   H11   S    
C2    C5    A    
C11   O7    S    
C52   C66   A    
C47   C55   A    
C12   C63   A    
C54   C55   A    
C60   H10   S    
C17   C68   A    
C32   C46   A    
C14   C19   A    
C3    C26   A    
C25   C66   A    
C3    C5    A    
C58   H18   S    
C32   H6    S    
C4    C67   S    
C53   C58   A    
C6    C7    A    
C44   H36   S    
C24   C56   A    
C41   H2    S    
C51   C54   A    
C32   C33   A    
C36   C38   A    
C64   H30   S    
C65   H27   S    
C38   C43   A    
C64   C65   S    
Cu1   O1    S    
C57   C58   A    
Cu2   O8    S    
C6    H22   S    
C15   C68   A    
C27   H33   S    
C33   C35   A    
Cu1   O9    S    
C30   C39   A    
C1    O8    A    
C61   C62   A    
C33   H8    S    
Cu1   Cu2   S    
C10   C11   A    
C50   H16   S    
C23   C61   A    
C20   C21   A    
C49   C50   A    
C11   N2    A    
C14   C15   A    
C4    O10   A    
C3    C22   A    
C37   C46   A    
C62   H25   S    
C1    O1    A    
