data_mof_unit_9532.cif
_audit_creation_date              2013-03-05T15:39:32-0500
_audit_creation_method            fapswitch 2.2
_symmetry_space_group_name_H-M    P1
_symmetry_Int_Tables_number       1
_space_group_crystal_system       triclinic
_cell_length_a                    19.70442
_cell_length_b                    17.03289
_cell_length_c                    15.487366
_cell_angle_alpha                 90.009004
_cell_angle_beta                  53.711217
_cell_angle_gamma                 89.85887
_cell_volume                      4189.7316729

loop_
_atom_site_label
_atom_site_type_symbol
_atom_site_description
_atom_site_fract_x
_atom_site_fract_y
_atom_site_fract_z
_atom_type_partial_charge
C1    C     C_R   0.373989 0.197084 0.996683 -0.092181
C2    C     C_R   0.374347 0.802956 0.996767 -0.129688
C3    C     C_R   0.840563 0.675429 0.048555 -0.060108
C4    C     C_R   0.874323 0.302617 0.996510 -0.140468
H1    H     H_    0.382105 0.251891 0.024333 0.129477
H2    H     H_    0.383523 0.748104 0.023476 0.079938
H3    H     H_    0.831606 0.724683 0.097873 0.093043
H4    H     H_    0.882559 0.247825 0.024246 0.077777
N1    N     N_R   0.408680 0.130160 0.995800 -0.040701
N2    N     N_R   0.408680 0.869840 0.995800 -0.046210
N3    N     N_R   0.908680 0.630160 0.995800 -0.035130
N4    N     N_R   0.908680 0.369840 0.995800 -0.047034
C5    C     C_R   0.361676 0.817379 0.217093 -0.140039
C6    C     C_R   0.357679 0.179689 0.217131 -0.099547
C7    C     C_R   0.854550 0.323746 0.217569 -0.128529
C8    C     C_R   0.896772 0.699179 0.207590 -0.125446
H5    H     H_    0.347026 0.765576 0.191146 0.092355
H6    H     H_    0.342026 0.231086 0.191663 0.094042
H7    H     H_    0.838245 0.272401 0.192935 0.093315
H8    H     H_    0.896153 0.755293 0.175552 0.125642
N5    N     N_R   0.421680 0.867580 0.153120 -0.040716
N6    N     N_R   0.421680 0.132420 0.153120 -0.028543
N7    N     N_R   0.921680 0.367580 0.153120 -0.040012
N8    N     N_R   0.921680 0.632420 0.153120 -0.033913
C9    C     C_R   0.364711 0.889010 0.897914 -0.143763
C10   C     C_R   0.365200 0.111125 0.897226 -0.137643
C11   C     C_R   0.865750 0.388116 0.896719 -0.156386
C12   C     C_R   0.829501 0.587637 0.951669 -0.134570
H9    H     H_    0.360277 0.914576 0.837458 0.094908
H10   H     H_    0.361492 0.085581 0.836170 0.101012
H11   H     H_    0.862417 0.413164 0.835128 0.091263
H12   H     H_    0.807959 0.553760 0.913161 0.110786
N9    N     N_R   0.403730 0.921770 0.935950 -0.042189
N10   N     N_R   0.403730 0.078230 0.935950 -0.046432
N11   N     N_R   0.903730 0.421770 0.935950 -0.042162
N12   N     N_R   0.903730 0.578230 0.935950 -0.051237
C13   C     C_R   0.366642 0.089049 0.315379 -0.140060
C14   C     C_R   0.371310 0.907653 0.315408 -0.139392
C15   C     C_R   0.904656 0.607773 0.304093 -0.149214
C16   C     C_R   0.861158 0.417380 0.314603 -0.139502
H13   H     H_    0.360395 0.060387 0.381660 0.088207
H14   H     H_    0.366794 0.935801 0.380896 0.083429
H15   H     H_    0.908034 0.578488 0.363369 0.087945
H16   H     H_    0.850536 0.452142 0.379948 0.089203
N13   N     N_R   0.426630 0.075970 0.212960 -0.039407
N14   N     N_R   0.426630 0.924030 0.212960 -0.034580
N15   N     N_R   0.926630 0.575970 0.212960 -0.037761
N16   N     N_R   0.926630 0.424030 0.212960 -0.037278
C17   C     C_R   0.346881 0.187134 0.934010 0.130789
C18   C     C_R   0.346337 0.813128 0.935112 0.158616
C19   C     C_R   0.787959 0.649142 0.024134 0.113078
C20   C     C_R   0.847273 0.311981 0.933699 0.166700
C21   C     C_R   0.328715 0.841949 0.319545 0.015512
C22   C     C_R   0.322035 0.153415 0.319604 -0.010231
C23   C     C_R   0.816087 0.352844 0.320059 0.005893
C24   C     C_R   0.884747 0.685045 0.302886 -0.003261
C25   C     C_R   0.661649 0.175877 0.953325 -0.059638
C26   C     C_R   0.616074 0.799139 0.021931 -0.016892
C27   C     C_R   0.159286 0.678592 0.957038 -0.070563
C28   C     C_R   0.159830 0.321641 0.956084 -0.146673
H17   H     H_    0.674677 0.225623 0.903333 0.103166
H18   H     H_    0.599520 0.741985 0.009916 0.080788
H19   H     H_    0.171351 0.728633 0.907707 0.099213
H20   H     H_    0.171930 0.271432 0.906981 0.122603
N17   N     N_R   0.591320 0.134600 0.004200 -0.032337
N18   N     N_R   0.591320 0.865400 0.004200 -0.058862
N19   N     N_R   0.091320 0.634600 0.004200 -0.033223
N20   N     N_R   0.091320 0.365400 0.004200 -0.054846
C29   C     C_R   0.647559 0.825358 0.779880 0.011353
C30   C     C_R   0.600021 0.199183 0.791673 -0.030676
C31   C     C_R   0.100243 0.300961 0.791760 -0.049571
C32   C     C_R   0.099412 0.698737 0.791527 -0.045576
N21   N     N_R   0.578320 0.867660 0.846880 -0.074201
N22   N     N_R   0.578320 0.132340 0.846880 -0.040063
N23   N     N_R   0.078320 0.367660 0.846880 -0.071211
N24   N     N_R   0.078320 0.632340 0.846880 -0.042847
C33   C     C_R   0.591591 0.105708 0.697781 -0.106931
C34   C     C_R   0.640051 0.921469 0.686189 -0.131618
C35   C     C_R   0.092459 0.604069 0.697229 -0.071662
C36   C     C_R   0.091817 0.395178 0.697754 -0.099034
H21   H     H_    0.583069 0.075674 0.643385 0.083233
H22   H     H_    0.650096 0.959337 0.624019 0.107484
H23   H     H_    0.086955 0.571987 0.641453 0.084791
H24   H     H_    0.085264 0.426811 0.642595 0.086490
N25   N     N_R   0.573370 0.074390 0.787040 -0.044286
N26   N     N_R   0.573370 0.925610 0.787040 -0.049837
N27   N     N_R   0.073370 0.574390 0.787040 -0.047226
N28   N     N_R   0.073370 0.425610 0.787040 -0.041785
C37   C     C_R   0.632476 0.894795 0.106759 -0.160850
C38   C     C_R   0.669615 0.081823 0.050537 -0.149945
C39   C     C_R   0.165844 0.412552 0.057785 -0.143488
C40   C     C_R   0.164873 0.588087 0.059582 -0.152194
H25   H     H_    0.638400 0.922928 0.164580 0.093844
H26   H     H_    0.690427 0.048207 0.090049 0.104128
H27   H     H_    0.182611 0.438772 0.105994 0.089312
H28   H     H_    0.180875 0.562342 0.108894 0.093559
N29   N     N_R   0.596270 0.927870 0.064040 -0.044144
N30   N     N_R   0.596270 0.072130 0.064040 -0.049729
N31   N     N_R   0.096270 0.427870 0.064040 -0.042031
N32   N     N_R   0.096270 0.572130 0.064040 -0.045480
Ni1   Ni    Ni4+2 0.500000 0.131190 0.000000 0.284844
Ni2   Ni    Ni4+2 0.500000 0.868810 0.000000 0.196980
Ni3   Ni    Ni4+2 0.000000 0.631190 0.000000 0.284470
Ni4   Ni    Ni4+2 0.000000 0.368810 0.000000 0.200709
Ni5   Ni    Ni4+2 0.488650 1.000000 0.862740 0.201903
Ni6   Ni    Ni4+2 0.988650 0.500000 0.862740 0.207050
Ni7   Ni    Ni4+2 0.511350 1.000000 0.137260 0.208892
Ni8   Ni    Ni4+2 0.011350 0.500000 0.137260 0.208674
C41   C     C_R   0.711534 0.144925 0.980822 0.114266
C42   C     C_R   0.645993 0.815411 0.080205 0.138167
C43   C     C_R   0.206937 0.650031 0.988785 0.123149
C44   C     C_R   0.208161 0.350708 0.986444 0.161897
C45   C     C_R   0.687795 0.857701 0.677066 -0.050706
C46   C     C_R   0.611753 0.183294 0.695498 -0.113944
C47   C     C_R   0.110966 0.317246 0.695917 -0.070780
C48   C     C_R   0.111937 0.681676 0.695048 -0.116398
C49   C     C_3   0.189115 0.144083 0.500636 -0.401770
C50   C     C_3   0.192767 0.851825 0.496275 -0.389894
C51   C     C_3   0.751625 0.695844 0.474949 -0.384190
C52   C     C_3   0.680561 0.358146 0.502126 -0.395070
H29   H     H_    0.212483 0.093691 0.522111 0.163908
H30   H     H_    0.213214 0.904234 0.518276 0.154716
H31   H     H_    0.759253 0.636671 0.498900 0.155795
H32   H     H_    0.700390 0.411743 0.522814 0.152596
H33   H     H_    0.157114 0.119667 0.466744 0.169957
H34   H     H_    0.162615 0.873218 0.458463 0.174220
H35   H     H_    0.719993 0.687581 0.435192 0.162333
H36   H     H_    0.646792 0.377584 0.468298 0.167478
C53   C     C_3   0.125717 0.191675 0.602246 -0.410196
C54   C     C_3   0.128359 0.805370 0.598115 -0.422081
C55   C     C_3   0.695635 0.745427 0.574928 -0.441784
C56   C     C_3   0.620718 0.309508 0.604462 -0.422586
H37   H     H_    0.640539 0.767166 0.578730 0.170367
H38   H     H_    0.560486 0.299308 0.614887 0.172674
H39   H     H_    0.066293 0.199392 0.609777 0.161829
H40   H     H_    0.070122 0.796320 0.603240 0.176671
H41   H     H_    0.108596 0.157193 0.672529 0.217028
H42   H     H_    0.109606 0.841221 0.668334 0.153605
H43   H     H_    0.670230 0.706896 0.645454 0.150618
H44   H     H_    0.604427 0.344638 0.674125 0.149807
H45   H     H_    0.345450 0.175989 0.469365 0.135443
H46   H     H_    0.345003 0.825574 0.477257 0.129061
H47   H     H_    0.902755 0.683775 0.462127 0.132298
H48   H     H_    0.834692 0.338014 0.476671 0.127235
H49   H     H_    0.809141 0.737617 0.618054 0.150120
H50   H     H_    0.742963 0.283202 0.632804 0.045909
H51   H     H_    0.248183 0.223351 0.628761 0.148828
H52   H     H_    0.244717 0.778735 0.635862 0.050671
C57   C     C_3   0.313301 0.225446 0.460038 -0.432647
C58   C     C_3   0.316184 0.774412 0.465719 -0.420264
C59   C     C_3   0.885254 0.742564 0.449572 -0.448709
C60   C     C_3   0.808616 0.285330 0.463433 -0.407106
C61   C     C_3   0.825679 0.819597 0.371404 -0.407436
C62   C     C_3   0.728429 0.231769 0.396802 -0.408009
C63   C     C_3   0.227890 0.270458 0.396726 -0.409581
C64   C     C_3   0.238256 0.723796 0.394403 -0.415735
C65   C     C_3   0.263545 0.197373 0.417227 0.374739
C66   C     C_3   0.269680 0.798853 0.416988 0.365157
C67   C     C_3   0.838606 0.735430 0.397317 0.372482
C68   C     C_3   0.758665 0.308225 0.418666 0.362090
H53   H     H_    0.887447 0.848815 0.314517 0.181376
H54   H     H_    0.783029 0.194123 0.337476 0.168321
H55   H     H_    0.279604 0.309702 0.336006 0.170008
H56   H     H_    0.292114 0.684903 0.336356 0.167502
H57   H     H_    0.792244 0.817713 0.333414 0.145591
H58   H     H_    0.692601 0.246060 0.363986 0.156033
H59   H     H_    0.191151 0.252202 0.366581 0.158746
H60   H     H_    0.204038 0.739555 0.359802 0.159923
C69   C     C_3   0.746033 0.815701 0.573967 0.312317
C70   C     C_3   0.662552 0.229332 0.595508 0.335405
C71   C     C_3   0.163790 0.273318 0.594967 0.357616
C72   C     C_3   0.166909 0.724681 0.594348 0.334605
C73   C     C_3   0.827213 0.784280 0.558994 -0.168289
C74   C     C_3   0.751120 0.243170 0.570616 -0.160621
C75   C     C_3   0.253312 0.264047 0.569303 -0.193812
C76   C     C_3   0.254003 0.736570 0.574847 -0.166059
C77   C     C_3   0.772604 0.867536 0.475079 -0.335768
C78   C     C_3   0.673053 0.184871 0.500038 -0.359597
C79   C     C_3   0.171805 0.317019 0.500424 -0.385223
C80   C     C_3   0.179991 0.678643 0.498091 -0.361079
H61   H     H_    0.716443 0.888111 0.480911 0.131886
H62   H     H_    0.610442 0.175530 0.516553 0.138447
H63   H     H_    0.108617 0.324963 0.518024 0.139668
H64   H     H_    0.118490 0.669611 0.511338 0.139088
H65   H     H_    0.807578 0.920433 0.470197 0.222306
H66   H     H_    0.701993 0.126006 0.487662 0.193366
H67   H     H_    0.199539 0.376357 0.487659 0.205499
H68   H     H_    0.207971 0.619691 0.488570 0.204884
H69   H     H_    0.363932 0.266342 0.400829 0.197260
H70   H     H_    0.369013 0.733991 0.409125 0.189293
H71   H     H_    0.945309 0.774921 0.394655 0.197343
H72   H     H_    0.863700 0.248339 0.403336 0.189042
C81   C     C_2   0.279714 0.688438 0.969104 -0.190139
C82   C     C_2   0.282030 0.312895 0.965055 -0.199860
C83   C     C_2   0.784990 0.183892 0.960759 -0.182837
C84   C     C_2   0.688633 0.758427 0.102976 -0.214682
H73   H     H_    0.297585 0.670983 0.020394 0.124533
H74   H     H_    0.300854 0.331174 0.015022 0.126288
H75   H     H_    0.804460 0.165337 0.009996 0.127634
H76   H     H_    0.714376 0.780233 0.143731 0.125525
C85   C     C_2   0.811837 0.251517 0.905812 -0.213085
C86   C     C_2   0.711920 0.688412 0.052389 -0.148857
C87   C     C_2   0.309279 0.753535 0.909605 -0.208526
C88   C     C_2   0.310902 0.246982 0.906899 -0.201561
H77   H     H_    0.795162 0.268928 0.853302 0.118748
H78   H     H_    0.685424 0.665916 0.012923 0.147153
H79   H     H_    0.293491 0.769917 0.855842 0.119177
H80   H     H_    0.294559 0.230044 0.853891 0.137626
C89   C     C_2   0.872839 0.846279 0.576353 0.508722
H81   H     H_    0.867901 0.846113 0.649956 0.050074
O1    O     O_2   0.913629 0.897709 0.510271 -0.575594
C90   C     C_2   0.792662 0.169527 0.574856 0.520242
H82   H     H_    0.797369 0.161629 0.640693 -0.000148
O2    O     O_2   0.819494 0.118165 0.506905 -0.580876
C91   C     C_2   0.290229 0.339380 0.577573 0.520251
H83   H     H_    0.295502 0.346649 0.643023 0.009496
O3    O     O_2   0.312763 0.392667 0.513291 -0.555820
C92   C     C_2   0.290900 0.662788 0.587306 0.527633
H84   H     H_    0.293377 0.657526 0.655254 -0.008428
O4    O     O_2   0.316605 0.608554 0.523494 -0.557090
C93   C     C_2   0.663440 0.749274 0.809536 0.375922
H85   H     H_    0.614870 0.704648 0.844946 0.010592
O5    O     O_2   0.727788 0.737709 0.802263 -0.619340
C94   C     C_2   0.590133 0.277038 0.839951 0.407646
H86   H     H_    0.626432 0.327027 0.791722 0.002487
O6    O     O_2   0.541524 0.285817 0.936824 -0.599541
C95   C     C_2   0.085962 0.224261 0.844387 0.404936
H87   H     H_    0.033852 0.218241 0.928323 0.035814
O7    O     O_2   0.135254 0.169738 0.799414 -0.626706
C96   C     C_2   0.087055 0.776747 0.840326 0.436755
H88   H     H_    0.124680 0.826619 0.793053 0.001002
O8    O     O_2   0.034560 0.785690 0.936636 -0.592136

loop_
_geom_bond_atom_site_label_1
_geom_bond_atom_site_label_2
_geom_bond_distance
_ccdc_geom_bond_type
C26   H18   1.078014 S    
C58   C76   1.525173 S    
C60   C68   1.551596 S    
C59   C73   1.544727 S    
C63   C65   1.550448 S    
N18   Ni2   1.839430 S    
C3    N3    1.326736 A    
N17   Ni1   1.839710 S    
H46   C58   1.111904 S    
C36   H24   1.080340 S    
C94   H86   1.079484 S    
C35   N27   1.309038 A    
N19   Ni3   1.839710 S    
C82   H74   1.083344 S    
C18   C87   1.436852 S    
C30   C46   1.391856 A    
C7    H7    1.077047 S    
N31   Ni8   1.827190 S    
C14   C21   1.379130 A    
C29   C45   1.405557 A    
C21   C66   1.447758 S    
H52   C76   1.112072 S    
N6    Ni1   1.916640 S    
C32   C96   1.475224 S    
C4    C20   1.367181 A    
C74   C90   1.518659 S    
H47   C59   1.112280 S    
N18   N29   1.451825 A    
N3    N12   1.325991 A    
N17   N30   1.451687 A    
N4    Ni4   1.838695 S    
C24   C67   1.457337 S    
C3    H3    1.076039 S    
C91   O3    1.221105 D    
C52   C56   1.543277 S    
C12   C19   1.391051 A    
H51   C75   1.108616 S    
C79   H67   1.110928 S    
C64   H60   1.113855 S    
C40   H28   1.076767 S    
C77   H65   1.110780 S    
C48   C72   1.465174 S    
C46   C70   1.477953 S    
C20   C85   1.447441 S    
C50   H30   1.113320 S    
C30   C94   1.476996 S    
C49   H29   1.113008 S    
C9    C18   1.374468 A    
C80   H68   1.111292 S    
C37   N29   1.349414 A    
C27   N19   1.317477 A    
C53   H39   1.113343 S    
C52   H32   1.112914 S    
C10   N10   1.336774 A    
C25   C41   1.385088 A    
C88   H80   1.083614 S    
C54   C72   1.552966 S    
C35   H23   1.080557 S    
C1    C17   1.367583 A    
C30   N22   1.334191 A    
C51   C55   1.516861 S    
C29   N21   1.332811 A    
C54   H42   1.102321 S    
N29   Ni7   1.827190 S    
C4    N4    1.328330 A    
C2    C18   1.367424 A    
C83   H75   1.083667 S    
C19   C86   1.450067 S    
C4    H4    1.078760 S    
C60   C74   1.527422 S    
C34   N26   1.319543 A    
N24   Ni3   1.916715 S    
C7    N7    1.321226 A    
C17   C88   1.437701 S    
C33   N25   1.318384 A    
C73   C89   1.512083 S    
C8    N8    1.323781 A    
C93   O5    1.220192 D    
C76   C92   1.518812 S    
C35   C48   1.372205 A    
C6    N6    1.317672 A    
N10   Ni5   1.898361 S    
C71   C79   1.565287 S    
C2    H2    1.079123 S    
C56   C70   1.556533 S    
N25   Ni5   1.860359 S    
C69   C77   1.566098 S    
C53   H41   1.100036 S    
C26   N18   1.320236 A    
C38   H26   1.080037 S    
C79   H63   1.113684 S    
C9    H9    1.081981 S    
C61   C77   1.531755 S    
N32   Ni8   1.832962 S    
N12   Ni6   1.898361 S    
C77   H61   1.111474 S    
C12   H12   1.081479 S    
C1    N1    1.323606 A    
C47   C71   1.468706 S    
H48   C60   1.112743 S    
C10   C17   1.372962 A    
C63   H59   1.113473 S    
C84   H76   1.083295 S    
C3    C19   1.372661 A    
C15   H15   1.080892 S    
C63   H55   1.113001 S    
C71   C75   1.569471 S    
C37   C42   1.391678 A    
C37   H25   1.081222 S    
N30   Ni7   1.832962 S    
N7    Ni4   1.916731 S    
C61   H53   1.113120 S    
C57   C75   1.523543 S    
C7    C23   1.383277 A    
C39   C44   1.389398 A    
C61   C67   1.549368 S    
C91   H83   1.085493 S    
C8    C24   1.370690 A    
C5    C21   1.375946 A    
C62   C68   1.551772 S    
C93   H85   1.084842 S    
C28   C44   1.380388 A    
C58   H70   1.114502 S    
N28   Ni6   1.854499 S    
C34   H22   1.075890 S    
C92   O4    1.221261 D    
C95   H87   1.084091 S    
C36   C47   1.374776 A    
C33   H21   1.080449 S    
C31   C47   1.397864 A    
C16   C23   1.385704 A    
C82   C88   1.336158 D    
N14   Ni7   1.878855 S    
C9    N9    1.337025 A    
C89   H81   1.085175 S    
N9    Ni5   1.904389 S    
C32   N24   1.329489 A    
C40   C43   1.389723 A    
C15   C24   1.375741 A    
C8    H8    1.080330 S    
N4    N11   1.325865 A    
C96   O8    1.220985 D    
N24   N27   1.396379 A    
C44   C82   1.437960 S    
C78   H62   1.113662 S    
N19   N32   1.451687 A    
C43   C81   1.436864 S    
N22   Ni1   1.916715 S    
N5    Ni2   1.916731 S    
N1    Ni1   1.838780 S    
C23   C68   1.466040 S    
C6    C22   1.376437 A    
H49   C73   1.100574 S    
C10   H10   1.081956 S    
C62   C78   1.524676 S    
C11   H11   1.081838 S    
C42   C84   1.455736 S    
N23   Ni4   1.916630 S    
C1    H1    1.078001 S    
C57   H69   1.114508 S    
C50   C66   1.552025 S    
N26   Ni5   1.854499 S    
C13   C22   1.380572 A    
C13   N13   1.319874 A    
C33   C46   1.375307 A    
C2    N2    1.321942 A    
C62   H54   1.113172 S    
C51   C67   1.550613 S    
C49   C53   1.536784 S    
C11   C20   1.377689 A    
C40   N32   1.340631 A    
C15   N15   1.322202 A    
N5    N14   1.378435 A    
C70   C74   1.567005 S    
C16   N16   1.323653 A    
C55   C69   1.551608 S    
C85   H77   1.083124 S    
N7    N16   1.378435 A    
C58   C66   1.549008 S    
C95   O7    1.218819 D    
C26   C42   1.367278 A    
N8    N15   1.378303 A    
C31   C95   1.476791 S    
C6    H6    1.076984 S    
C53   C71   1.553832 S    
C49   C65   1.551731 S    
C54   H40   1.113518 S    
N20   Ni4   1.839430 S    
C25   N17   1.322134 A    
C55   H37   1.114243 S    
C94   O6    1.220209 D    
C45   C69   1.484871 S    
C52   H36   1.112849 S    
C50   C54   1.536333 S    
C25   H17   1.072065 S    
C83   C85   1.342092 D    
C51   H31   1.114183 S    
C56   H44   1.101818 S    
C32   C48   1.393209 A    
C27   H19   1.073734 S    
C81   C87   1.336401 D    
C5    H5    1.077876 S    
C28   H20   1.072706 S    
C28   N20   1.318062 A    
C11   N11   1.340908 A    
N8    Ni3   1.916640 S    
C64   C66   1.549289 S    
C64   H56   1.113695 S    
N20   N31   1.451825 A    
H45   C57   1.112442 S    
C36   N28   1.310283 A    
N11   Ni6   1.904389 S    
C5    N5    1.315036 A    
C22   C65   1.451738 S    
C31   N23   1.329205 A    
C64   C80   1.520111 S    
C72   C80   1.564467 S    
C92   H84   1.085655 S    
N16   Ni8   1.878855 S    
N27   Ni6   1.860359 S    
C87   H79   1.083598 S    
C81   H73   1.083532 S    
H50   C74   1.111024 S    
N2    Ni2   1.838695 S    
C59   H71   1.113293 S    
C89   O1    1.221008 D    
C59   C67   1.547785 S    
N1    N10   1.325991 A    
C41   C83   1.450703 S    
N2    N9    1.325865 A    
C29   C93   1.468556 S    
N22   N25   1.396379 A    
C13   H13   1.076148 S    
C96   H88   1.080760 S    
N21   N26   1.396245 A    
C14   N14   1.318281 A    
C55   H43   1.108584 S    
C60   H72   1.114446 S    
C90   O2    1.221167 D    
C39   H27   1.076418 S    
C78   H66   1.111285 S    
C14   H14   1.076675 S    
N13   Ni7   1.872927 S    
N23   N28   1.396245 A    
C16   H16   1.080310 S    
N6    N13   1.378303 A    
C63   C79   1.524437 S    
C90   H82   1.085485 S    
C12   N12   1.342223 A    
C56   H38   1.113113 S    
N15   Ni8   1.872927 S    
C86   H78   1.082407 S    
C61   H57   1.113633 S    
C27   C43   1.379971 A    
C52   C68   1.549446 S    
C69   C73   1.567054 S    
C62   H58   1.113476 S    
N3    Ni3   1.838780 S    
C50   H34   1.113343 S    
C38   C41   1.397247 A    
C39   N31   1.340861 A    
C49   H33   1.113135 S    
C57   C65   1.549545 S    
C34   C45   1.386464 A    
C38   N30   1.342796 A    
N21   Ni2   1.916630 S    
C80   H64   1.113967 S    
C84   C86   1.348332 D    
C75   C91   1.518830 S    
C72   C76   1.570197 S    
C70   C78   1.561810 S    
C51   H35   1.114493 S    
