data_mof_unit_62377.cif
_audit_creation_date              2013-03-05T15:50:08-0500
_audit_creation_method            fapswitch 2.2
_symmetry_space_group_name_H-M    P1
_symmetry_Int_Tables_number       1
_space_group_crystal_system       triclinic
_cell_length_a                    44.055475
_cell_length_b                    30.201148
_cell_length_c                    30.169534
_cell_angle_alpha                 90.000018
_cell_angle_beta                  133.339659
_cell_angle_gamma                 89.999502
_cell_volume                      29194.7163127

loop_
_atom_site_label
_atom_site_type_symbol
_atom_site_description
_atom_site_fract_x
_atom_site_fract_y
_atom_site_fract_z
_atom_type_partial_charge
O1    O     O_R   0.499980 0.537560 0.935110 -0.575441
O2    O     O_R   0.500020 0.537560 0.064890 -0.573049
O3    O     O_R   0.999980 0.037560 0.935110 -0.573073
O4    O     O_R   0.000020 0.037560 0.064890 -0.575406
O5    O     O_R   0.499970 0.462450 0.935080 -0.581372
O6    O     O_R   0.500030 0.462450 0.064920 -0.583634
O7    O     O_R   0.999970 0.962450 0.935080 -0.583611
O8    O     O_R   0.000030 0.962450 0.064920 -0.581417
C1    C     C_R   0.499996 0.500016 0.914361 0.801209
C2    C     C_R   0.500004 0.500016 0.085640 0.801175
C3    C     C_R   0.999996 0.000016 0.914360 0.801227
C4    C     C_R   0.000003 0.000016 0.085639 0.801246
O9    O     O_R   0.439720 0.537550 0.939720 -0.562405
O10   O     O_R   0.560280 0.537550 0.060280 -0.572890
O11   O     O_R   0.939720 0.037550 0.939720 -0.572697
O12   O     O_R   0.060280 0.037550 0.060280 -0.562678
O13   O     O_R   0.439710 0.462440 0.939690 -0.577936
O14   O     O_R   0.560290 0.462440 0.060310 -0.568042
O15   O     O_R   0.939710 0.962440 0.939690 -0.568279
O16   O     O_R   0.060290 0.962440 0.060310 -0.577767
C5    C     C_R   0.420065 0.500007 0.920057 0.808777
C6    C     C_R   0.579932 0.499993 0.079945 0.808792
C7    C     C_R   0.920068 0.999994 0.920055 0.808831
C8    C     C_R   0.079934 0.000006 0.079941 0.808849
Cu1   Cu    Cu3+1 0.500000 0.544470 0.000000 1.034244
Cu2   Cu    Cu3+1 0.000000 0.044470 0.000000 1.034194
Cu3   Cu    Cu3+1 0.500000 0.455530 0.000000 1.015897
Cu4   Cu    Cu3+1 0.000000 0.955530 0.000000 1.015837
C9    C     C_3   0.274621 0.539025 0.746745 -0.425251
C10   C     C_3   0.725311 0.540999 0.247838 -0.409804
C11   C     C_3   0.774687 0.040747 0.751714 -0.409856
C12   C     C_3   0.225370 0.039314 0.252832 -0.425226
C13   C     C_3   0.274705 0.457247 0.757324 -0.449991
C14   C     C_3   0.725478 0.458628 0.249474 -0.462907
C15   C     C_3   0.774524 0.958366 0.750985 -0.462873
C16   C     C_3   0.225299 0.957430 0.243133 -0.449877
C17   C     C_3   0.226266 0.455523 0.710908 0.154215
C18   C     C_3   0.773996 0.456617 0.294540 0.148186
C19   C     C_3   0.726005 0.956393 0.705941 0.148169
C20   C     C_3   0.273737 0.955675 0.289524 0.154088
H1    H     H_    0.214932 0.535426 0.652240 0.194338
H2    H     H_    0.783994 0.540346 0.343202 0.193912
H3    H     H_    0.716005 0.039693 0.656360 0.193959
H4    H     H_    0.285026 0.035997 0.347392 0.194275
H5    H     H_    0.286016 0.534119 0.723646 0.185500
H6    H     H_    0.713369 0.541073 0.270540 0.176519
H7    H     H_    0.786630 0.040441 0.729013 0.176508
H8    H     H_    0.213944 0.034796 0.275940 0.185370
H9    H     H_    0.288252 0.428111 0.788083 0.219959
H10   H     H_    0.711846 0.427328 0.222846 0.214296
H11   H     H_    0.788156 0.927209 0.777958 0.214286
H12   H     H_    0.211734 0.928110 0.212693 0.220032
H13   H     H_    0.285610 0.454226 0.733356 0.221488
H14   H     H_    0.715355 0.460834 0.274542 0.225539
H15   H     H_    0.784646 0.960186 0.725896 0.225556
H16   H     H_    0.214423 0.954800 0.267171 0.221445
H17   H     H_    0.217700 0.429916 0.727350 0.157882
H18   H     H_    0.781887 0.428815 0.279631 0.165980
H19   H     H_    0.718115 0.928842 0.721155 0.165975
H20   H     H_    0.282279 0.929837 0.273290 0.158129
C21   C     C_1   0.124777 0.500037 0.624956 -0.090497
C22   C     C_1   0.875227 0.499983 0.375062 -0.089442
C23   C     C_1   0.624773 0.999985 0.624938 -0.089441
C24   C     C_1   0.375223 0.000041 0.375046 -0.090465
C25   C     C_3   0.291412 0.501418 0.793924 0.007110
C26   C     C_3   0.708574 0.499285 0.206419 0.008629
C27   C     C_3   0.791426 0.999306 0.793591 0.008626
C28   C     C_3   0.208587 0.001385 0.206058 0.007046
C29   C     C_3   0.226052 0.539360 0.697969 0.139363
C30   C     C_3   0.773745 0.541249 0.297841 0.138861
C31   C     C_3   0.726254 0.040981 0.701708 0.138932
C32   C     C_3   0.273940 0.039627 0.301652 0.139496
C33   C     C_3   0.208615 0.500844 0.709718 0.012706
C34   C     C_3   0.791394 0.500140 0.290516 0.011985
C35   C     C_3   0.708605 0.000148 0.709484 0.011972
C36   C     C_3   0.291385 0.000839 0.290279 0.012717
C37   C     C_3   0.224702 0.507135 0.774079 -0.479013
C38   C     C_3   0.775046 0.501843 0.225568 -0.484355
C39   C     C_3   0.724953 0.002384 0.774410 -0.484377
C40   C     C_3   0.275300 0.006670 0.225861 -0.478931
C41   C     C_3   0.274102 0.509563 0.825234 0.573485
C42   C     C_3   0.725917 0.496700 0.174588 0.566165
C43   C     C_3   0.774083 0.997261 0.825447 0.566187
C44   C     C_3   0.225898 0.009021 0.174672 0.573364
C45   C     C_1   0.162446 0.500321 0.662954 0.049300
C46   C     C_1   0.837559 0.500077 0.337131 0.057731
C47   C     C_1   0.662441 0.000081 0.662868 0.057748
C48   C     C_1   0.337554 0.000323 0.337048 0.049436
C49   C     C_1   0.337572 0.500612 0.838852 0.055773
C50   C     C_1   0.662421 0.499694 0.161354 0.056606
C51   C     C_1   0.837579 0.999703 0.838652 0.056623
C52   C     C_1   0.162427 0.000597 0.161133 0.055612
C53   C     C_1   0.375237 0.500134 0.875746 -0.088492
C54   C     C_1   0.624757 0.499939 0.124341 -0.090510
C55   C     C_1   0.875243 0.999942 0.875661 -0.090513
C56   C     C_1   0.124762 0.000128 0.124246 -0.088528
H21   H     H_    0.209183 0.536362 0.773340 0.250238
H22   H     H_    0.784877 0.533479 0.219848 0.249079
H23   H     H_    0.715121 0.034188 0.779780 0.249058
H24   H     H_    0.290787 0.035777 0.226296 0.250242
H25   H     H_    0.287145 0.571579 0.770167 0.245955
H26   H     H_    0.712914 0.571830 0.220516 0.256491
H27   H     H_    0.787083 0.071740 0.778695 0.256491
H28   H     H_    0.212871 0.071754 0.229061 0.246071
H29   H     H_    0.213120 0.479267 0.783215 0.194002
H30   H     H_    0.791528 0.476589 0.221941 0.207457
H31   H     H_    0.708472 0.977351 0.778313 0.207491
H32   H     H_    0.286917 0.978627 0.217020 0.193919
C57   C     C_R   0.527922 0.473088 0.685256 -0.224247
C58   C     C_R   0.472079 0.473089 0.314746 -0.224357
C59   C     C_R   0.027920 0.973087 0.685253 -0.224354
C60   C     C_R   0.972077 0.973090 0.314744 -0.224246
C61   C     C_R   0.500001 0.500119 0.634118 -0.059849
C62   C     C_R   0.499998 0.500121 0.365882 -0.059845
C63   C     C_R   0.000002 0.000120 0.634117 -0.059846
C64   C     C_R   0.999999 0.000119 0.365882 -0.059848
C65   C     C_R   0.472022 0.527437 0.628940 -0.119957
C66   C     C_R   0.527975 0.527442 0.371058 -0.119913
C67   C     C_R   0.972026 0.027443 0.628943 -0.119925
C68   C     C_R   0.027978 0.027436 0.371061 -0.119947
C69   C     C_R   0.472112 0.528735 0.675485 0.024009
C70   C     C_R   0.527885 0.528741 0.324512 0.024018
C71   C     C_R   0.972116 0.028743 0.675489 0.024023
C72   C     C_R   0.027889 0.028734 0.324515 0.024008
C73   C     C_R   0.499832 0.500588 0.726583 0.022373
C74   C     C_R   0.500167 0.500592 0.273417 0.022391
C75   C     C_R   0.999833 0.000592 0.726583 0.022390
C76   C     C_R   0.000168 0.000588 0.273418 0.022378
C77   C     C_R   0.527523 0.472477 0.731108 0.126445
C78   C     C_R   0.472479 0.472479 0.268893 0.126578
C79   C     C_R   0.027521 0.972477 0.731106 0.126565
C80   C     C_R   0.972477 0.972478 0.268891 0.126453
C81   C     C_R   0.445402 0.557325 0.672568 0.265930
C82   C     C_R   0.554591 0.557334 0.327426 0.266037
C83   C     C_R   0.945411 0.057337 0.672576 0.266025
C84   C     C_R   0.054598 0.057323 0.327433 0.265941
C85   C     C_R   0.446466 0.557652 0.719937 -0.209950
C86   C     C_R   0.553527 0.557660 0.280057 -0.209638
C87   C     C_R   0.946475 0.057664 0.719945 -0.209660
C88   C     C_R   0.053535 0.057649 0.280064 -0.209937
C89   C     C_R   0.473365 0.529410 0.770074 0.053841
C90   C     C_R   0.526631 0.529416 0.229922 0.053869
C91   C     C_R   0.973370 0.029418 0.770079 0.053872
C92   C     C_R   0.026635 0.029409 0.229926 0.053855
C93   C     C_R   0.499925 0.500443 0.773283 0.065185
C94   C     C_R   0.500074 0.500447 0.226717 0.065107
C95   C     C_R   0.999926 0.000447 0.773283 0.065104
C96   C     C_R   0.000075 0.000443 0.226717 0.065188
C97   C     C_R   0.526602 0.471289 0.823244 0.114041
C98   C     C_R   0.473400 0.471290 0.176759 0.115325
C99   C     C_R   0.026599 0.971289 0.823240 0.115272
C100  C     C_R   0.973397 0.971290 0.176756 0.114056
C101  C     C_R   0.553568 0.443261 0.826823 -0.169880
C102  C     C_R   0.446436 0.443260 0.173182 -0.170858
C103  C     C_R   0.053563 0.943257 0.826817 -0.170802
C104  C     C_R   0.946431 0.943263 0.173176 -0.169906
C105  C     C_R   0.554258 0.444102 0.781290 -0.179616
C106  C     C_R   0.445746 0.444102 0.218714 -0.179416
C107  C     C_R   0.054253 0.944099 0.781284 -0.179420
C108  C     C_R   0.945741 0.944105 0.218709 -0.179613
C109  C     C_R   0.474093 0.529568 0.817116 -0.199007
C110  C     C_R   0.525904 0.529573 0.182881 -0.198105
C111  C     C_R   0.974097 0.029574 0.817120 -0.198142
C112  C     C_R   0.025908 0.029567 0.182884 -0.198992
C113  C     C_R   0.499978 0.500087 0.866030 -0.057630
C114  C     C_R   0.500023 0.500089 0.133971 -0.055578
C115  C     C_R   0.999977 0.000089 0.866029 -0.055620
C116  C     C_R   0.000022 0.000087 0.133970 -0.057592
C117  C     C_R   0.525902 0.470793 0.868853 -0.199748
C118  C     C_R   0.474102 0.470792 0.131152 -0.200282
C119  C     C_R   0.025897 0.970791 0.868847 -0.200214
C120  C     C_R   0.974098 0.970794 0.131147 -0.199723
H33   H     H_    0.549240 0.451824 0.688534 0.148931
H34   H     H_    0.450764 0.451823 0.311470 0.148905
H35   H     H_    0.049235 0.951820 0.688528 0.148910
H36   H     H_    0.950759 0.951826 0.311465 0.148930
H37   H     H_    0.450992 0.548161 0.588962 0.202978
H38   H     H_    0.549003 0.548167 0.411034 0.202990
H39   H     H_    0.950998 0.048170 0.588967 0.202989
H40   H     H_    0.049008 0.048159 0.411039 0.202979
H41   H     H_    0.425981 0.579905 0.717327 0.183905
H42   H     H_    0.574010 0.579916 0.282664 0.183683
H43   H     H_    0.925993 0.079920 0.717338 0.183689
H44   H     H_    0.074020 0.079902 0.282674 0.183887
H45   H     H_    0.453931 0.551918 0.815177 0.151744
H46   H     H_    0.546064 0.551925 0.184817 0.151104
H47   H     H_    0.953938 0.051928 0.815184 0.151120
H48   H     H_    0.046070 0.051916 0.184823 0.151707
H49   H     H_    0.546107 0.448355 0.907208 0.164674
H50   H     H_    0.453901 0.448351 0.092801 0.160209
H51   H     H_    0.046098 0.948349 0.907198 0.160317
H52   H     H_    0.953892 0.948357 0.092791 0.164623
H53   H     H_    0.574286 0.420870 0.865012 0.169287
H54   H     H_    0.425721 0.420868 0.134995 0.167039
H55   H     H_    0.074278 0.920864 0.865003 0.167135
H56   H     H_    0.925713 0.920873 0.134987 0.169250
H57   H     H_    0.575515 0.422340 0.785104 0.159141
H58   H     H_    0.424490 0.422339 0.214902 0.158768
H59   H     H_    0.075508 0.922334 0.785096 0.158793
H60   H     H_    0.924484 0.922343 0.214895 0.159133
O17   O     O_R   0.999990 0.564740 0.462430 -0.579081
O18   O     O_R   0.000010 0.564740 0.537570 -0.579183
O19   O     O_R   0.499990 0.064740 0.462430 -0.579147
O20   O     O_R   0.500010 0.064740 0.537570 -0.579125
C121  C     C_R   0.000001 0.585526 0.500001 0.804197
C122  C     C_R   0.499999 0.085526 0.499999 0.804196
O21   O     O_R   0.060270 0.499850 0.522700 -0.563151
O22   O     O_R   0.939730 0.499850 0.477300 -0.562315
O23   O     O_R   0.560270 0.999850 0.522700 -0.562357
O24   O     O_R   0.439730 0.999850 0.477300 -0.563103
O25   O     O_R   0.060290 0.499870 0.597820 -0.578683
O26   O     O_R   0.939710 0.499870 0.402180 -0.577988
O27   O     O_R   0.560290 0.999870 0.597820 -0.578042
O28   O     O_R   0.439710 0.999870 0.402180 -0.578650
C123  C     C_R   0.079945 0.499858 0.579966 0.812252
C124  C     C_R   0.920057 0.499890 0.420036 0.811871
C125  C     C_R   0.579943 0.999890 0.579964 0.811930
C126  C     C_R   0.420055 0.999859 0.420034 0.812207
Cu5   Cu    Cu3+1 0.999980 0.499850 0.455510 1.023403
Cu6   Cu    Cu3+1 0.000020 0.499850 0.544490 1.023647
Cu7   Cu    Cu3+1 0.499980 0.999850 0.455510 1.023642
Cu8   Cu    Cu3+1 0.500020 0.999850 0.544490 1.023416
O29   O     O_R   0.999980 0.434970 0.462420 -0.582185
O30   O     O_R   0.000020 0.434970 0.537580 -0.582157
O31   O     O_R   0.499980 0.934970 0.462420 -0.582155
O32   O     O_R   0.500020 0.934970 0.537580 -0.582178
C127  C     C_R   1.000000 0.414185 0.500000 0.811207
C128  C     C_R   0.500000 0.914185 0.500000 0.811224
O33   O     O_R   0.465090 0.435080 0.465060 -0.591335
O34   O     O_R   0.534910 0.435080 0.534940 -0.591386
O35   O     O_R   0.965090 0.935080 0.465060 -0.591392
O36   O     O_R   0.034910 0.935080 0.534940 -0.591326
C129  C     C_R   0.500000 0.414111 0.500000 0.780481
C130  C     C_R   0.000000 0.914111 0.500000 0.780479
O37   O     O_R   0.465080 0.499990 0.529910 -0.595774
O38   O     O_R   0.534920 0.499990 0.470090 -0.595769
O39   O     O_R   0.965080 0.999990 0.529910 -0.595777
O40   O     O_R   0.034920 0.999990 0.470090 -0.595766
O41   O     O_R   0.534860 0.499980 0.599740 -0.560607
O42   O     O_R   0.465140 0.499980 0.400260 -0.560616
O43   O     O_R   0.034860 0.999980 0.599740 -0.560608
O44   O     O_R   0.965140 0.999980 0.400260 -0.560612
C131  C     C_R   0.499990 0.499872 0.585786 0.841478
C132  C     C_R   0.500010 0.499873 0.414214 0.841477
C133  C     C_R   0.999990 0.999873 0.585786 0.841474
C134  C     C_R   0.000010 0.999872 0.414214 0.841476
Cu9   Cu    Cu3+1 0.458680 0.499970 0.458630 1.052618
Cu10  Cu    Cu3+1 0.541320 0.499970 0.541370 1.052695
Cu11  Cu    Cu3+1 0.958680 0.999970 0.458630 1.052671
Cu12  Cu    Cu3+1 0.041320 0.999970 0.541370 1.052654
O45   O     O_R   0.465120 0.564850 0.465070 -0.552730
O46   O     O_R   0.534880 0.564850 0.534930 -0.552647
O47   O     O_R   0.965120 0.064850 0.465070 -0.552654
O48   O     O_R   0.034880 0.064850 0.534930 -0.552722
C135  C     C_R   0.500000 0.585654 0.500000 0.952941
C136  C     C_R   1.000000 0.085654 0.500000 0.952940
C137  C     C_R   0.471528 0.342644 0.498106 -0.227485
C138  C     C_R   0.528472 0.342643 0.501895 -0.227675
C139  C     C_R   0.971531 0.842644 0.498111 -0.227692
C140  C     C_R   0.028472 0.842644 0.501892 -0.227464
C141  C     C_R   0.500000 0.365743 0.500001 -0.055550
C142  C     C_R   0.000001 0.865743 0.500001 -0.055547
C143  C     C_R   0.528195 0.296347 0.500845 0.104620
C144  C     C_R   0.471804 0.296348 0.499155 0.104453
C145  C     C_R   0.028196 0.796347 0.500843 0.104430
C146  C     C_R   0.971808 0.796348 0.499161 0.104649
C147  C     C_R   0.499999 0.273082 0.500000 0.065170
C148  C     C_R   0.000002 0.773082 0.500002 0.065170
C149  C     C_R   0.555500 0.272913 0.500463 -0.188330
C150  C     C_R   0.444498 0.272915 0.499535 -0.187993
C151  C     C_R   0.055500 0.772914 0.500460 -0.187963
C152  C     C_R   0.944505 0.772915 0.499546 -0.188353
C153  C     C_R   0.054825 0.726672 0.499025 -0.174829
C154  C     C_R   0.945180 0.726674 0.500981 -0.175565
C155  C     C_R   0.554825 0.226672 0.499028 -0.175495
C156  C     C_R   0.445173 0.226674 0.500969 -0.174878
C157  C     C_R   0.027277 0.703241 0.498890 0.103911
C158  C     C_R   0.972727 0.703242 0.501116 0.104226
C159  C     C_R   0.527275 0.203241 0.498889 0.104187
C160  C     C_R   0.472722 0.203241 0.501107 0.103941
C161  C     C_R   0.000003 0.726508 0.500003 0.061554
C162  C     C_R   0.499999 0.226508 0.499999 0.061549
C163  C     C_R   0.026556 0.656945 0.497824 -0.209904
C164  C     C_R   0.973449 0.656946 0.502181 -0.210060
C165  C     C_R   0.526554 0.156945 0.497823 -0.210051
C166  C     C_R   0.473443 0.156945 0.502173 -0.209902
C167  C     C_R   0.000001 0.633866 0.500002 -0.057495
C168  C     C_R   0.499999 0.133866 0.499999 -0.057501
H61   H     H_    0.449820 0.360786 0.497116 0.151233
H62   H     H_    0.550180 0.360785 0.502886 0.151176
H63   H     H_    0.949824 0.860786 0.497123 0.151166
H64   H     H_    0.050178 0.860785 0.502879 0.151237
H65   H     H_    0.577206 0.290360 0.500921 0.158418
H66   H     H_    0.422793 0.290362 0.499077 0.158627
H67   H     H_    0.077204 0.790360 0.500914 0.158653
H68   H     H_    0.922801 0.790362 0.499092 0.158389
H69   H     H_    0.076009 0.709225 0.498376 0.164092
H70   H     H_    0.923997 0.709226 0.501632 0.163454
H71   H     H_    0.576009 0.209224 0.498380 0.163546
H72   H     H_    0.423987 0.209227 0.501615 0.164018
H73   H     H_    0.047217 0.638782 0.496609 0.157047
H74   H     H_    0.952787 0.638784 0.503396 0.156699
H75   H     H_    0.547216 0.138782 0.496611 0.156764
H76   H     H_    0.452780 0.138783 0.503385 0.156997
C169  C     C_R   0.519267 0.656823 0.554435 0.253835
C170  C     C_R   0.480731 0.656824 0.445565 0.253769
C171  C     C_R   0.019268 0.156823 0.554435 0.253772
C172  C     C_R   0.980731 0.156824 0.445564 0.253829
C173  C     C_R   0.499999 0.633913 0.500000 -0.277224
C174  C     C_R   1.000000 0.133913 0.499999 -0.277224
C175  C     C_R   0.481394 0.703361 0.445678 0.002078
C176  C     C_R   0.518604 0.703360 0.554321 0.001916
C177  C     C_R   0.981395 0.203361 0.445678 0.001909
C178  C     C_R   0.018605 0.203360 0.554321 0.002084
C179  C     C_R   0.499999 0.726538 0.500000 -0.028073
C180  C     C_R   1.000000 0.226538 0.500000 -0.028075
C181  C     C_R   0.464541 0.727328 0.392960 -0.095180
C182  C     C_R   0.535457 0.727327 0.607040 -0.094906
C183  C     C_R   0.964541 0.227328 0.392959 -0.094900
C184  C     C_R   0.035458 0.227327 0.607040 -0.095187
C185  C     C_R   0.965345 0.273406 0.393539 -0.198122
C186  C     C_R   0.034654 0.273405 0.606460 -0.198889
C187  C     C_R   0.465346 0.773406 0.393540 -0.198906
C188  C     C_R   0.534653 0.773405 0.606460 -0.198099
C189  C     C_R   0.982775 0.296539 0.446594 0.106708
C190  C     C_R   0.017225 0.296538 0.553405 0.107073
C191  C     C_R   0.482775 0.796539 0.446595 0.107075
C192  C     C_R   0.517225 0.796538 0.553405 0.106709
C193  C     C_R   1.000000 0.273181 0.500000 0.116321
C194  C     C_R   0.499999 0.773181 0.500000 0.116323
C195  C     C_R   0.983291 0.342739 0.447126 -0.211732
C196  C     C_R   0.016709 0.342739 0.552874 -0.211790
C197  C     C_R   0.483292 0.842739 0.447126 -0.211867
C198  C     C_R   0.516709 0.842739 0.552874 -0.211627
C199  C     C_R   1.000000 0.365853 0.500000 -0.063745
C200  C     C_R   0.500000 0.865853 0.500000 -0.063737
H77   H     H_    0.450995 0.710749 0.351041 0.203904
H78   H     H_    0.549003 0.710748 0.648958 0.203986
H79   H     H_    0.950995 0.210749 0.351041 0.203995
H80   H     H_    0.049005 0.210748 0.648959 0.203896
H81   H     H_    0.952199 0.290977 0.352323 0.163037
H82   H     H_    0.047801 0.290975 0.647677 0.162437
H83   H     H_    0.452200 0.790977 0.352324 0.162444
H84   H     H_    0.547799 0.790976 0.647676 0.163034
H85   H     H_    0.970092 0.360733 0.406122 0.163229
H86   H     H_    0.029908 0.360732 0.593878 0.162789
H87   H     H_    0.470093 0.860733 0.406123 0.162781
H88   H     H_    0.529907 0.860732 0.593878 0.163240
Br1   Br    Br    0.204809 0.597376 0.694617 -0.441312
Br2   Br    Br    0.795662 0.597501 0.297550 -0.449373
Br3   Br    Br    0.704334 0.097473 0.701378 -0.449518
Br4   Br    Br    0.295230 0.097468 0.304561 -0.441121
Br5   Br    Br    0.407089 0.597151 0.605661 -0.442172
Br6   Br    Br    0.592900 0.597162 0.394329 -0.441915
Br7   Br    Br    0.907103 0.097168 0.605674 -0.441975
Br8   Br    Br    0.092912 0.097146 0.394341 -0.442140
N1    N     N_R   0.538534 0.632623 0.609240 0.121351
O49   O     O_R   0.516281 0.606603 0.611863 -0.371572
O50   O     O_R   0.578621 0.635264 0.655727 -0.322211
N2    N     N_R   0.461464 0.632625 0.390759 0.121392
O51   O     O_R   0.483717 0.606604 0.388135 -0.371434
O52   O     O_R   0.421376 0.635266 0.344272 -0.322673
N3    N     N_R   0.038536 0.132623 0.609240 0.121391
O53   O     O_R   0.016283 0.106604 0.611865 -0.371443
O54   O     O_R   0.078623 0.135264 0.655727 -0.322667
N4    N     N_R   0.961464 0.132624 0.390759 0.121354
O55   O     O_R   0.983717 0.106604 0.388135 -0.371562
O56   O     O_R   0.921377 0.135266 0.344272 -0.322209
N5    N     N_R   0.208278 0.441690 0.650249 0.140300
O57   O     O_R   0.183965 0.407221 0.624304 -0.319591
O58   O     O_R   0.217890 0.461823 0.623137 -0.351254
N6    N     N_R   0.793144 0.446767 0.356881 0.141690
O59   O     O_R   0.817290 0.412374 0.385195 -0.317205
O60   O     O_R   0.784797 0.470488 0.383416 -0.349989
N7    N     N_R   0.706858 0.946070 0.643711 0.141684
O61   O     O_R   0.682713 0.911633 0.615777 -0.317298
O62   O     O_R   0.715204 0.969408 0.616917 -0.349957
N8    N     N_R   0.291753 0.942228 0.350322 0.140281
O63   O     O_R   0.316055 0.907763 0.376554 -0.319482
O64   O     O_R   0.282180 0.962705 0.377295 -0.351241
N9    N     N_R   0.288396 0.553690 0.855548 0.140796
O65   O     O_R   0.262444 0.583625 0.843815 -0.294294
O66   O     O_R   0.328120 0.562386 0.898033 -0.309908
N10   N     N_R   0.708315 0.532572 0.129145 0.118739
O67   O     O_R   0.717115 0.573880 0.145882 -0.330437
O68   O     O_R   0.686876 0.523393 0.072163 -0.268597
N11   N     N_R   0.791683 0.033436 0.870492 0.118765
O69   O     O_R   0.782882 0.074654 0.853301 -0.330445
O70   O     O_R   0.813120 0.024646 0.927573 -0.268352
N12   N     N_R   0.211548 0.052954 0.143828 0.140510
O71   O     O_R   0.237487 0.082952 0.155655 -0.294567
O72   O     O_R   0.171810 0.061483 0.101014 -0.309782
N13   N     N_R   0.289843 0.475201 0.871805 0.110154
O73   O     O_R   0.313437 0.485864 0.928931 -0.273032
O74   O     O_R   0.277618 0.434240 0.856177 -0.385577
N14   N     N_R   0.713806 0.453312 0.142902 0.124291
O75   O     O_R   0.674525 0.443499 0.098395 -0.316776
O76   O     O_R   0.741329 0.423650 0.159242 -0.357766
N15   N     N_R   0.786195 0.954090 0.857610 0.124294
O77   O     O_R   0.825476 0.944334 0.902225 -0.316975
O78   O     O_R   0.758674 0.924553 0.841599 -0.357799
N16   N     N_R   0.210214 0.974302 0.128525 0.110165
O79   O     O_R   0.186700 0.984570 0.071293 -0.273114
O80   O     O_R   0.222467 0.933391 0.144661 -0.385546

loop_
_geom_bond_atom_site_label_1
_geom_bond_atom_site_label_2
_geom_bond_distance
_ccdc_geom_bond_type
O1    Cu1   1.968192 S    
Cu11  O47   1.970285 S    
N1    O49   1.300553 A    
C90   C94   1.410102 A    
C84   C88   1.397407 A    
O9    Cu1   1.942740 S    
C81   C85   1.397401 A    
O25   Cu6   1.942890 S    
C42   N10   1.481658 S    
O43   C133  1.284321 A    
C39   H23   1.110316 S    
N14   O76   1.302027 A    
C102  C106  1.394974 A    
C8    C56   1.436459 S    
C57   H33   1.084772 S    
Cu7   O31   1.970507 S    
C180  C193  1.408675 A    
O42   C132  1.284318 A    
O31   C128  1.295414 A    
C18   N6    1.469577 S    
N6    O59   1.301113 A    
O37   Cu9   1.967684 S    
C97   C101  1.401209 A    
O48   C136  1.282105 A    
C41   N9    1.489474 S    
C94   C98   1.413087 A    
C100  C104  1.401213 A    
C61   C131  1.457804 S    
C30   C34   1.559079 S    
C12   H28   1.111453 S    
C189  C193  1.411096 A    
C99   C103  1.401212 A    
O4    C4    1.295438 A    
C149  H65   1.083572 S    
C89   C93   1.410105 A    
O32   C128  1.295414 A    
C163  H73   1.084688 S    
C92   C112  1.397432 A    
C3    C115  1.457554 S    
C83   Br7   1.921836 S    
C19   N7    1.469573 S    
C91   C111  1.397438 A    
C65   H37   1.082108 S    
C143  C147  1.412076 A    
C9    C29   1.556286 S    
O3    Cu2   1.968192 S    
C113  C117  1.400306 A    
C112  C116  1.400328 A    
O17   Cu5   1.970813 S    
C12   C32   1.556301 S    
C115  C119  1.400305 A    
O16   Cu4   1.943025 S    
O13   C5    1.297480 A    
O7    Cu4   1.968826 S    
C20   C36   1.562454 S    
C9    H5    1.113457 S    
O41   Cu10  1.967244 S    
O15   C7    1.297085 A    
O6    C2    1.295735 A    
C150  C156  1.396900 A    
C26   C42   1.587218 S    
O27   Cu8   1.942890 S    
C38   C42   1.582694 S    
O4    Cu2   1.968192 S    
C10   H26   1.107609 S    
C190  C193  1.411096 A    
O36   C130  1.285398 A    
O39   C133  1.283891 A    
C171  C178  1.405715 A    
O44   C134  1.284321 A    
C41   N13   1.481384 S    
C179  C194  1.408675 A    
O37   C131  1.283892 A    
C21   C45   1.207016 T    
C192  C194  1.411094 A    
C14   H14   1.112742 S    
C15   H11   1.112410 S    
N9    O65   1.301664 A    
O8    Cu4   1.968823 S    
C137  C141  1.401779 A    
C17   N5    1.470005 S    
N11   O69   1.301140 A    
C129  C141  1.460757 S    
C197  C200  1.400701 A    
N15   O78   1.302031 A    
H3    C31   1.108725 S    
O44   Cu11  1.967241 S    
C164  C167  1.401485 A    
C112  H48   1.084759 S    
N10   O68   1.302144 A    
N7    O61   1.301118 A    
C16   C28   1.557237 S    
C185  H81   1.083841 S    
C25   C49   1.479784 S    
C67   C71   1.402093 A    
C169  C176  1.405718 A    
N13   O73   1.302101 A    
C148  C161  1.406585 A    
C38   H30   1.109033 S    
O23   C125  1.296367 A    
C23   C125  1.436409 S    
C166  C168  1.401487 A    
C98   C118  1.397442 A    
C5    C53   1.436463 S    
C37   H29   1.112526 S    
C106  H58   1.083665 S    
C7    C55   1.436326 S    
C189  C195  1.395410 A    
O35   C130  1.285401 A    
C187  C191  1.397386 A    
C68   H40   1.082109 S    
C86   H42   1.083865 S    
C75   C79   1.413851 A    
O3    C3    1.295431 A    
C172  C177  1.405716 A    
C73   C77   1.413852 A    
C136  C174  1.457489 S    
C33   C37   1.555575 S    
O41   C131  1.284322 A    
N8    O63   1.301104 A    
C13   H9    1.109675 S    
C109  C113  1.400329 A    
Cu10  O46   1.970281 S    
C196  H86   1.084613 S    
C62   C132  1.457798 S    
C183  C185  1.391867 A    
C27   C43   1.587210 S    
C20   H20   1.115100 S    
C175  C179  1.415566 A    
O38   Cu10  1.967684 S    
C117  H49   1.084757 S    
C14   C26   1.556178 S    
C128  C200  1.459688 S    
C137  H61   1.084651 S    
C120  H52   1.084756 S    
O5    C1    1.295724 A    
C22   C46   1.206956 T    
Cu11  Cu12  2.647907 S    
C97   C117  1.397450 A    
C100  C120  1.397450 A    
O29   C127  1.295414 A    
C85   H41   1.083866 S    
N15   O77   1.302300 A    
H2    C30   1.108728 S    
C99   C119  1.397445 A    
C66   C70   1.402096 A    
O18   Cu6   1.970813 S    
C70   C82   1.412696 A    
C28   C52   1.479765 S    
O5    Cu3   1.968826 S    
C87   C91   1.399765 A    
C81   Br5   1.921836 S    
O42   Cu9   1.967241 S    
C109  H45   1.084754 S    
H4    C32   1.108935 S    
C19   C35   1.567722 S    
C58   C62   1.398128 A    
C16   H12   1.109634 S    
C2    C114  1.457554 S    
C11   C31   1.552528 S    
C18   H18   1.114819 S    
O40   Cu12  1.967684 S    
C6    C54   1.436328 S    
C139  H63   1.084654 S    
O33   C129  1.285399 A    
N2    O51   1.300557 A    
C172  C174  1.408134 A    
O7    C3    1.295734 A    
C58   H34   1.084770 S    
C103  C107  1.394973 A    
O13   Cu3   1.943020 S    
C156  C160  1.402452 A    
C104  C108  1.394979 A    
O28   C126  1.296199 A    
C147  C162  1.406585 A    
O18   C121  1.295441 A    
C64   C68   1.400062 A    
C71   C83   1.412695 A    
C20   N8    1.470020 S    
C184  C186  1.391869 A    
C95   C99   1.413088 A    
C69   C73   1.416451 A    
Cu7   Cu8   2.683279 S    
C9    H25   1.111413 S    
C150  H66   1.083558 S    
C71   C75   1.416449 A    
C15   C27   1.556176 S    
O8    C4    1.295725 A    
C33   C45   1.479475 S    
C10   C26   1.558056 S    
C79   C107  1.402142 A    
O15   Cu4   1.943020 S    
C151  H67   1.083571 S    
C146  C148  1.412030 A    
O46   C135  1.282108 A    
C61   C65   1.400066 A    
C66   H38   1.082109 S    
C59   C79   1.395620 A    
C60   H36   1.084768 S    
C64   C134  1.457804 S    
C114  C118  1.400304 A    
C63   C67   1.400067 A    
C190  C196  1.395409 A    
C188  H84   1.083842 S    
C177  C183  1.408513 A    
C176  C182  1.408512 A    
O35   Cu11  1.970486 S    
C60   C64   1.398133 A    
N16   O79   1.302078 A    
C18   C34   1.567724 S    
C35   C47   1.479223 S    
C144  C150  1.402531 A    
O14   C6    1.297081 A    
C10   H6    1.113800 S    
C96   C100  1.413090 A    
N11   O70   1.302148 A    
O47   C136  1.282112 A    
C9    C25   1.554956 S    
Cu9   O45   1.970285 S    
C40   H32   1.112530 S    
C187  H83   1.083844 S    
C170  C175  1.405718 A    
C176  C179  1.415568 A    
C182  C188  1.391869 A    
C171  C174  1.408133 A    
O10   C6    1.297315 A    
C139  C146  1.398430 A    
C73   C93   1.406127 A    
O9    C5    1.297006 A    
C57   C77   1.395624 A    
C186  C190  1.397392 A    
C35   C39   1.556821 S    
C144  C147  1.412024 A    
C169  C173  1.408133 A    
N6    O60   1.301313 A    
C49   C53   1.207219 T    
C153  H69   1.083566 S    
C51   C55   1.207043 T    
O33   Cu9   1.970486 S    
C130  C142  1.460754 S    
C101  H53   1.083646 S    
C152  C154  1.396898 A    
O17   C121  1.295441 A    
C21   C123  1.436500 S    
N5    O58   1.301379 A    
Cu12  O48   1.970281 S    
O23   Cu7   1.942533 S    
C186  H82   1.083843 S    
C196  C199  1.400704 A    
C40   C44   1.585318 S    
C140  H64   1.084666 S    
C84   Br8   1.921836 S    
C87   H43   1.083868 S    
C26   C50   1.479306 S    
C89   C109  1.397432 A    
C88   H44   1.083865 S    
C67   H39   1.082108 S    
C165  H75   1.084686 S    
O24   Cu8   1.942540 S    
C159  C165  1.398425 A    
C166  H76   1.084704 S    
C104  H56   1.083646 S    
C135  C173  1.457489 S    
C74   C78   1.413849 A    
C178  C180  1.415568 A    
N4    O55   1.300553 A    
C192  C198  1.395412 A    
C156  H72   1.083581 S    
C110  C114  1.400330 A    
C155  H71   1.083565 S    
C158  C161  1.412146 A    
N3    O53   1.300549 A    
C29   C33   1.562911 S    
C92   C96   1.410105 A    
C72   C76   1.416451 A    
C138  H62   1.084663 S    
C107  H59   1.083663 S    
N1    O50   1.300950 A    
C11   H7    1.113804 S    
C12   H8    1.113451 S    
C82   Br6   1.921835 S    
N2    O52   1.300949 A    
C10   C30   1.552529 S    
C50   C54   1.207042 T    
O12   Cu2   1.942735 S    
O19   C122  1.295438 A    
C170  C173  1.408133 A    
C72   C84   1.412694 A    
C163  C167  1.401511 A    
C28   C44   1.588335 S    
C36   C40   1.555565 S    
O1    C1    1.295437 A    
N14   O75   1.302297 A    
C86   C90   1.399765 A    
Cu5   Cu6   2.683279 S    
C76   C96   1.406130 A    
C153  C157  1.402482 A    
C14   C18   1.559498 S    
C15   C19   1.559499 S    
C82   C86   1.397407 A    
C16   H16   1.113033 S    
O28   Cu7   1.942897 S    
O45   C135  1.282110 A    
C172  N4    1.435995 S    
C188  C192  1.397392 A    
C19   H19   1.114819 S    
O40   C134  1.283895 A    
O21   C123  1.296408 A    
C39   H31   1.109029 S    
C60   C80   1.395624 A    
C152  H68   1.083555 S    
C13   H13   1.113060 S    
C31   Br3   1.957095 S    
N8    O64   1.301384 A    
O30   C127  1.295414 A    
C191  C197  1.395413 A    
C85   C89   1.399766 A    
C197  H87   1.084614 S    
C42   N14   1.488445 S    
O20   Cu8   1.970813 S    
Cu2   Cu4   2.686093 S    
O43   Cu12  1.967244 S    
C88   C92   1.399764 A    
C90   C110  1.397438 A    
N12   O72   1.302161 A    
N12   O71   1.301682 A    
O26   Cu5   1.942897 S    
C83   C87   1.397407 A    
C24   C126  1.436507 S    
C170  N2    1.435993 S    
C78   C106  1.402140 A    
C1    C113  1.457545 S    
C145  C151  1.402503 A    
C146  C152  1.402526 A    
C39   C43   1.582703 S    
C175  C181  1.408510 A    
C58   C78   1.395620 A    
O2    Cu1   1.968192 S    
C105  H57   1.083664 S    
O10   Cu1   1.942735 S    
C101  C105  1.394979 A    
C13   C17   1.554246 S    
C103  H55   1.083644 S    
C11   C27   1.558056 S    
Cu5   O29   1.970507 S    
C116  C120  1.400309 A    
C171  N3    1.435996 S    
C34   C38   1.556822 S    
N9    O66   1.302112 A    
C140  C145  1.398433 A    
C195  C199  1.400701 A    
C24   C48   1.207022 T    
C93   C97   1.413091 A    
C63   C133  1.457798 S    
O22   Cu6   1.942540 S    
O25   C123  1.296203 A    
C43   N11   1.481648 S    
C137  C144  1.398432 A    
C155  C159  1.402486 A    
C138  C143  1.398430 A    
N16   O80   1.301634 A    
C52   C56   1.207205 T    
C32   C36   1.562896 S    
C139  C142  1.401773 A    
N10   O67   1.301139 A    
C77   C105  1.402144 A    
C74   C94   1.406127 A    
C13   C25   1.557249 S    
C108  H60   1.083661 S    
C91   C95   1.410102 A    
N13   O74   1.301606 A    
C164  H74   1.084697 S    
C80   C108  1.402144 A    
C121  C167  1.459902 S    
C59   H35   1.084770 S    
C122  C168  1.459899 S    
C160  C162  1.412159 A    
C165  C168  1.401505 A    
C154  H70   1.083579 S    
C169  N1    1.435993 S    
C198  C200  1.400702 A    
Cu8   O32   1.970506 S    
O19   Cu7   1.970813 S    
O34   C129  1.285400 A    
C111  H47   1.084756 S    
C159  C162  1.412099 A    
C65   C69   1.402092 A    
C25   C41   1.588401 S    
C184  H80   1.081778 S    
O16   C8    1.297461 A    
C29   Br1   1.956037 S    
C38   H22   1.110320 S    
C37   C41   1.585345 S    
C157  C161  1.412108 A    
C36   C48   1.479471 S    
C57   C61   1.398134 A    
C12   C28   1.554977 S    
O11   C7    1.297314 A    
C182  H78   1.081780 S    
O22   C124  1.296365 A    
C158  C164  1.398424 A    
C40   H24   1.107314 S    
C43   N15   1.488443 S    
N3    O54   1.300951 A    
O39   Cu11  1.967684 S    
C76   C80   1.413849 A    
C27   C51   1.479313 S    
C160  C166  1.398425 A    
N7    O62   1.301317 A    
C178  C184  1.408513 A    
C14   H10   1.112407 S    
C149  C155  1.396899 A    
C15   H15   1.112736 S    
C32   Br4   1.956016 S    
O26   C124  1.296181 A    
C16   C20   1.554261 S    
C140  C142  1.401759 A    
C110  H46   1.084755 S    
O27   C125  1.296188 A    
O11   Cu2   1.942740 S    
C198  H88   1.084614 S    
C183  H79   1.081778 S    
C11   H27   1.107609 S    
C70   C74   1.416450 A    
C111  C115  1.400332 A    
C181  C187  1.391870 A    
O6    Cu3   1.968823 S    
C143  C149  1.402495 A    
C34   C46   1.479223 S    
C37   H21   1.107303 S    
C44   N12   1.489457 S    
C62   C66   1.400067 A    
C30   Br2   1.957094 S    
O20   C122  1.295444 A    
C44   N16   1.481464 S    
C138  C141  1.401755 A    
O36   Cu12  1.970491 S    
O2    C2    1.295431 A    
Cu6   O30   1.970506 S    
O34   Cu10  1.970491 S    
N5    O57   1.301096 A    
C151  C153  1.396901 A    
C17   C33   1.562413 S    
C23   C47   1.206953 T    
C154  C158  1.402458 A    
C22   C124  1.436409 S    
O14   Cu3   1.943025 S    
C4    C116  1.457542 S    
C191  C194  1.411095 A    
Cu9   Cu10  2.647907 S    
C17   H17   1.115123 S    
Cu1   Cu3   2.686093 S    
C118  H50   1.084750 S    
O21   Cu5   1.942533 S    
O24   C126  1.296393 A    
O38   C132  1.283892 A    
C181  H77   1.081779 S    
C177  C180  1.415567 A    
C31   C35   1.559079 S    
C185  C189  1.397392 A    
C157  C163  1.398428 A    
C119  H51   1.084748 S    
C145  C148  1.412069 A    
N4    O56   1.300949 A    
C195  H85   1.084613 S    
C102  H54   1.083644 S    
O12   C8    1.297004 A    
C98   C102  1.401211 A    
C75   C95   1.406127 A    
C59   C63   1.398130 A    
C69   C81   1.412699 A    
H1    C29   1.108948 S    
C68   C72   1.402095 A    
C127  C199  1.459688 S    
