data_mof_unit_19589.cif
_audit_creation_date              2012-12-11T14:17:39-0500
_audit_creation_method            fapswitch 2.2
_symmetry_space_group_name_H-M    P1
_symmetry_Int_Tables_number       1
_space_group_crystal_system       triclinic
_cell_length_a                    6.946184
_cell_length_b                    13.63468
_cell_length_c                    20.429027
_cell_angle_alpha                 102.209146
_cell_angle_beta                  89.987614
_cell_angle_gamma                 90.626161
_cell_volume                      1890.93406199

loop_
_atom_site_label
_atom_site_type_symbol
_atom_type_description
_atom_site_fract_x
_atom_site_fract_y
_atom_site_fract_z
_atom_type_partial_charge
O1    O     O_R   0.506860 0.599390 0.449240 -0.539200
O2    O     O_R   0.180220 0.594600 0.586780 -0.543538
O3    O     O_R   0.004500 0.400610 0.550760 -0.538916
C1    C     C_R   0.349065 0.616055 0.613465 0.740424
O4    O     O_R   0.177490 0.611290 0.451970 -0.541334
O5    O     O_R   0.001750 0.417420 0.414990 -0.539245
C2    C     C_R   0.346865 0.638077 0.435449 0.695061
O6    O     O_R   0.509610 0.582580 0.585010 -0.543448
O7    O     O_3   0.337420 0.436370 0.488020 -0.372011
V1    V     V_3+5 0.064680 0.511800 0.502220 1.421702
O8    O     O_R   0.671710 0.405400 0.413220 -0.545751
C3    C     C_R   0.839761 0.384054 0.386539 0.743332
O9    O     O_R   0.674440 0.388710 0.548030 -0.541675
C4    C     C_R   0.842608 0.362280 0.564948 0.695974
V2    V     V_3+5 0.564010 0.488200 0.497780 1.419590
O10   O     O_3   0.841140 0.563630 0.511980 -0.373398
C5    C     C_R   0.850402 0.111073 0.612392 -0.158660
H1    H     H_    0.842982 0.161294 0.519746 0.105772
H2    H     H_    0.856656 0.985573 0.695226 0.121672
H3    H     H_    0.849177 0.032650 0.587230 0.113555
C6    C     C_R   0.849160 0.285384 0.605023 -0.031422
C7    C     C_R   0.864294 0.315360 0.928723 -0.123782
C8    C     C_R   0.861165 0.391572 0.893152 -0.085847
C9    C     C_R   0.858001 0.368885 0.823370 -0.168709
C10   C     C_R   0.857828 0.268066 0.787006 0.076846
C11   C     C_R   0.860216 0.190177 0.823928 0.066434
C12   C     C_R   0.855411 0.241946 0.715406 0.075222
C13   C     C_R   0.854401 0.138901 0.682615 0.141038
C14   C     C_R   0.857033 0.064206 0.719955 -0.202976
C15   C     C_R   0.860116 0.089218 0.789413 -0.190965
C16   C     C_R   0.853615 0.314339 0.674926 -0.212269
C17   C     C_R   0.847117 0.183943 0.573864 -0.174914
C18   C     C_R   0.863503 0.214985 0.894905 -0.086417
H4    H     H_    0.854493 0.393807 0.695840 0.094155
H5    H     H_    0.867517 0.334698 0.982974 0.132151
H6    H     H_    0.855787 0.432202 0.799618 0.109366
H7    H     H_    0.861569 0.469134 0.919902 0.134352
H8    H     H_    0.862242 0.028318 0.815885 0.113696
C19   C     C_2   0.005337 0.288627 0.285095 -0.130426
C20   C     C_2   0.842138 0.315660 0.319761 -0.308047
H9    H     H_    0.142524 0.317118 0.307126 0.139388
H10   H     H_    0.703464 0.287635 0.299402 0.134306
C21   C     C_2   0.013726 0.220545 0.217477 -0.112733
C22   C     C_2   0.858622 0.183223 0.180376 -0.279764
H11   H     H_    0.156583 0.201303 0.197537 0.170105
H12   H     H_    0.714481 0.201640 0.198746 0.149098
C23   C     C_2   0.204600 0.790830 0.782303 -0.135089
C24   C     C_2   0.363611 0.815679 0.819942 -0.294931
H13   H     H_    0.066938 0.821097 0.801624 0.129456
H14   H     H_    0.502085 0.785753 0.801921 0.127017
C25   C     C_2   0.202939 0.722322 0.714801 -0.131935
C26   C     C_2   0.361059 0.684334 0.680213 -0.310474
H15   H     H_    0.061711 0.703310 0.692643 0.133899
H16   H     H_    0.504155 0.702959 0.700316 0.124827
C27   C     C_R   0.390495 0.889042 0.389054 -0.127760
H17   H     H_    0.387214 0.837918 0.481400 0.101915
H18   H     H_    0.408626 0.014872 0.307129 0.149198
H19   H     H_    0.406974 0.966975 0.414408 0.113629
C28   C     C_R   0.357748 0.715277 0.395821 -0.039100
C29   C     C_R   0.334834 0.686768 0.072714 -0.286436
C30   C     C_R   0.322453 0.611011 0.108401 0.691890
C31   C     C_R   0.330451 0.633886 0.178055 -0.214325
C32   C     C_R   0.351186 0.734367 0.214240 -0.073598
C33   C     C_R   0.363942 0.812363 0.177328 -0.050833
C34   C     C_R   0.359621 0.759713 0.285789 0.103501
C35   C     C_R   0.380932 0.861976 0.318860 0.048890
C36   C     C_R   0.392689 0.936800 0.281934 -0.266592
C37   C     C_R   0.384314 0.913269 0.212509 0.576595
C38   C     C_R   0.347862 0.687155 0.326012 -0.181290
C39   C     C_R   0.379238 0.815994 0.427298 -0.173063
C40   C     C_R   0.355565 0.786812 0.106168 -0.168112
H20   H     H_    0.331433 0.608108 0.305085 0.092637
H21   H     H_    0.328068 0.667371 0.018487 0.128645
H22   H     H_    0.319880 0.570812 0.201877 0.136636
O11   O     O_R   0.203230 0.917310 0.915020 -0.547422
O12   O     O_R   0.535500 0.888690 0.048040 -0.535232
O13   O     O_R   0.711080 0.082610 0.085000 -0.520182
C41   C     C_R   0.366253 0.862533 0.065107 0.851837
O14   O     O_R   0.532630 0.905370 0.913230 -0.556092
O15   O     O_R   0.708190 0.099410 0.949230 -0.542141
C42   C     C_R   0.364357 0.884214 0.886523 0.714691
O16   O     O_R   0.206120 0.900510 0.050790 -0.535652
O17   O     O_3   0.375360 0.063570 0.011990 -0.359811
V3    V     V_3+5 0.648170 0.988200 0.997780 1.479328
O18   O     O_R   0.038240 0.111390 0.951940 -0.542308
C43   C     C_R   0.870084 0.137540 0.934872 0.677166
O19   O     O_R   0.041120 0.094710 0.086750 -0.529541
C44   C     C_R   0.872538 0.115686 0.113532 0.778150
V4    V     V_3+5 0.148810 0.011930 0.002180 1.500226
O20   O     O_3   0.871750 0.936430 0.988010 -0.387255
F1    F     F_    0.302287 0.514185 0.075186 -0.689994
F2    F     F_    0.396492 0.991002 0.180681 -0.708756

loop_
_geom_bond_atom_site_label_1
_geom_bond_atom_site_label_2
_ccdc_geom_bond_type
O19   C44   A    
C32   C34   A    
O15   V3    S    
O12   V3    S    
C19   H9    S    
O18   C43   A    
C7    H5    S    
C6    C16   A    
C9    H6    S    
O16   V4    S    
C1    C26   S    
C33   C37   A    
C4    C6    S    
C13   C14   A    
O12   C41   A    
O5    C3    A    
O14   V3    S    
V2    O10   S    
C29   H21   S    
C5    H3    S    
C24   C42   S    
C15   H8    S    
C33   C40   A    
O15   C43   A    
O8    V2    S    
O17   V3    S    
O13   C44   A    
C26   H16   S    
C8    C9    A    
O1    V2    S    
O7    V1    S    
C1    O6    A    
C20   H10   S    
C35   C36   A    
O9    C4    A    
V3    O20   S    
H18   C36   S    
C2    C28   S    
C22   H12   S    
O17   V4    S    
C6    C17   A    
C12   C16   A    
C25   C26   D    
C9    C10   A    
C23   H13   S    
C19   C20   D    
O4    C2    A    
O18   V4    S    
O11   C42   A    
C23   C25   S    
O13   V3    S    
C10   C11   A    
C8    H7    S    
C36   C37   A    
C29   C30   A    
C25   H15   S    
C3    C20   S    
C38   H20   S    
O2    C1    A    
C21   C22   D    
C14   C15   A    
C41   O16   A    
C11   C18   A    
C23   C24   D    
C31   C32   A    
C16   H4    S    
C21   H11   S    
O3    C4    A    
C28   C38   A    
C11   C15   A    
O6    V2    S    
H17   C39   S    
O9    V2    S    
H1    C17   S    
O2    V1    S    
C27   C35   A    
O14   C42   A    
C7    C18   A    
O1    C2    A    
C5    C13   A    
O5    V1    S    
C19   C21   S    
O8    C3    A    
C10   C12   A    
C29   C40   A    
O19   V4    S    
O7    V2    S    
O4    V1    S    
O3    V1    S    
V1    O10   S    
C34   C38   A    
C24   H14   S    
C37   F2    S    
C40   C41   S    
C30   C31   A    
C27   C39   A    
O11   V4    S    
C28   C39   A    
C32   C33   A    
C34   C35   A    
C27   H19   S    
C12   C13   A    
C5    C17   A    
C7    C8    A    
C31   H22   S    
V4    O20   S    
C22   C44   S    
C18   C43   S    
C30   F1    S    
H2    C14   S    
