data_mof_unit_14331.cif
_audit_creation_date              2012-12-11T17:34:18-0500
_audit_creation_method            fapswitch 2.2
_symmetry_space_group_name_H-M    P1
_symmetry_Int_Tables_number       1
_space_group_crystal_system       triclinic
_cell_length_a                    23.804374
_cell_length_b                    7.224396
_cell_length_c                    20.654851
_cell_angle_alpha                 90.000296
_cell_angle_beta                  105.294683
_cell_angle_gamma                 90.000022
_cell_volume                      3426.25343451

loop_
_atom_site_label
_atom_site_type_symbol
_atom_type_description
_atom_site_fract_x
_atom_site_fract_y
_atom_site_fract_z
_atom_type_partial_charge
O1    O     O_R   0.449110 0.494310 0.552140 -0.537779
O2    O     O_R   0.550890 0.994310 0.447860 -0.537779
O3    O     O_R   0.440010 0.824420 0.415850 -0.534633
O4    O     O_R   0.559990 0.324420 0.584150 -0.534634
C1    C     C_R   0.425372 0.655717 0.391082 0.680333
C2    C     C_R   0.574628 0.155718 0.608918 0.680332
O5    O     O_R   0.442260 0.824040 0.549660 -0.540752
O6    O     O_R   0.557740 0.324040 0.450340 -0.540752
O7    O     O_R   0.553160 0.993960 0.582620 -0.531737
O8    O     O_R   0.446840 0.493960 0.417380 -0.531738
C3    C     C_R   0.428657 0.655371 0.567646 0.712311
C4    C     C_R   0.571342 0.155370 0.432354 0.712311
O9    O     O_3   0.536380 0.660670 0.510660 -0.374142
O10   O     O_3   0.463620 0.160670 0.489340 -0.374141
V1    V     V_3+5 0.493250 0.935680 0.498020 1.416518
V2    V     V_3+5 0.506750 0.435680 0.501980 1.416519
C5    C     C_R   0.823575 0.910532 0.170905 -0.120141
C6    C     C_R   0.176410 0.410531 0.829075 -0.120135
H1    H     H_    0.806585 0.784554 0.187033 0.123249
H2    H     H_    0.193388 0.284554 0.812931 0.123244
C7    C     C_R   0.862848 0.898561 0.130875 -0.168536
C8    C     C_R   0.137137 0.398560 0.869106 -0.168552
H3    H     H_    0.875229 0.762819 0.117186 0.122001
H4    H     H_    0.124743 0.262819 0.882779 0.121988
C9    C     C_R   0.886001 0.059835 0.109313 -0.025073
C10   C     C_R   0.114000 0.559833 0.890687 -0.025077
C11   C     C_R   0.868330 0.233047 0.128735 -0.133559
C12   C     C_R   0.131686 0.733046 0.871286 -0.133538
C13   C     C_R   0.829114 0.244511 0.168659 -0.144598
C14   C     C_R   0.170902 0.744510 0.831361 -0.144606
H5    H     H_    0.816480 0.379416 0.182953 0.113812
H6    H     H_    0.183548 0.879414 0.817083 0.113817
C15   C     C_R   0.806617 0.083561 0.190131 0.114726
C16   C     C_R   0.193383 0.583561 0.809869 0.114725
C17   C     C_1   0.766469 0.096583 0.232035 -0.031699
C18   C     C_1   0.233531 0.596584 0.767965 -0.031699
C19   C     C_1   0.732978 0.108055 0.267111 0.054964
C20   C     C_1   0.267021 0.608056 0.732889 0.054964
C21   C     C_R   0.667679 0.959792 0.327373 0.642010
C22   C     C_R   0.332323 0.459795 0.672629 0.642012
C23   C     C_R   0.628679 0.971626 0.367578 -0.246511
C24   C     C_R   0.371322 0.471628 0.632424 -0.246511
H7    H     H_    0.610014 0.844675 0.380510 0.150066
H8    H     H_    0.389989 0.344679 0.619493 0.150067
C25   C     C_R   0.613760 0.144343 0.390352 -0.145766
C26   C     C_R   0.386240 0.644344 0.609648 -0.145767
C27   C     C_R   0.639354 0.304931 0.371755 -0.146789
C28   C     C_R   0.360644 0.804931 0.628243 -0.146790
H9    H     H_    0.629131 0.440310 0.388063 0.158254
H10   H     H_    0.370866 0.940308 0.611934 0.158254
C29   C     C_R   0.678508 0.292729 0.331585 -0.203202
C30   C     C_R   0.321491 0.792729 0.668413 -0.203203
H11   H     H_    0.697585 0.418059 0.317964 0.205828
H12   H     H_    0.302411 0.918057 0.682032 0.205824
C31   C     C_R   0.692804 0.120326 0.309059 -0.016741
C32   C     C_R   0.307195 0.620327 0.690941 -0.016740
C33   C     C_R   0.640899 0.191528 0.795023 -0.117235
C34   C     C_R   0.359101 0.691504 0.204976 -0.117234
H13   H     H_    0.555200 0.219709 0.729133 0.111515
H14   H     H_    0.444801 0.719682 0.270866 0.111514
C35   C     C_R   0.618099 0.149560 0.674758 -0.040491
C36   C     C_R   0.381901 0.649556 0.325242 -0.040489
C37   C     C_R   0.901064 0.016652 0.768906 -0.190786
C38   C     C_R   0.098934 0.516669 0.231094 -0.190788
C39   C     C_R   0.862860 0.013293 0.705227 -0.103071
C40   C     C_R   0.137138 0.513315 0.294773 -0.103070
C41   C     C_R   0.803691 0.046099 0.696296 -0.117945
C42   C     C_R   0.196308 0.546113 0.303704 -0.117946
C43   C     C_R   0.780752 0.084049 0.751484 0.008083
C44   C     C_R   0.219248 0.584052 0.248516 0.008082
C45   C     C_R   0.820465 0.089407 0.817363 -0.048065
C46   C     C_R   0.179535 0.589405 0.182637 -0.048063
C47   C     C_R   0.719703 0.116648 0.743240 0.070132
C48   C     C_R   0.280297 0.616646 0.256760 0.070131
C49   C     C_R   0.700031 0.155916 0.800965 0.039432
C50   C     C_R   0.299970 0.655900 0.199034 0.039432
C51   C     C_R   0.739297 0.160404 0.864487 -0.252104
C52   C     C_R   0.260703 0.660383 0.135513 -0.252104
C53   C     C_R   0.798320 0.127490 0.872994 0.561197
C54   C     C_R   0.201681 0.627475 0.127005 0.561198
C55   C     C_R   0.677207 0.112676 0.679914 -0.183292
C56   C     C_R   0.322793 0.612681 0.320086 -0.183291
C57   C     C_R   0.600482 0.189632 0.732511 -0.156378
C58   C     C_R   0.399519 0.689612 0.267489 -0.156379
C59   C     C_R   0.881093 0.054698 0.825360 -0.071811
C60   C     C_R   0.118906 0.554702 0.174640 -0.071809
H15   H     H_    0.777070 0.040610 0.645346 0.105110
H16   H     H_    0.222929 0.540629 0.354654 0.105109
H17   H     H_    0.879275 0.984038 0.662152 0.118176
H18   H     H_    0.120723 0.484067 0.337849 0.118176
O11   O     O_R   0.053190 0.709680 0.082610 -0.525032
O12   O     O_R   0.946810 0.209680 0.917390 -0.525030
O13   O     O_R   0.057740 0.380240 0.950340 -0.546098
O14   O     O_R   0.942260 0.880240 0.049660 -0.546102
C61   C     C_R   0.071299 0.548939 0.932315 0.760827
C62   C     C_R   0.928701 0.048939 0.067685 0.760822
O15   O     O_R   0.060000 0.379940 0.084150 -0.541526
O16   O     O_R   0.940000 0.879940 0.915850 -0.541528
O17   O     O_R   0.949110 0.210100 0.052140 -0.532424
O18   O     O_R   0.050890 0.710100 0.947860 -0.532430
C63   C     C_R   0.074925 0.548341 0.108794 0.792227
C64   C     C_R   0.925075 0.048340 0.891206 0.792226
O19   O     O_3   0.963630 0.543720 0.989330 -0.377374
O20   O     O_3   0.036370 0.043720 0.010670 -0.377376
V3    V     V_3+5 0.006750 0.268680 0.001980 1.477214
V4    V     V_3+5 0.993250 0.768680 0.998020 1.477205
H19   H     H_    0.724096 0.189993 0.908479 0.161103
H20   H     H_    0.275905 0.689963 0.091520 0.161102
H21   H     H_    0.625872 0.222341 0.839022 0.121352
H22   H     H_    0.374130 0.722306 0.160977 0.121352
H23   H     H_    0.688457 0.083951 0.633706 0.090086
H24   H     H_    0.311542 0.583968 0.366295 0.090084
H25   H     H_    0.946820 0.988929 0.774257 0.096744
H26   H     H_    0.053178 0.488951 0.225743 0.096743
F1    F     F_    0.833239 0.134194 0.936500 -0.711773
F2    F     F_    0.166761 0.634175 0.063500 -0.711777
H27   H     H_    0.884883 0.360639 0.113327 0.124413
H28   H     H_    0.115145 0.860637 0.886709 0.124432
F3    F     F_    0.680718 0.791306 0.306141 -0.714605
F4    F     F_    0.319285 0.291311 0.693862 -0.714603

loop_
_geom_bond_atom_site_label_1
_geom_bond_atom_site_label_2
_ccdc_geom_bond_type
C40   C42   A    
C37   C39   A    
C53   F1    S    
C11   C13   A    
C47   C49   A    
O1    C3    A    
C19   C31   S    
O2    C4    A    
C2    O7    A    
C45   C53   A    
C34   C50   A    
C27   H9    S    
C10   C12   A    
C39   H17   S    
C48   C50   A    
C2    C35   S    
C17   C19   T    
H13   C57   S    
C52   C54   A    
C62   O17   A    
C13   C15   A    
C52   H20   S    
C24   C26   A    
C25   C27   A    
C38   C60   A    
C43   C45   A    
C7    C9    A    
O13   V3    S    
C45   C59   A    
C21   C31   A    
C55   H23   S    
C39   C41   A    
C44   C48   A    
C33   C57   A    
C43   C47   A    
C6    H2    S    
O12   C64   A    
O15   V3    S    
C28   H10   S    
C36   C56   A    
O6    V2    S    
C6    C8    A    
C37   C59   A    
C13   H5    S    
C23   H7    S    
O11   V4    S    
C5    C15   A    
O11   C63   A    
C47   C55   A    
O20   V3    S    
C30   H12   S    
C51   C53   A    
O17   V3    S    
C26   C28   A    
C38   H26   S    
C14   C16   A    
C54   F2    S    
C51   H19   S    
C21   C23   A    
C35   C57   A    
C61   O18   A    
C5    H1    S    
C27   C29   A    
C22   C32   A    
O16   C64   A    
C44   C46   A    
C40   H18   S    
C5    C7    A    
C33   H21   S    
C29   H11   S    
C56   H24   S    
O4    V2    S    
O5    C3    A    
C34   C58   A    
C49   C51   A    
C22   C24   A    
O6    C4    A    
O1    V2    S    
O14   C62   A    
O2    V1    S    
C6    C16   A    
O4    C2    A    
C22   F4    S    
C7    H3    S    
C42   H16   S    
C8    H4    S    
C18   C20   T    
O3    V1    S    
C48   C56   A    
C11   H27   S    
C10   C61   S    
C36   C58   A    
O14   V4    S    
C34   H22   S    
O18   V4    S    
C50   C52   A    
C4    C25   S    
O3    C1    A    
C46   C60   A    
C9    C11   A    
C41   H15   S    
O16   V4    S    
C33   C49   A    
C12   C14   A    
O7    V1    S    
C24   H8    S    
C1    O8    A    
C46   C54   A    
C35   C55   A    
C14   H6    S    
H14   C58   S    
O13   C61   A    
C21   F3    S    
O5    V1    S    
C15   C17   S    
C16   C18   S    
C1    C36   S    
O19   V4    S    
C29   C31   A    
C37   H25   S    
O12   V3    S    
C28   C30   A    
C20   C32   S    
C9    C62   S    
C42   C44   A    
C8    C10   A    
O9    V2    S    
C12   H28   S    
C23   C25   A    
O10   V1    S    
C3    C26   S    
O8    V2    S    
C41   C43   A    
C60   C63   S    
O15   C63   A    
C59   C64   S    
C30   C32   A    
C38   C40   A    
