data_mof_unit_64714.cif
_audit_creation_date              2012-12-10T18:24:47-0500
_audit_creation_method            fapswitch 2.2
_symmetry_space_group_name_H-M    P1
_symmetry_Int_Tables_number       1
_space_group_crystal_system       triclinic
_cell_length_a                    16.057346
_cell_length_b                    16.043104
_cell_length_c                    19.528223
_cell_angle_alpha                 95.295769
_cell_angle_beta                  90.470676
_cell_angle_gamma                 84.137963
_cell_volume                      4982.98760368

loop_
_atom_site_label
_atom_site_type_symbol
_atom_type_description
_atom_site_fract_x
_atom_site_fract_y
_atom_site_fract_z
_atom_type_partial_charge
C1    C     C_R   0.275822 0.510941 0.491025 0.828989
C2    C     C_2   0.470197 0.506183 0.981217 -0.082535
C3    C     C_2   0.536320 0.479853 0.018823 -0.247990
C4    C     C_R   0.724110 0.489280 0.508960 0.830664
C5    C     C_R   0.517466 0.484060 0.236531 -0.009365
C6    C     C_1   0.186313 0.515657 0.487420 -0.105029
C7    C     C_2   0.021106 0.523987 0.480908 0.476567
C8    C     C_2   0.978782 0.477183 0.519000 0.487204
C9    C     C_1   0.888832 0.481488 0.515456 0.033115
C10   C     C_1   0.111068 0.519541 0.484407 0.035097
C11   C     C_1   0.813600 0.485089 0.512462 -0.106656
C12   C     C_R   0.475114 0.510493 0.906291 -0.087700
C13   C     C_1   0.516409 0.184921 0.487096 -0.111784
C14   C     C_2   0.524816 0.018887 0.480349 -0.153647
C15   C     C_2   0.474960 0.981231 0.519507 -0.150337
C16   C     C_R   0.511716 0.274926 0.490882 0.810766
C17   C     C_1   0.479515 0.890848 0.515912 0.027259
C18   C     C_1   0.520296 0.109269 0.483971 0.025155
C19   C     C_1   0.483452 0.815196 0.512821 -0.114700
C20   C     C_R   0.488228 0.725190 0.509091 0.822139
C21   C     C_R   0.510512 0.489672 0.311455 0.800602
C22   C     C_R   0.489310 0.509426 0.688270 0.902551
C23   C     C_R   0.402612 0.503516 0.866696 0.663485
C24   C     C_R   0.482793 0.510930 0.762921 -0.267867
C25   C     C_R   0.555177 0.520877 0.802545 0.427569
C26   C     C_R   0.550611 0.521356 0.874138 -0.352714
C27   C     C_R   0.405614 0.502386 0.795232 0.271880
C28   C     C_R   0.459605 0.451078 0.123666 -0.138901
C29   C     C_R   0.453696 0.453465 0.194926 -0.189087
C30   C     C_R   0.588422 0.509576 0.206088 -0.180172
C31   C     C_R   0.595002 0.505670 0.134874 -0.152138
C32   C     C_R   0.529890 0.478326 0.093458 0.172565
F1    F     F_    0.019919 0.424618 0.561747 -0.648814
F2    F     F_    0.979986 0.576546 0.438150 -0.658261
F3    F     F_    0.328929 0.493847 0.897294 -0.616080
H1    H     H_    0.649851 0.526166 0.112099 0.144111
H2    H     H_    0.673819 0.537327 0.805225 0.343191
H3    H     H_    0.345074 0.473471 0.710460 0.331249
H4    H     H_    0.430319 0.018134 0.554605 0.170647
H5    H     H_    0.569461 0.981982 0.445255 0.169045
H6    H     H_    0.398769 0.432899 0.217474 0.168829
H7    H     H_    0.638876 0.532365 0.237329 0.169563
H8    H     H_    0.597486 0.462435 0.995605 0.166967
H9    H     H_    0.409558 0.427783 0.092253 0.155918
H10   H     H_    0.409845 0.523571 0.006126 0.195017
H11   H     H_    0.606045 0.531358 0.904348 0.172520
O1    O     O_3   0.500000 0.500000 0.500000 -0.502574
O2    O     O_R   0.462330 0.445560 0.340470 -0.641734
O3    O     O_R   0.440930 0.559110 0.655640 -0.643453
O4    O     O_R   0.554010 0.538050 0.348260 -0.643326
O5    O     O_R   0.542730 0.457290 0.655630 -0.596963
O6    O     O_3   0.629207 0.531348 0.770223 -0.730772
O7    O     O_3   0.332462 0.490279 0.759535 -0.666649
O8    O     O_R   0.555880 0.314540 0.535300 -0.633152
O9    O     O_R   0.439840 0.689760 0.546310 -0.626461
O10   O     O_R   0.320170 0.458170 0.449830 -0.633054
O11   O     O_R   0.684110 0.537530 0.468570 -0.628627
O12   O     O_R   0.310830 0.559620 0.535340 -0.627441
O13   O     O_R   0.684890 0.444680 0.546270 -0.617228
O14   O     O_R   0.463420 0.314900 0.449800 -0.631421
O15   O     O_R   0.540870 0.680800 0.468590 -0.630576
Zn1   Zn    Zn3+2 0.569660 0.430340 0.558290 1.024125
Zn2   Zn    Zn3+2 0.437560 0.430860 0.436130 0.988641
Zn3   Zn    Zn3+2 0.568560 0.563000 0.447270 0.999283
Zn4   Zn    Zn3+2 0.424220 0.575810 0.558310 1.012500

loop_
_geom_bond_atom_site_label_1
_geom_bond_atom_site_label_2
_ccdc_geom_bond_type
C4    O11   A    
C6    C10   T    
O15   Zn3   S    
O1    Zn3   S    
C27   O7    S    
C23   C27   A    
C8    C9    S    
C7    C10   S    
O4    Zn3   S    
C14   C18   S    
O12   Zn4   S    
C5    C29   A    
C31   C32   A    
C24   C27   A    
C21   O2    A    
C2    C12   S    
O1    Zn1   S    
C2    C3    D    
C13   C16   S    
O10   Zn2   S    
C7    C8    D    
C1    O12   A    
C4    C11   S    
C9    C11   T    
C12   C23   A    
C15   H4    S    
C3    C32   S    
H3    O7    S    
O3    Zn4   S    
C13   C18   T    
C22   O3    A    
O5    Zn1   S    
C3    H8    S    
C4    O13   A    
C21   O4    A    
O9    Zn4   S    
C1    O10   A    
O1    Zn4   S    
C23   F3    S    
C8    F1    S    
C20   O9    A    
C2    H10   S    
O1    Zn2   S    
C30   C31   A    
C7    F2    S    
C16   O8    A    
C25   O6    S    
O14   Zn2   S    
C26   H11   S    
C14   H5    S    
C1    C6    S    
C17   C19   T    
C28   C32   A    
C5    C21   S    
C24   C25   A    
O11   Zn3   S    
C5    C30   A    
C16   O14   A    
C22   C24   S    
C20   O15   A    
C15   C17   S    
H2    O6    S    
C14   C15   D    
C28   C29   A    
O13   Zn1   S    
O8    Zn1   S    
C29   H6    S    
C25   C26   A    
C31   H1    S    
C28   H9    S    
C30   H7    S    
C19   C20   S    
C12   C26   A    
C22   O5    A    
O2    Zn2   S    
