data_mof_unit_48264.cif
_audit_creation_date              2012-12-10T18:47:02-0500
_audit_creation_method            fapswitch 2.2
_symmetry_space_group_name_H-M    P1
_symmetry_Int_Tables_number       1
_space_group_crystal_system       triclinic
_cell_length_a                    10.687722
_cell_length_b                    9.847204
_cell_length_c                    14.972777
_cell_angle_alpha                 89.971174
_cell_angle_beta                  90.002509
_cell_angle_gamma                 89.988593
_cell_volume                      1575.79738798

loop_
_atom_site_label
_atom_site_type_symbol
_atom_type_description
_atom_site_fract_x
_atom_site_fract_y
_atom_site_fract_z
_atom_type_partial_charge
C1    C     C_R   0.259944 0.499974 0.499754 0.922771
C2    C     C_R   0.740056 0.500025 0.500246 0.922777
C3    C     C_R   0.273263 0.528690 0.046171 -0.157507
C4    C     C_R   0.726737 0.471306 0.953829 -0.157505
C5    C     C_R   0.064110 0.381971 0.524834 -0.173868
C6    C     C_R   0.935890 0.618028 0.475166 -0.173870
C7    C     C_R   0.936016 0.382075 0.525176 -0.148373
C8    C     C_R   0.063984 0.617924 0.474823 -0.148378
C9    C     C_R   0.872488 0.500118 0.500371 -0.041956
C10   C     C_R   0.127512 0.499882 0.499628 -0.041958
C11   C     C_R   0.581564 0.071883 0.552604 -0.045970
C12   C     C_R   0.418436 0.928117 0.447396 -0.045969
C13   C     C_R   0.418444 0.071981 0.447392 -0.051846
C14   C     C_R   0.581556 0.928019 0.552608 -0.051847
C15   C     C_R   0.500388 0.500042 0.327399 0.936774
C16   C     C_R   0.499611 0.499957 0.672601 0.936780
C17   C     C_R   0.614527 0.488302 0.812709 -0.077336
C18   C     C_R   0.385473 0.511698 0.187291 -0.077333
C19   C     C_R   0.499763 0.499740 0.767856 -0.207990
C20   C     C_R   0.500237 0.500260 0.232144 -0.207989
C21   C     C_R   0.385158 0.510757 0.812843 -0.068094
C22   C     C_R   0.614842 0.489241 0.187157 -0.068092
C23   C     C_R   0.385150 0.512213 0.906282 0.047737
C24   C     C_R   0.614850 0.487784 0.093718 0.047736
C25   C     C_R   0.499967 0.499905 0.953022 0.060364
C26   C     C_R   0.500033 0.500092 0.046978 0.060364
C27   C     C_R   0.614708 0.487367 0.906155 0.051576
C28   C     C_R   0.385292 0.512632 0.093845 0.051574
C29   C     C_R   0.273180 0.528428 0.954028 -0.163578
C30   C     C_R   0.726820 0.471568 0.045972 -0.163578
H1    H     H_    0.184125 0.542282 0.920897 0.180319
H2    H     H_    0.815875 0.457713 0.079103 0.180318
H3    H     H_    0.184306 0.542864 0.079348 0.184614
H4    H     H_    0.815694 0.457132 0.920652 0.184616
H5    H     H_    0.113179 0.290636 0.544977 0.177700
H6    H     H_    0.886820 0.709363 0.455022 0.177700
H7    H     H_    0.887035 0.290737 0.545384 0.184374
H8    H     H_    0.112965 0.709262 0.454615 0.184375
H9    H     H_    0.646779 0.126331 0.594674 0.159113
H10   H     H_    0.353221 0.873669 0.405326 0.159114
H11   H     H_    0.353241 0.126507 0.405312 0.144604
H12   H     H_    0.646759 0.873493 0.594688 0.144603
N1    N     N_R   0.500000 0.857200 0.500000 -0.088767
N2    N     N_R   0.500000 0.142800 0.500000 -0.088767
O1    O     O_R   0.316770 0.614620 0.499990 -0.602609
O2    O     O_R   0.683230 0.385380 0.500010 -0.602607
O3    O     O_R   0.683230 0.614620 0.500010 -0.642564
O4    O     O_R   0.316770 0.385380 0.499990 -0.642563
O5    O     O_R   0.499980 0.614680 0.367850 -0.600650
O6    O     O_R   0.500020 0.385320 0.632150 -0.600649
O7    O     O_R   0.500020 0.614680 0.632150 -0.593111
O8    O     O_R   0.499980 0.385320 0.367850 -0.593110
Zn1   Zn    Zn3+2 0.500000 0.653120 0.500000 1.010122
Zn2   Zn    Zn3+2 0.500000 0.346880 0.500000 1.010123
C31   C     C_2   0.733406 0.478782 0.761147 0.873263
O9    O     O_2   0.751678 0.382034 0.711701 -0.635209
O10   O     O_R   0.823651 0.580748 0.769386 -0.793174
H13   H     H_    0.899969 0.563176 0.730835 0.354282
C32   C     C_2   0.266595 0.521223 0.238853 0.873265
O11   O     O_2   0.248322 0.617977 0.288293 -0.635206
O12   O     O_R   0.176351 0.419255 0.230620 -0.793175
H14   H     H_    0.100033 0.436829 0.269170 0.354283
C33   C     C_2   0.266368 0.520306 0.761317 0.866865
O13   O     O_2   0.189103 0.429023 0.766151 -0.620153
O14   O     O_R   0.243607 0.633859 0.707728 -0.780038
H15   H     H_    0.158887 0.629954 0.677402 0.338303
C34   C     C_2   0.733632 0.479692 0.238683 0.866864
O15   O     O_2   0.810898 0.570974 0.233849 -0.620152
O16   O     O_R   0.756392 0.366138 0.292273 -0.780037
H16   H     H_    0.841113 0.370044 0.322599 0.338303

loop_
_geom_bond_atom_site_label_1
_geom_bond_atom_site_label_2
_ccdc_geom_bond_type
C12   H10   S    
O4    Zn2   S    
C31   O9    D    
C33   O14   S    
C1    O4    A    
C2    O3    A    
C25   C27   A    
C17   C31   S    
C26   C28   A    
C16   O7    A    
C14   H12   S    
O3    Zn1   S    
C7    C9    A    
O2    Zn2   S    
C6    C9    A    
C13   H11   S    
C7    H7    S    
O1    Zn1   S    
C32   O11   D    
C29   H1    S    
C31   O10   S    
C15   O8    A    
C2    O2    A    
C15   O5    A    
C30   H2    S    
C11   N2    A    
C24   C26   A    
C1    O1    A    
O10   H13   S    
O6    Zn2   S    
C8    H8    S    
C16   C19   S    
O5    Zn1   S    
C23   C29   A    
C3    C28   A    
C17   C19   A    
C20   C22   A    
O8    Zn2   S    
C12   N1    A    
C22   C24   A    
O16   H16   S    
C23   C25   A    
C21   C23   A    
O12   H14   S    
C16   O6    A    
C11   C14   A    
C4    H4    S    
C22   C34   S    
C21   C33   S    
C24   C30   A    
C11   H9    S    
C3    H3    S    
O7    Zn1   S    
C34   O15   D    
C17   C27   A    
N2    Zn2   S    
C18   C32   S    
C5    C10   A    
C4    C27   A    
C18   C28   A    
C12   C13   A    
C18   C20   A    
C8    C10   A    
O14   H15   S    
C32   O12   S    
C5    C7    A    
C14   N1    A    
C3    C29   A    
C6    C8    A    
C19   C21   A    
C25   C26   A    
C2    C9    S    
C5    H5    S    
N1    Zn1   S    
C13   N2    A    
C4    C30   A    
C1    C10   S    
C33   O13   D    
C6    H6    S    
C15   C20   S    
C34   O16   S    
