data_mof_unit_13545.cif
_audit_creation_date              2013-03-05T15:47:56-0500
_audit_creation_method            fapswitch 2.2
_symmetry_space_group_name_H-M    P1
_symmetry_Int_Tables_number       1
_space_group_crystal_system       triclinic
_cell_length_a                    11.679456
_cell_length_b                    12.987685
_cell_length_c                    13.436742
_cell_angle_alpha                 91.97702
_cell_angle_beta                  76.954719
_cell_angle_gamma                 99.586381
_cell_volume                      1957.86732276

loop_
_atom_site_label
_atom_site_type_symbol
_atom_site_description
_atom_site_fract_x
_atom_site_fract_y
_atom_site_fract_z
_atom_type_partial_charge
O1    O     O_R   0.419710 0.645650 0.494620 -0.593391
O2    O     O_R   0.611450 0.658430 0.507430 -0.577589
C1    C     C_R   0.520969 0.700716 0.500578 0.817101
O3    O     O_R   0.357340 0.490460 0.641450 -0.572004
O4    O     O_R   0.549080 0.503250 0.654260 -0.601604
C2    C     C_R   0.436426 0.482321 0.694593 0.812866
Cu1   Cu    Cu3+1 0.386470 0.492430 0.492410 0.986120
Cu2   Cu    Cu3+1 0.613530 0.507570 0.507590 0.997435
O5    O     O_R   0.388550 0.341570 0.492570 -0.549018
O6    O     O_R   0.580290 0.354350 0.505380 -0.590185
O7    O     O_R   0.450920 0.496750 0.345740 -0.608610
O8    O     O_R   0.642660 0.509540 0.358550 -0.537844
C3    C     C_R   0.477531 0.299193 0.503155 0.851789
C4    C     C_R   0.563690 0.508219 0.303991 0.850816
C5    C     C_R   0.748055 0.509843 0.033577 -0.221660
H1    H     H_    0.778726 0.440246 0.843961 0.156453
H2    H     H_    0.840553 0.520600 0.992698 0.179145
C6    C     C_R   0.599798 0.510575 0.191587 -0.164242
C7    C     C_R   0.277278 0.442645 0.851216 -0.184733
C8    C     C_R   0.239297 0.429900 0.956463 0.017896
C9    C     C_R   0.322688 0.439576 0.017432 -0.200044
C10   C     C_R   0.446364 0.451554 0.972839 0.072581
C11   C     C_R   0.482084 0.442684 0.865060 0.026161
C12   C     C_R   0.536143 0.471282 0.030895 0.091855
C13   C     C_R   0.657610 0.478302 0.980590 0.076517
C14   C     C_R   0.687485 0.449069 0.878744 -0.249848
C15   C     C_R   0.599372 0.422653 0.823727 -0.030627
C16   C     C_R   0.509678 0.485704 0.136916 -0.285191
C17   C     C_R   0.720157 0.531201 0.138199 0.350563
C18   C     C_R   0.398722 0.453541 0.804357 -0.114051
H3    H     H_    0.418789 0.476788 0.179154 0.170016
H4    H     H_    0.211532 0.443536 0.805858 0.173508
H5    H     H_    0.287774 0.434425 0.098815 0.130693
C19   C     C_R   0.462142 0.185658 0.511821 -0.167895
C20   C     C_R   0.533298 0.813882 0.498658 -0.057440
C21   C     C_R   0.656975 0.983671 0.468337 -0.161910
C22   C     C_R   0.646409 0.875625 0.472748 -0.162469
C23   C     C_R   0.430906 0.860522 0.521463 -0.220897
C24   C     C_R   0.440838 0.968505 0.518436 0.102487
C25   C     C_R   0.554548 0.030493 0.491053 0.160041
C26   C     C_R   0.564184 0.138271 0.486894 -0.262343
C27   C     C_R   0.348184 0.123692 0.543731 0.334257
C28   C     C_R   0.338730 0.015177 0.544075 -0.252369
H6    H     H_    0.651658 0.185262 0.463868 0.184547
H7    H     H_    0.744822 0.030447 0.447389 0.155558
H8    H     H_    0.251792 0.967374 0.567907 0.176214
H9    H     H_    0.726364 0.840347 0.454468 0.182037
H10   H     H_    0.343464 0.812884 0.542586 0.150333
N1    N     N_R   0.215880 0.481050 0.481000 -0.181683
N2    N     N_R   0.784100 0.518950 0.519000 -0.203042
C29   C     C_R   0.943612 0.591159 0.600097 -0.323433
C30   C     C_R   0.825270 0.583207 0.590096 0.085405
C31   C     C_R   0.858578 0.460422 0.455727 0.146994
C32   C     C_R   0.978969 0.466083 0.463179 0.032178
C33   C     C_R   0.021472 0.532583 0.536422 0.060644
C34   C     C_R   0.141362 0.538798 0.543847 0.051293
C35   C     C_R   0.175904 0.416071 0.410243 0.137527
C36   C     C_R   0.058184 0.407418 0.399827 -0.288376
H11   H     H_    0.175433 0.589895 0.599596 0.113537
H12   H     H_    0.235736 0.370746 0.361292 0.125329
H13   H     H_    0.973937 0.642792 0.657267 0.146743
H14   H     H_    0.030335 0.354988 0.342261 0.154936
H15   H     H_    0.766042 0.628570 0.639666 0.137907
N3    N     N_R   0.813200 0.578638 0.187306 0.129762
O9    O     O_R   0.797518 0.658745 0.246794 -0.355837
O10   O     O_R   0.920175 0.556285 0.157556 -0.355780
N4    N     N_R   0.242566 0.169049 0.581118 0.132966
O11   O     O_R   0.143214 0.127996 0.556625 -0.359138
O12   O     O_R   0.239981 0.237820 0.654047 -0.359091
C37   C     C_1   0.814355 0.392424 0.380722 0.336087
N5    N     N_1   0.780320 0.337700 0.320025 -0.289685
C38   C     C_1   0.113791 0.407429 0.002038 0.277100
N6    N     N_1   0.012926 0.388127 0.038192 -0.226389
C39   C     C_1   0.625254 0.351528 0.739817 0.302589
N7    N     N_1   0.647663 0.292923 0.674390 -0.269570

loop_
_geom_bond_atom_site_label_1
_geom_bond_atom_site_label_2
_geom_bond_distance
_ccdc_geom_bond_type
C36   H14   1.082245 S    
C33   C34   1.414933 A    
C4    C6    1.473528 S    
C7    C8    1.390162 A    
C19   C27   1.418596 A    
Cu1   Cu2   2.679698 S    
C31   C32   1.421677 A    
Cu1   O7    1.943591 S    
C14   C15   1.389825 A    
C21   C22   1.390199 A    
C20   C22   1.402959 A    
C23   C24   1.389090 A    
O7    C4    1.295564 A    
C5    C13   1.402083 A    
C9    H5    1.077596 S    
C31   C37   1.443628 S    
N1    C35   1.359378 A    
C5    H2    1.084186 S    
O5    C3    1.290666 A    
C29   H13   1.083252 S    
N2    C30   1.363448 A    
C37   N5    1.157835 T    
C11   C15   1.420539 A    
C22   H9    1.083275 S    
C15   C39   1.443327 S    
C23   H10   1.084970 S    
C17   N3    1.438243 S    
C9    C10   1.417943 A    
C19   C26   1.400424 A    
O3    Cu1   1.954460 S    
C7    H4    1.084400 S    
C5    C17   1.398480 A    
H1    C14   1.085952 S    
N2    C31   1.378072 A    
C39   N7    1.156290 T    
C29   C30   1.405153 A    
C11   C18   1.430125 A    
C21   C25   1.399555 A    
C20   C23   1.397855 A    
C6    C16   1.404023 A    
C12   C13   1.416366 A    
Cu1   N1    2.013270 S    
O3    C2    1.307573 A    
C24   C25   1.411039 A    
C35   H12   1.081795 S    
C24   C28   1.396147 A    
C13   C14   1.389731 A    
C30   H15   1.081627 S    
N4    O11   1.301263 A    
N4    O12   1.301602 A    
N3    O10   1.300939 A    
C1    C20   1.453292 S    
Cu2   O8    1.954460 S    
C21   H7    1.083885 S    
C6    C17   1.412458 A    
C25   C26   1.387544 A    
C2    C18   1.482860 S    
O8    C4    1.299041 A    
C27   N4    1.436281 S    
C26   H6    1.083797 S    
C10   C12   1.428175 A    
C27   C28   1.395317 A    
Cu2   N2    2.013038 S    
C32   C36   1.412656 A    
Cu1   O5    1.963596 S    
C32   C33   1.407132 A    
O1    Cu1   1.963519 S    
C16   H3    1.074241 S    
O2    Cu2   1.963594 S    
C12   C16   1.400755 A    
C38   N6    1.156859 T    
O6    C3    1.297241 A    
O4    Cu2   1.943591 S    
N1    C34   1.369321 A    
C34   H11   1.082685 S    
N3    O9    1.301883 A    
O2    C1    1.291343 A    
C3    C19   1.460933 S    
C35   C36   1.398896 A    
O4    C2    1.291474 A    
C29   C33   1.404271 A    
C28   H8    1.084424 S    
C8    C9    1.395654 A    
Cu2   O6    1.963520 S    
C10   C11   1.419983 A    
C8    C38   1.439966 S    
O1    C1    1.293692 A    
C7    C18   1.401589 A    
