data_mof_unit_13018.cif
_audit_creation_date              2012-12-10T19:05:23-0500
_audit_creation_method            fapswitch 2.2
_symmetry_space_group_name_H-M    P1
_symmetry_Int_Tables_number       1
_space_group_crystal_system       triclinic
_cell_length_a                    9.530878
_cell_length_b                    10.826293
_cell_length_c                    17.359331
_cell_angle_alpha                 89.701005
_cell_angle_beta                  86.898101
_cell_angle_gamma                 89.990142
_cell_volume                      1788.55785845

loop_
_atom_site_label
_atom_site_type_symbol
_atom_type_description
_atom_site_fract_x
_atom_site_fract_y
_atom_site_fract_z
_atom_type_partial_charge
C1    C     C_R   0.499985 0.737703 0.501452 0.841984
C2    C     C_R   0.521527 0.504576 0.265921 -0.101015
C3    C     C_R   0.381301 0.936522 0.532665 0.112472
C4    C     C_R   0.482993 0.501641 0.649883 0.797763
C5    C     C_R   0.501792 0.870753 0.508500 -0.087412
C6    C     C_R   0.628847 0.935659 0.495664 -0.205991
C7    C     C_R   0.629011 0.064303 0.495402 -0.211867
C8    C     C_R   0.502075 0.129228 0.507868 -0.093403
C9    C     C_R   0.381446 0.063578 0.531899 0.132347
C10   C     C_3   0.233987 0.070712 0.507381 -0.462921
C11   C     C_3   0.233024 0.930251 0.509095 -0.459992
C12   C     C_R   0.350027 0.528578 0.775942 -0.177649
C13   C     C_R   0.929984 0.408164 0.463708 0.255813
C14   C     C_R   0.921355 0.583381 0.542045 -0.069534
C15   C     C_R   0.070361 0.583415 0.542027 -0.064389
C16   C     C_R   0.500138 0.262312 0.501055 0.799534
C17   C     C_R   0.077452 0.408050 0.463823 0.246973
C18   C     C_3   0.091925 0.376378 0.380308 -0.479382
C19   C     C_3   0.932812 0.376969 0.380066 -0.497393
C20   C     C_R   0.516948 0.503058 0.350239 0.846478
C21   C     C_R   0.478089 0.512102 0.733951 -0.060083
C22   C     C_R   0.604349 0.513765 0.772064 -0.242034
C23   C     C_R   0.410488 0.546185 0.146296 -0.189495
C24   C     C_R   0.604502 0.533255 0.851490 0.019811
C25   C     C_R   0.473943 0.546738 0.893332 0.085856
C26   C     C_R   0.348232 0.546051 0.855199 -0.161614
C27   C     C_2   0.311350 0.649900 0.263070 0.834301
C28   C     C_2   0.741893 0.544836 0.887822 0.814027
C29   C     C_R   0.414802 0.563710 0.225579 -0.028857
C30   C     C_R   0.625147 0.435162 0.225317 -0.208149
C31   C     C_R   0.622571 0.422836 0.145663 -0.126354
C32   C     C_R   0.515889 0.478934 0.105725 0.157608
C33   C     C_2   0.463736 0.556620 0.977179 -0.154576
C34   C     C_2   0.518844 0.469145 0.021355 -0.160253
Cu1   Cu    Cu3+1 0.359330 0.500020 0.500000 0.962442
Cu2   Cu    Cu3+1 0.640670 0.499980 0.500000 0.955443
H1    H     H_    0.704139 0.369757 0.115126 0.139225
H2    H     H_    0.703924 0.503942 0.739472 0.187317
H3    H     H_    0.726621 0.887811 0.481499 0.167797
H4    H     H_    0.726881 0.112167 0.481130 0.162820
H5    H     H_    0.223196 0.888732 0.451453 0.206719
H6    H     H_    0.862145 0.652305 0.574894 0.137336
H7    H     H_    0.141248 0.451373 0.344353 0.240183
H8    H     H_    0.273805 0.786357 0.339389 0.323317
H9    H     H_    0.892168 0.452791 0.344100 0.233398
H10   H     H_    0.706141 0.387839 0.255431 0.148891
H11   H     H_    0.248212 0.557089 0.887202 0.157585
H12   H     H_    0.161649 0.112599 0.552345 0.200088
H13   H     H_    0.325352 0.587398 0.116397 0.155215
H14   H     H_    0.251539 0.528872 0.747594 0.167080
H15   H     H_    0.853216 0.619699 0.971564 0.336888
H16   H     H_    0.227132 0.109877 0.448395 0.197364
H17   H     H_    0.160908 0.891421 0.555526 0.187994
H18   H     H_    0.123053 0.652263 0.574918 0.133504
H19   H     H_    0.138419 0.283345 0.370417 0.184319
H20   H     H_    0.887327 0.284295 0.369943 0.186460
H21   H     H_    0.575229 0.392101 0.994197 0.145214
H22   H     H_    0.408300 0.635932 0.001530 0.152303
N1    N     N_R   0.852130 0.499070 0.499500 -0.186021
N2    N     N_R   0.148040 0.499110 0.499500 -0.184482
O1    O     O_R   0.381190 0.680360 0.500000 -0.570996
O2    O     O_R   0.352473 0.729145 0.320950 -0.758077
O3    O     O_2   0.845503 0.491485 0.859748 -0.612790
O4    O     O_R   0.754429 0.619424 0.952633 -0.747587
O5    O     O_R   0.618770 0.680320 0.499990 -0.593313
O6    O     O_R   0.367430 0.500040 0.613600 -0.590269
O7    O     O_R   0.605020 0.500000 0.613590 -0.589707
O8    O     O_R   0.381230 0.319680 0.500010 -0.582862
O9    O     O_R   0.618810 0.319640 0.500000 -0.587915
O10   O     O_R   0.394980 0.500000 0.386410 -0.573483
O11   O     O_R   0.632570 0.499960 0.386400 -0.583902
O12   O     O_2   0.191516 0.655101 0.241278 -0.610098

loop_
_geom_bond_atom_site_label_1
_geom_bond_atom_site_label_2
_ccdc_geom_bond_type
C19   H20   S    
C4    O7    A    
C12   H14   S    
C7    H4    S    
C19   H9    S    
C20   O11   A    
C11   H5    S    
C6    C7    A    
C3    C9    A    
C27   O2    S    
C34   H21   S    
C28   O3    D    
C9    C10   S    
C1    O5    A    
Cu1   Cu2   S    
C11   H17   S    
Cu2   O11   S    
C13   C17   A    
C33   H22   S    
C2    C30   A    
Cu2   N1    S    
C10   H16   S    
C23   C32   A    
C14   C15   A    
C33   C34   D    
Cu2   O7    S    
C7    C8    A    
Cu1   O1    S    
C21   C22   A    
C24   C25   A    
C4    O6    A    
C4    C21   S    
C32   C34   S    
C20   O10   A    
C5    C6    A    
Cu1   O8    S    
C2    C29   A    
C13   N1    A    
C23   C29   A    
H8    O2    S    
C18   H19   S    
C17   C18   S    
C22   C24   A    
C16   O8    A    
C31   H1    S    
C10   H12   S    
C30   C31   A    
C1    C5    S    
C23   H13   S    
C27   C29   S    
C10   C11   S    
H15   O4    S    
C17   N2    A    
C2    C20   S    
C22   H2    S    
C15   H18   S    
C28   O4    S    
C27   O12   D    
C3    C11   S    
Cu2   O9    S    
C8    C16   S    
C18   C19   S    
C15   N2    A    
C12   C26   A    
C6    H3    S    
C26   H11   S    
Cu2   O5    S    
C8    C9    A    
C13   C19   S    
Cu1   O6    S    
C14   N1    A    
C25   C26   A    
C18   H7    S    
C14   H6    S    
C12   C21   A    
C30   H10   S    
C31   C32   A    
C16   O9    A    
C24   C28   S    
Cu1   O10   S    
C25   C33   S    
Cu1   N2    S    
C3    C5    A    
C1    O1    A    
