data_mof_unit_64762.cif
_audit_creation_date              2013-03-05T16:15:02-0500
_audit_creation_method            fapswitch 2.2
_symmetry_space_group_name_H-M    P1
_symmetry_Int_Tables_number       1
_space_group_crystal_system       triclinic
_cell_length_a                    13.380147
_cell_length_b                    14.257734
_cell_length_c                    17.050277
_cell_angle_alpha                 90.009636
_cell_angle_beta                  83.744683
_cell_angle_gamma                 90.002836
_cell_volume                      3233.3253594

loop_
_atom_site_label
_atom_site_type_symbol
_atom_site_description
_atom_site_fract_x
_atom_site_fract_y
_atom_site_fract_z
_atom_type_partial_charge
O1    O     O_R   0.423530 0.626280 0.499990 -0.604230
O2    O     O_R   0.576470 0.373720 0.500010 -0.588507
O3    O     O_R   0.576470 0.626280 0.500010 -0.604216
O4    O     O_R   0.423530 0.373720 0.499990 -0.587747
C1    C     C_R   0.500003 0.673425 0.500000 0.909683
C2    C     C_R   0.499987 0.326575 0.500062 1.017909
O5    O     O_R   0.414510 0.500000 0.615790 -0.592499
O6    O     O_R   0.585490 0.500000 0.384210 -0.593467
O7    O     O_R   0.567420 0.500000 0.615810 -0.611134
O8    O     O_R   0.432580 0.500000 0.384190 -0.610174
C3    C     C_R   0.485268 0.497242 0.654599 0.977584
C4    C     C_R   0.514725 0.497249 0.345419 0.979065
Zn1   Zn    Zn3+2 0.397910 0.500000 0.499990 1.033336
Zn2   Zn    Zn3+2 0.602090 0.500000 0.500010 1.031990
C5    C     C_R   0.471459 0.502746 0.739178 -0.163027
C6    C     C_R   0.528494 0.502228 0.260842 -0.162584
C7    C     C_R   0.517083 0.577363 0.774701 -0.195563
C8    C     C_R   0.485169 0.578021 0.225155 -0.196340
C9    C     C_R   0.503805 0.587171 0.855762 -0.085167
C10   C     C_R   0.498407 0.587265 0.144047 -0.084249
C11   C     C_R   0.447759 0.520245 0.901570 0.070160
C12   C     C_R   0.552055 0.518682 0.098393 0.069966
C13   C     C_R   0.396348 0.449304 0.866201 -0.106204
C14   C     C_R   0.601258 0.446378 0.133911 -0.106082
C15   C     C_R   0.407834 0.439273 0.784436 0.274667
C16   C     C_R   0.589821 0.436863 0.215720 0.274541
C17   C     C_2   0.453959 0.515797 0.986215 0.133246
C18   C     C_2   0.545629 0.514385 0.013771 0.133201
H1    H     H_    0.563205 0.627746 0.739571 0.161165
H2    H     H_    0.440834 0.629737 0.260194 0.160296
H3    H     H_    0.353294 0.397911 0.902527 0.204151
H4    H     H_    0.642479 0.393727 0.097692 0.204240
H5    H     H_    0.461980 0.644507 0.116507 0.157586
H6    H     H_    0.541996 0.643398 0.883180 0.157600
C19   C     C_1   0.500007 0.774082 0.500003 -0.199424
C20   C     C_1   0.499982 0.225926 0.500049 -0.114704
C21   C     C_1   0.500006 0.858656 0.500008 0.017075
C22   C     C_1   0.499983 0.141359 0.500036 0.047618
C23   C     C_1   0.499998 0.957725 0.500014 0.042914
C24   C     C_1   0.499990 0.042295 0.500024 0.049563
N1    N     N_1   0.738130 0.500000 0.500020 -0.056584
N2    N     N_1   0.261870 0.500000 0.499980 -0.056263
C25   C     C_1   0.830554 0.499993 0.500013 0.127278
C26   C     C_1   0.169446 0.499993 0.499988 0.128244
C27   C     C_1   0.950477 0.499989 0.500004 -0.006852
C28   C     C_1   0.049522 0.499989 0.499997 -0.006770
N3    N     N_R   0.635997 0.358514 0.251078 0.211139
O9    O     O_R   0.589727 0.315498 0.311832 -0.408125
O10   O     O_R   0.718897 0.322589 0.216746 -0.334872
N4    N     N_R   0.359354 0.362149 0.749267 0.211416
O11   O     O_R   0.404855 0.317228 0.689220 -0.406334
O12   O     O_R   0.274865 0.329038 0.783253 -0.334699
N5    N     N_R   0.637733 0.502096 0.962290 0.200506
O13   O     O_R   0.720289 0.540754 0.980372 -0.336883
O14   O     O_R   0.643129 0.440014 0.905995 -0.348363
N6    N     N_R   0.361456 0.506336 0.037707 0.200494
O15   O     O_R   0.280276 0.547368 0.019426 -0.337246
O16   O     O_R   0.353906 0.444564 0.094258 -0.348322

loop_
_geom_bond_atom_site_label_1
_geom_bond_atom_site_label_2
_geom_bond_distance
_ccdc_geom_bond_type
N4    O12   1.301502 A    
O7    Zn2   1.978370 S    
C14   H4    1.083862 S    
C8    H2    1.084063 S    
N6    O16   1.301774 A    
N1    C25   1.236636 T    
N3    O9    1.301113 A    
O6    C4    1.213245 A    
C18   N5    1.443647 S    
C13   C15   1.393161 A    
N4    O11   1.301167 A    
C11   C17   1.455989 S    
N3    O10   1.301477 A    
C12   C18   1.455990 S    
N5    O13   1.301193 A    
C22   C24   1.412435 S    
C25   C27   1.604573 S    
O7    C3    1.220147 A    
O2    C2    1.224264 A    
O3    Zn2   1.832826 S    
N2    C26   1.236635 T    
C16   N3    1.440311 S    
Zn2   N1    1.820255 S    
O1    C1    1.224250 A    
C10   H5    1.083588 S    
O8    C4    1.219930 A    
C6    C8    1.396848 A    
Zn1   N2    1.820255 S    
C9    C11   1.398373 A    
C2    C20   1.435017 S    
O5    C3    1.213372 A    
C8    C10   1.381250 A    
N5    O14   1.301777 A    
C11   C13   1.396432 A    
C6    C16   1.412805 A    
O2    Zn2   1.832794 S    
C12   C14   1.396446 A    
C5    C15   1.412864 A    
O4    C2    1.224221 A    
O1    Zn1   1.832793 S    
C10   C12   1.398356 A    
C20   C22   1.205738 T    
C23   C24   1.205764 T    
C1    C19   1.435139 S    
O5    Zn1   2.010781 S    
C7    H1    1.084056 S    
N6    O15   1.301207 A    
C21   C23   1.412499 S    
C17   C18   1.360590 D    
C5    C7    1.396992 A    
C17   N6    1.443654 S    
C7    C9    1.381221 A    
O6    Zn2   2.010781 S    
C26   C28   1.604572 S    
C19   C21   1.205839 T    
C27   C28   1.325227 T    
C3    C5    1.435923 S    
C15   N4    1.440131 S    
C9    H6    1.083618 S    
C4    C6    1.435508 S    
O4    Zn1   1.832828 S    
C14   C16   1.393207 A    
O3    C1    1.224231 A    
O8    Zn1   1.978370 S    
C13   H3    1.083853 S    
