data_mof_unit_61772.cif
_audit_creation_date              2012-12-10T18:39:29-0500
_audit_creation_method            fapswitch 2.2
_symmetry_space_group_name_H-M    P1
_symmetry_Int_Tables_number       1
_space_group_crystal_system       triclinic
_cell_length_a                    15.844581
_cell_length_b                    11.566448
_cell_length_c                    10.776635
_cell_angle_alpha                 90.000306
_cell_angle_beta                  90.126772
_cell_angle_gamma                 89.994569
_cell_volume                      1974.98079781

loop_
_atom_site_label
_atom_site_type_symbol
_atom_type_description
_atom_site_fract_x
_atom_site_fract_y
_atom_site_fract_z
_atom_type_partial_charge
C1    C     C_R   0.500001 0.281168 0.500000 0.919026
C2    C     C_R   0.338026 0.499923 0.499845 0.904203
C3    C     C_R   0.661969 0.500094 0.500150 0.899246
C4    C     C_1   0.500009 0.059154 0.500000 0.036213
C5    C     C_1   0.500004 0.161056 0.499999 -0.138606
C6    C     C_1   0.500000 0.500010 0.069755 0.087376
C7    C     C_1   0.500000 0.500010 0.930244 0.083404
C8    C     C_R   0.500011 0.718832 0.500000 0.913518
C9    C     C_3   0.051657 0.411803 0.610577 -0.292460
C10   C     C_3   0.051118 0.444313 0.362110 -0.295408
C11   C     C_3   0.948748 0.424620 0.621421 -0.304992
C12   C     C_1   0.749997 0.501117 0.500601 0.085295
C13   C     C_3   0.947208 0.443671 0.368930 -0.312929
C14   C     C_1   0.500015 0.940848 0.500000 0.036045
C15   C     C_1   0.500016 0.838945 0.500001 -0.140535
C16   C     C_2   0.092103 0.693299 0.628216 1.009343
C17   C     C_2   0.092123 0.705305 0.402997 1.006382
C18   C     C_2   0.910637 0.696931 0.636609 0.910428
C19   C     C_2   0.906555 0.726477 0.430318 1.045912
C20   C     C_2   0.906694 0.304407 0.638495 1.010914
C21   C     C_2   0.905157 0.321187 0.360255 1.034831
C22   C     C_2   0.086707 0.287430 0.586413 0.954292
C23   C     C_1   0.249991 0.498837 0.499319 0.070350
C24   C     C_2   0.090383 0.326868 0.323083 0.979970
C25   C     C_2   0.089536 0.507023 0.246751 0.945951
C26   C     C_2   0.095580 0.426775 0.738286 1.078096
C27   C     C_2   0.909135 0.506734 0.253338 1.026530
C28   C     C_2   0.914066 0.479550 0.744260 0.961700
C29   C     C_3   0.083451 0.497165 0.497109 -0.091004
C30   C     C_3   0.916606 0.502379 0.501430 -0.100345
C31   C     C_3   0.948536 0.637435 0.518435 -0.277616
C32   C     C_3   0.052353 0.633366 0.511927 -0.306722
C33   C     C_1   0.824843 0.502089 0.501106 0.142964
C34   C     C_1   0.175170 0.497742 0.498539 0.128810
H1    H     H_    0.153713 0.831173 0.701993 0.366363
H2    H     H_    0.197843 0.477294 0.837241 0.359979
H3    H     H_    0.838036 0.500016 0.096547 0.361369
H4    H     H_    0.930850 0.570950 0.902548 0.374849
H5    H     H_    0.083432 0.783902 0.235581 0.377639
H6    H     H_    0.806548 0.727653 0.740559 0.366363
H7    H     H_    0.805465 0.772994 0.326491 0.364436
H8    H     H_    0.901574 0.158365 0.741848 0.380406
H9    H     H_    0.797224 0.228933 0.336637 0.374374
H10   H     H_    0.189256 0.182012 0.589084 0.378623
H11   H     H_    0.091384 0.196856 0.196931 0.377978
H12   H     H_    0.087798 0.530540 0.060190 0.382531
N1    N     N_1   0.500000 0.500010 0.180630 -0.065806
N2    N     N_1   0.500000 0.500010 0.819370 -0.067036
O1    O     O_R   0.500000 0.334450 0.602530 -0.604910
O2    O     O_R   0.133506 0.800370 0.618965 -0.722356
O3    O     O_2   0.167961 0.726885 0.404945 -0.567439
O4    O     O_R   0.047471 0.740204 0.297621 -0.718824
O5    O     O_2   0.946492 0.777710 0.687734 -0.535233
O6    O     O_R   0.825902 0.678642 0.667959 -0.793702
O7    O     O_2   0.933389 0.825965 0.426928 -0.523857
O8    O     O_R   0.828261 0.704332 0.374517 -0.803980
O9    O     O_2   0.840741 0.278698 0.586565 -0.608747
O10   O     O_R   0.936070 0.231779 0.733482 -0.710268
O11   O     O_2   0.943948 0.231523 0.375602 -0.525166
O12   O     O_R   0.500000 0.334450 0.397470 -0.605654
O13   O     O_R   0.817809 0.311914 0.339880 -0.750116
O14   O     O_2   0.042765 0.206591 0.553565 -0.525298
O15   O     O_R   0.173136 0.265518 0.605258 -0.766429
O16   O     O_2   0.159638 0.296816 0.361503 -0.610018
O17   O     O_R   0.057182 0.267705 0.220145 -0.696411
O18   O     O_2   0.161173 0.546353 0.251000 -0.608560
O19   O     O_R   0.053528 0.492952 0.128572 -0.704401
O20   O     O_2   0.068488 0.373594 0.828202 -0.529654
O21   O     O_R   0.174503 0.480365 0.749610 -0.776293
O22   O     O_2   0.930087 0.604827 0.226924 -0.563364
O23   O     O_R   0.377140 0.500000 0.602580 -0.604316
O24   O     O_R   0.856076 0.449512 0.168835 -0.713820
O25   O     O_2   0.838767 0.469552 0.769034 -0.582943
O26   O     O_R   0.963710 0.541339 0.828401 -0.718177
O27   O     O_R   0.377140 0.500000 0.397420 -0.592533
O28   O     O_R   0.622860 0.500000 0.602580 -0.592607
O29   O     O_R   0.622860 0.500000 0.397420 -0.604552
O30   O     O_R   0.500000 0.665550 0.602530 -0.610219
O31   O     O_R   0.500000 0.665550 0.397470 -0.606669
O32   O     O_2   0.081263 0.655234 0.731844 -0.551771
Zn1   Zn    Zn3+2 0.500000 0.500000 0.636920 1.040995
Zn2   Zn    Zn3+2 0.500000 0.500000 0.363080 1.045042

loop_
_geom_bond_atom_site_label_1
_geom_bond_atom_site_label_2
_ccdc_geom_bond_type
C19   O8    S    
C25   O19   S    
C28   O26   S    
C17   O3    D    
C1    C5    S    
O29   Zn2   S    
C16   O2    S    
C21   O11   D    
C29   C32   S    
C30   C31   S    
C9    C22   S    
O30   Zn1   S    
N2    Zn1   S    
N1    Zn2   S    
O1    Zn1   S    
C3    C12   S    
C18   O5    D    
C22   O15   S    
O12   Zn2   S    
C11   C30   S    
C8    O31   A    
C21   O13   S    
C9    C29   S    
H5    O4    S    
C19   C31   S    
C24   O16   D    
C8    O30   A    
H8    O10   S    
C28   O25   D    
C17   O4    S    
C9    C26   S    
H10   O15   S    
C11   C20   S    
C6    N1    T    
C13   C30   S    
C1    O12   A    
C10   C24   S    
C29   C34   S    
C16   O32   D    
H7    O8    S    
C22   O14   D    
C31   C32   S    
C23   C34   T    
H1    O2    S    
C13   C21   S    
C3    O28   A    
C9    C11   S    
C27   O22   D    
C24   O17   S    
C10   C25   S    
C8    C15   S    
H6    O6    S    
H11   O17   S    
C20   O10   S    
C2    O23   A    
C3    O29   A    
H2    O21   S    
H9    O13   S    
H4    O26   S    
C19   O7    D    
C26   O21   S    
C30   C33   S    
C25   O18   D    
C4    C5    T    
C10   C13   S    
O28   Zn1   S    
O31   Zn2   S    
C27   O24   S    
O27   Zn2   S    
C6    C7    S    
C16   C32   S    
C26   O20   D    
C7    N2    T    
C20   O9    D    
H12   O19   S    
C10   C29   S    
C11   C28   S    
C4    C14   S    
C18   O6    S    
H3    O24   S    
C2    C23   S    
C17   C32   S    
C14   C15   T    
C13   C27   S    
C18   C31   S    
C12   C33   T    
C1    O1    A    
C2    O27   A    
O23   Zn1   S    
