data_mof_unit_30657.cif
_audit_creation_date              2012-12-10T19:18:33-0500
_audit_creation_method            fapswitch 2.2
_symmetry_space_group_name_H-M    P1
_symmetry_Int_Tables_number       1
_space_group_crystal_system       triclinic
_cell_length_a                    15.753793
_cell_length_b                    14.998468
_cell_length_c                    10.501774
_cell_angle_alpha                 89.443179
_cell_angle_beta                  89.93522
_cell_angle_gamma                 89.97259
_cell_volume                      2481.26911231

loop_
_atom_site_label
_atom_site_type_symbol
_atom_type_description
_atom_site_fract_x
_atom_site_fract_y
_atom_site_fract_z
_atom_type_partial_charge
C1    C     C_R   0.338054 0.500023 0.500341 0.879171
C2    C     C_3   0.500086 0.501308 0.122224 -0.015817
C3    C     C_3   0.050474 0.578738 0.600725 0.151580
C4    C     C_3   0.050073 0.410817 0.578946 0.123025
C5    C     C_3   0.952616 0.403995 0.558766 0.232042
C6    C     C_3   0.951432 0.576661 0.605376 0.201453
C7    C     C_1   0.750719 0.499759 0.506606 -0.082693
C8    C     C_3   0.083096 0.500122 0.516055 -0.100420
C9    C     C_3   0.917035 0.498500 0.520756 -0.076536
C10   C     C_3   0.949763 0.517893 0.383278 -0.563060
C11   C     C_3   0.047232 0.510765 0.379070 -0.341311
C12   C     C_1   0.825764 0.499198 0.513792 0.112227
C13   C     C_1   0.174402 0.500302 0.510730 0.153164
C14   C     C_R   0.500076 0.500458 0.256898 0.864423
C15   C     C_1   0.249501 0.500106 0.505318 -0.024731
C16   C     C_3   0.408930 0.052699 0.430748 0.192586
C17   C     C_3   0.416574 0.947690 0.409222 0.199276
C18   C     C_3   0.493769 0.050111 0.637886 0.170503
C19   C     C_3   0.478020 0.945165 0.635813 0.118814
C20   C     C_3   0.490791 0.090195 0.498366 -0.142333
C21   C     C_3   0.490301 0.909703 0.495775 -0.132510
C22   C     C_3   0.575411 0.949058 0.444609 -0.452209
C23   C     C_3   0.569856 0.052247 0.428475 -0.442603
C24   C     C_1   0.495398 0.809098 0.496345 0.253744
C25   C     C_1   0.495589 0.190903 0.497597 0.343265
C26   C     C_R   0.662144 0.499969 0.500286 0.886793
C27   C     C_R   0.500121 0.499551 0.743361 0.889889
C28   C     C_3   0.500085 0.585322 0.038677 -0.104663
C29   C     C_3   0.430222 0.458111 0.043402 -0.169393
C30   C     C_3   0.430215 0.542022 0.957104 -0.142730
C31   C     C_3   0.500107 0.498764 0.878053 -0.023138
C32   C     C_3   0.569975 0.541972 0.956879 -0.166440
C33   C     C_3   0.500112 0.414783 0.961632 -0.085789
C34   C     C_3   0.569976 0.458074 0.043177 -0.162194
H1    H     H_    0.373425 0.575986 0.917057 0.182684
H2    H     H_    0.356140 0.917272 0.442687 0.151876
H3    H     H_    0.356732 0.060682 0.500244 0.192974
H4    H     H_    0.560690 0.057849 0.670288 0.113343
H5    H     H_    0.529379 0.914667 0.694645 0.115241
H6    H     H_    0.567524 0.070400 0.325849 0.274307
H7    H     H_    0.593536 0.918602 0.352518 0.237734
H8    H     H_    0.628911 0.082610 0.466731 0.196427
H9    H     H_    0.627461 0.932337 0.512345 0.193282
H10   H     H_    0.500094 0.654805 0.074082 0.195605
H11   H     H_    0.373463 0.424133 0.083629 0.166360
H12   H     H_    0.626805 0.575820 0.916656 0.188582
H13   H     H_    0.500164 0.345277 0.926525 0.218620
H14   H     H_    0.626789 0.424123 0.083157 0.167831
H15   H     H_    0.942487 0.361032 0.474233 0.169735
H16   H     H_    0.926499 0.639364 0.561888 0.169145
H17   H     H_    0.074362 0.570225 0.330222 0.251910
H18   H     H_    0.065529 0.453346 0.319417 0.237856
N1    N     N_1   0.498630 0.731150 0.497460 -0.058533
N2    N     N_1   0.498630 0.268850 0.497460 -0.052530
O1    O     O_R   0.377210 0.574260 0.500130 -0.573997
O2    O     O_R   0.377210 0.425740 0.500130 -0.581887
O3    O     O_R   0.500050 0.574220 0.314080 -0.613729
O4    O     O_R   0.500050 0.425780 0.314080 -0.615788
O5    O     O_R   0.622930 0.574200 0.500140 -0.620460
O6    O     O_R   0.622930 0.425800 0.500140 -0.605452
O7    O     O_R   0.500090 0.574240 0.686180 -0.606015
O8    O     O_R   0.500090 0.425760 0.686180 -0.598905
Zn1   Zn    Zn3+2 0.500090 0.599130 0.500180 1.048424
Zn2   Zn    Zn3+2 0.500090 0.400870 0.500180 1.060507
H19   H     H_    0.930003 0.585714 0.350902 0.244262
H20   H     H_    0.922050 0.470078 0.314218 0.217924
S1    S     S_3+6 0.437276 0.115475 0.755719 0.088503
O9    O     O_2   0.433073 0.066876 0.881185 -0.130802
O10   O     O_2   0.485653 0.200525 0.775833 -0.341895
O11   O     O_3   0.338785 0.141908 0.706852 -0.501136
H21   H     H_    0.316499 0.182743 0.772494 0.403804
S2    S     S_3+6 0.380321 0.904162 0.710101 0.077296
O12   O     O_2   0.359496 0.812123 0.664349 -0.308271
O13   O     O_2   0.392620 0.898452 0.851812 -0.159178
O14   O     O_3   0.296761 0.970101 0.677702 -0.496278
H22   H     H_    0.249242 0.944488 0.727866 0.420083
S3    S     S_3+6 0.370181 0.120860 0.299180 0.099706
O15   O     O_2   0.437397 0.134421 0.199278 -0.232543
O16   O     O_2   0.292961 0.079164 0.241011 -0.169688
O17   O     O_3   0.340985 0.221055 0.355088 -0.558584
H23   H     H_    0.324894 0.256471 0.278743 0.390349
S4    S     S_3+6 0.425624 0.911085 0.244164 0.115670
O18   O     O_2   0.341092 0.918721 0.179116 -0.122609
O19   O     O_2   0.489425 0.965725 0.171084 -0.238280
O20   O     O_3   0.454359 0.803153 0.236950 -0.554514
H24   H     H_    0.515762 0.803407 0.216538 0.347958
S5    S     S_3+6 0.913570 0.581090 0.767695 0.058289
O21   O     O_2   0.938295 0.669576 0.822311 -0.224608
O22   O     O_2   0.818506 0.573396 0.772152 -0.279570
O23   O     O_3   0.957920 0.500186 0.857186 -0.517107
H25   H     H_    0.932770 0.507317 0.942970 0.396069
S6    S     S_3+6 0.898540 0.342112 0.684812 0.101416
O24   O     O_2   0.958781 0.317946 0.790623 -0.210704
O25   O     O_2   0.824729 0.392300 0.739382 -0.243558
O26   O     O_3   0.861428 0.247298 0.621324 -0.512506
H26   H     H_    0.833998 0.214998 0.693057 0.392561
H27   H     H_    0.076315 0.567821 0.698210 0.156904
H28   H     H_    0.063222 0.414945 0.682600 0.173779
S7    S     S_3+6 0.103646 0.309988 0.527919 0.074861
O27   O     O_2   0.056635 0.229683 0.577527 -0.168206
O28   O     O_2   0.108200 0.305254 0.385268 -0.285424
O29   O     O_3   0.202536 0.307988 0.587990 -0.540665
H29   H     H_    0.227537 0.251519 0.557352 0.428208
S8    S     S_3+6 0.088042 0.688816 0.554036 0.056696
O30   O     O_2   0.050271 0.717045 0.428603 -0.290831
O31   O     O_2   0.061318 0.754251 0.653851 -0.194277
O32   O     O_3   0.194504 0.690967 0.543045 -0.526902
H30   H     H_    0.208563 0.752778 0.516491 0.415268

loop_
_geom_bond_atom_site_label_1
_geom_bond_atom_site_label_2
_ccdc_geom_bond_type
C3    S8    S    
S5    O21   D    
C8    C13   S    
C4    H28   S    
O26   H26   S    
C4    C8    S    
C3    C6    S    
C6    C9    S    
S8    O31   D    
C4    S7    S    
S3    O15   D    
C7    C26   S    
C30   H1    S    
C2    C29   S    
C19   C21   S    
C1    O2    A    
C16   S3    S    
C30   C31   S    
S3    O17   S    
C22   H7    S    
C20   C25   S    
C23   H6    S    
C29   C33   S    
C18   C19   S    
O7    Zn1   S    
O8    Zn2   S    
C11   H18   S    
C27   O7    A    
C22   H9    S    
C16   C17   S    
O1    Zn1   S    
O32   H30   S    
O2    Zn2   S    
O11   H21   S    
C1    C15   S    
C17   H2    S    
C26   O5    A    
C16   H3    S    
C2    C34   S    
S3    O16   D    
C21   C22   S    
C5    H15   S    
C19   S2    S    
S2    O14   S    
S8    O30   D    
O3    Zn1   S    
C10   H20   S    
O4    Zn2   S    
C7    C12   T    
C14   O4    A    
C31   C33   S    
C27   C31   S    
S1    O9    D    
C28   C32   S    
C25   N2    T    
S2    O13   D    
C3    C8    S    
O17   H23   S    
C18   S1    S    
O20   H24   S    
C28   H10   S    
S6    O26   S    
C17   C21   S    
C6    S5    S    
C29   H11   S    
S1    O10   D    
C32   C34   S    
O14   H22   S    
C5    C9    S    
C29   C30   S    
C27   O8    A    
C3    H27   S    
C31   C32   S    
C20   C23   S    
C16   C20   S    
S6    O25   D    
C33   C34   S    
C6    H16   S    
C23   H8    S    
C19   H5    S    
S7    O28   D    
S4    O19   D    
C13   C15   T    
C33   H13   S    
C21   C24   S    
C34   H14   S    
C9    C10   S    
C10   H19   S    
C14   O3    A    
C32   H12   S    
C17   S4    S    
S2    O12   D    
S4    O20   S    
O5    Zn1   S    
S7    O27   D    
O6    Zn2   S    
S1    O11   S    
C28   C30   S    
C24   N1    T    
N1    Zn1   S    
O23   H25   S    
N2    Zn2   S    
C8    C11   S    
S6    O24   D    
C1    O1    A    
C18   C20   S    
C18   H4    S    
O29   H29   S    
C2    C14   S    
C9    C12   S    
C5    S6    S    
C11   H17   S    
C10   C11   S    
C4    C5    S    
S7    O29   S    
S4    O18   D    
S5    O23   S    
S5    O22   D    
C22   C23   S    
C2    C28   S    
C26   O6    A    
S8    O32   S    
