data_mof_unit_14237.cif
_audit_creation_date              2012-12-11T14:06:33-0500
_audit_creation_method            fapswitch 2.2
_symmetry_space_group_name_H-M    P1
_symmetry_Int_Tables_number       1
_space_group_crystal_system       triclinic
_cell_length_a                    6.921366
_cell_length_b                    17.322517
_cell_length_c                    24.093453
_cell_angle_alpha                 104.524605
_cell_angle_beta                  90.310861
_cell_angle_gamma                 89.934832
_cell_volume                      2796.33223896

loop_
_atom_site_label
_atom_site_type_symbol
_atom_type_description
_atom_site_fract_x
_atom_site_fract_y
_atom_site_fract_z
_atom_type_partial_charge
O1    O     O_R   0.494290 0.391990 0.999150 -0.535507
O2    O     O_R   0.827170 0.534410 0.082350 -0.531885
O3    O     O_R   0.994360 0.608010 0.000850 -0.552926
C1    C     C_R   0.657937 0.547621 0.106293 0.772977
O4    O     O_R   0.824210 0.388010 0.004470 -0.546752
O5    O     O_R   0.991370 0.460560 0.922410 -0.547148
C2    C     C_R   0.654534 0.354878 0.001511 0.771960
O6    O     O_R   0.497270 0.539440 0.077590 -0.520494
O7    O     O_3   0.659770 0.523970 0.973170 -0.374589
V1    V     V_3+5 0.935840 0.495550 0.004980 1.486187
O8    O     O_R   0.320910 0.465590 0.917650 -0.546997
C3    C     C_R   0.151569 0.450131 0.893839 0.692495
O9    O     O_R   0.323870 0.611990 0.995530 -0.520130
C4    C     C_R   0.154426 0.644422 0.997127 0.735532
V2    V     V_3+5 0.435470 0.504450 0.995020 1.506273
O10   O     O_3   0.161670 0.476030 0.026830 -0.348064
C5    C     C_2   0.145311 0.727142 0.991655 0.081041
C6    C     C_2   0.978511 0.770124 0.002161 -0.373352
C7    C     C_R   0.170883 0.253555 0.623409 0.577723
N1    N     N_R   0.101828 0.328598 0.648110 -0.560557
C8    C     C_R   0.017590 0.373814 0.615230 0.579223
C9    C     C_R   0.999382 0.343891 0.555373 -0.026365
C10   C     C_R   0.068939 0.266873 0.529552 -0.011230
C11   C     C_R   0.155858 0.221219 0.563700 -0.026500
C12   C     C_R   0.913401 0.389035 0.520815 -0.145453
C13   C     C_R   0.896421 0.358080 0.461524 -0.118760
C14   C     C_R   0.964729 0.281151 0.435294 -0.035863
C15   C     C_R   0.051233 0.235385 0.469459 -0.019943
C16   C     C_R   0.119846 0.158166 0.443676 -0.035328
C17   C     C_R   0.206377 0.113132 0.478196 -0.126588
C18   C     C_R   0.224312 0.144290 0.537447 -0.137012
C19   C     C_R   0.949170 0.248700 0.375631 0.635099
N2    N     N_R   0.016263 0.173378 0.351154 -0.555416
C20   C     C_R   0.099927 0.127989 0.383900 0.664123
O11   O     O_2   0.251768 0.209883 0.656528 -0.513226
O12   O     O_2   0.952686 0.447743 0.640271 -0.512670
H1    H     H_    0.858814 0.448458 0.539452 0.161175
O13   O     O_2   0.867783 0.292061 0.342376 -0.485785
O14   O     O_2   0.163095 0.053838 0.358752 -0.480328
H2    H     H_    0.260596 0.053642 0.459561 0.165516
C21   C     C_R   0.832748 0.102483 0.264604 0.310690
C22   C     C_R   0.819952 0.073255 0.204820 -0.218013
C23   C     C_R   0.976025 0.081408 0.169458 -0.103226
C24   C     C_R   0.144571 0.120143 0.195247 -0.170832
H3    H     H_    0.267031 0.127905 0.169374 0.144896
C25   C     C_R   0.156042 0.150618 0.254716 -0.085178
H4    H     H_    0.285777 0.181325 0.273601 0.173977
C26   C     C_R   0.001161 0.141867 0.289847 0.321626
C27   C     C_R   0.295662 0.375356 0.736955 -0.076067
H5    H     H_    0.426810 0.364508 0.711903 0.125469
C28   C     C_R   0.308017 0.405014 0.796624 -0.189117
H6    H     H_    0.449523 0.416155 0.816361 0.128354
C29   C     C_R   0.139661 0.419694 0.830269 -0.053355
C30   C     C_R   0.958919 0.404184 0.802497 -0.191188
H7    H     H_    0.826173 0.414573 0.826802 0.129029
C31   C     C_R   0.946937 0.374692 0.742902 -0.081315
C32   C     C_R   0.115029 0.359878 0.709616 0.374683
C33   C     C_R   0.442340 0.868495 0.611439 0.575875
N3    N     N_R   0.514500 0.826397 0.648266 -0.559511
C34   C     C_R   0.606945 0.754784 0.627521 0.581636
C35   C     C_R   0.631220 0.723398 0.568049 -0.029337
C36   C     C_R   0.558184 0.766069 0.529881 -0.010879
C37   C     C_R   0.462379 0.839131 0.551581 -0.024149
C38   C     C_R   0.726633 0.650484 0.545909 -0.136236
C39   C     C_R   0.748884 0.620356 0.486754 -0.133773
C40   C     C_R   0.676111 0.662317 0.448200 -0.042788
C41   C     C_R   0.580721 0.735521 0.469873 -0.016253
C42   C     C_R   0.507126 0.778076 0.431664 -0.033523
C43   C     C_R   0.412299 0.851101 0.453816 -0.126663
C44   C     C_R   0.390251 0.881246 0.513002 -0.145698
C45   C     C_R   0.694248 0.632526 0.388372 0.664157
N4    N     N_R   0.619708 0.674114 0.351649 -0.548179
C46   C     C_R   0.528708 0.745963 0.372154 0.622822
O15   O     O_2   0.353718 0.939071 0.632575 -0.516953
O16   O     O_2   0.674272 0.713651 0.664269 -0.508391
H8    H     H_    0.784400 0.616356 0.574211 0.179893
O17   O     O_2   0.783705 0.562182 0.367080 -0.472300
O18   O     O_2   0.457662 0.785830 0.335101 -0.499762
H9    H     H_    0.354312 0.885157 0.425496 0.184254
H10   H     H_    0.316294 0.937644 0.528387 0.160782
C47   C     C_R   0.787856 0.655910 0.259327 -0.079971
H11   H     H_    0.903997 0.693522 0.281190 0.170729
C48   C     C_R   0.797079 0.624377 0.199950 -0.189892
H12   H     H_    0.920488 0.639027 0.177076 0.164629
C49   C     C_R   0.647308 0.576237 0.170096 -0.163337
C50   C     C_R   0.488642 0.557890 0.201832 0.194513
C51   C     C_R   0.479670 0.590534 0.261752 0.283432
C52   C     C_R   0.629092 0.640011 0.290476 0.268655
C53   C     C_R   0.664751 0.877683 0.743721 -0.079710
H13   H     H_    0.806068 0.869198 0.724060 0.122932
C54   C     C_R   0.650716 0.907541 0.803154 -0.186413
C55   C     C_R   0.469179 0.919513 0.830223 -0.059314
C56   C     C_R   0.301870 0.901064 0.795887 -0.184002
C57   C     C_R   0.316300 0.870909 0.736232 -0.071062
H14   H     H_    0.185972 0.856322 0.710713 0.128026
C58   C     C_R   0.498053 0.858686 0.709660 0.371879
C59   C     C_2   0.642856 0.269759 0.001952 -0.322942
C60   C     C_2   0.472608 0.230263 0.998066 -0.322949
H15   H     H_    0.337939 0.261128 0.994753 0.151976
O19   O     O_R   0.618210 0.960470 0.922400 -0.540299
O20   O     O_R   0.291310 0.111960 0.995450 -0.551038
O21   O     O_R   0.124210 0.039530 0.077580 -0.541979
C61   C     C_R   0.460964 0.145120 0.998459 0.753668
O22   O     O_R   0.288310 0.965490 0.917650 -0.541174
O23   O     O_R   0.121180 0.892010 0.999220 -0.508336
C62   C     C_R   0.457144 0.950037 0.893819 0.744689
O24   O     O_R   0.621230 0.107990 0.000760 -0.541161
O25   O     O_3   0.455770 0.976060 0.026840 -0.350369
V3    V     V_3+5 0.179680 0.004440 0.995020 1.468516
O26   O     O_R   0.791670 0.888040 0.004570 -0.527177
C63   C     C_R   0.961977 0.854643 0.000635 0.830706
O27   O     O_R   0.794680 0.034510 0.082370 -0.546481
C64   C     C_R   0.963999 0.050198 0.106077 0.714404
V4    V     V_3+5 0.680070 0.995560 0.005010 1.484206
O28   O     O_3   0.953840 0.023940 0.973160 -0.385283
Br1   Br    Br    0.381691 0.765385 0.964840 -0.525572
H16   H     H_    0.806468 0.362774 0.722572 0.121992
H17   H     H_    0.822730 0.563933 0.471360 0.164407
H18   H     H_    0.849122 0.742592 0.013889 0.151219
Br2   Br    Br    0.288776 0.484456 0.165556 -0.447993
Br3   Br    Br    0.263825 0.568229 0.305496 -0.408670
H19   H     H_    0.782910 0.921151 0.827893 0.129771
H20   H     H_    0.159888 0.909273 0.815107 0.127492
H21   H     H_    0.777521 0.238903 0.005285 0.148745
H22   H     H_    0.829417 0.394638 0.436347 0.185865
H23   H     H_    0.291658 0.107782 0.562598 0.179301
Br4   Br    Br    0.620004 0.086707 0.311016 -0.494245
H24   H     H_    0.688946 0.043268 0.186198 0.161700

loop_
_geom_bond_atom_site_label_1
_geom_bond_atom_site_label_2
_ccdc_geom_bond_type
C51   C52   A    
C56   C57   A    
C21   C22   A    
C21   Br4   S    
C7    N1    A    
C1    O6    A    
O22   C62   A    
C59   C60   D    
C8    O12   S    
C29   C30   A    
O25   V3    S    
C13   C14   A    
C16   C17   A    
C36   C41   A    
C15   C16   A    
C59   H21   S    
O5    C3    A    
C17   C18   A    
O20   V3    S    
V2    O10   S    
C27   C32   A    
C31   C32   A    
C31   H16   S    
O25   V4    S    
C27   H5    S    
O26   C63   A    
C12   H1    S    
C30   H7    S    
O8    V2    S    
C40   C45   A    
C42   C43   A    
C27   C28   A    
C9    C12   A    
C39   H17   S    
O1    V2    S    
C19   O13   S    
C53   C54   A    
O7    V1    S    
O26   V4    S    
C3    C29   S    
C22   H24   S    
C40   C41   A    
O23   C63   A    
N3    C34   A    
O20   C61   A    
C8    C9    A    
C4    C5    S    
C43   C44   A    
O27   V4    S    
O27   C64   A    
C47   C48   A    
C24   C25   A    
C5    C6    D    
C25   C26   A    
C30   C31   A    
C44   H10   S    
C20   O14   S    
O19   V4    S    
C6    C63   S    
C53   H13   S    
C54   C55   A    
C51   Br3   S    
C50   C51   A    
C1    C49   S    
C33   N3    A    
C49   C50   A    
C16   C20   A    
C54   H19   S    
C47   H11   S    
C41   C42   A    
C34   C35   A    
C28   C29   A    
C13   H22   S    
C35   C38   A    
O2    C1    A    
C23   C24   A    
O24   V4    S    
C36   C37   A    
C48   H12   S    
C37   C44   A    
C46   O18   S    
N2    C20   A    
C38   H8    S    
C17   H2    S    
C57   H14   S    
C12   C13   A    
C10   C15   A    
C57   C58   A    
O3    C4    A    
C55   C62   S    
C48   C49   A    
C7    O11   S    
C39   C40   A    
O6    V2    S    
O9    V2    S    
C43   H9    S    
N3    C58   S    
O2    V1    S    
C45   O17   S    
C24   H3    S    
C33   O15   S    
O4    C2    A    
C33   C37   A    
O23   V3    S    
C25   H4    S    
C2    C59   S    
C14   C19   A    
O1    C2    A    
C56   H20   S    
N4    C46   A    
O5    V1    S    
C61   O24   A    
O8    C3    A    
V4    O28   S    
C34   O16   S    
O19   C62   A    
N4    C52   S    
C19   N2    A    
C53   C58   A    
C7    C11   A    
C42   C46   A    
C11   C18   A    
C28   H6    S    
O3    V1    S    
V1    O10   S    
C38   C39   A    
O22   V3    S    
C55   C56   A    
C21   C26   A    
O7    V2    S    
C35   C36   A    
C47   C52   A    
V3    O28   S    
C10   C11   A    
O4    V1    S    
C45   N4    A    
N1    C8    A    
C60   H15   S    
C22   C23   A    
C14   C15   A    
O21   C64   A    
N2    C26   S    
C9    C10   A    
O21   V3    S    
C50   Br2   S    
C18   H23   S    
N1    C32   S    
O9    C4    A    
C6    H18   S    
C23   C64   S    
C60   C61   S    
C5    Br1   S    
