data_mof_unit_64544.cif
_audit_creation_date              2013-03-05T16:02:05-0500
_audit_creation_method            fapswitch 2.2
_symmetry_space_group_name_H-M    P1
_symmetry_Int_Tables_number       1
_space_group_crystal_system       triclinic
_cell_length_a                    25.941368
_cell_length_b                    25.982088
_cell_length_c                    22.213374
_cell_angle_alpha                 90.000503
_cell_angle_beta                  54.247973
_cell_angle_gamma                 89.995529
_cell_volume                      12150.6218454

loop_
_atom_site_label
_atom_site_type_symbol
_atom_site_description
_atom_site_fract_x
_atom_site_fract_y
_atom_site_fract_z
_atom_type_partial_charge
Zn1   Zn    Zn3+2 0.574170 0.293410 0.438410 1.067546
Zn2   Zn    Zn3+2 0.425830 0.706590 0.561590 1.067706
Zn3   Zn    Zn3+2 0.425830 0.293410 0.561590 1.068651
Zn4   Zn    Zn3+2 0.574170 0.706590 0.438410 1.068498
Zn5   Zn    Zn3+2 0.074170 0.793410 0.438410 1.067775
Zn6   Zn    Zn3+2 0.925830 0.206590 0.561590 1.067575
Zn7   Zn    Zn3+2 0.925830 0.793410 0.561590 1.068421
Zn8   Zn    Zn3+2 0.074170 0.206590 0.438410 1.068632
Zn9   Zn    Zn3+2 0.512590 0.206650 0.561580 1.013738
Zn10  Zn    Zn3+2 0.487410 0.793350 0.438420 1.013675
Zn11  Zn    Zn3+2 0.487410 0.206650 0.438420 1.012785
Zn12  Zn    Zn3+2 0.512590 0.793350 0.561580 1.013000
Zn13  Zn    Zn3+2 0.012590 0.706650 0.561580 1.013659
Zn14  Zn    Zn3+2 0.987410 0.293350 0.438420 1.013719
Zn15  Zn    Zn3+2 0.987410 0.706650 0.438420 1.013060
Zn16  Zn    Zn3+2 0.012590 0.293350 0.561580 1.012792
O1    O     O_3   0.500000 0.250030 0.500000 -0.520555
O2    O     O_3   0.500000 0.749970 0.500000 -0.520556
O3    O     O_3   0.000000 0.750030 0.500000 -0.520541
O4    O     O_3   0.000000 0.249970 0.500000 -0.520554
O5    O     O_R   0.387450 0.280380 0.664420 -0.614983
O6    O     O_R   0.612550 0.719620 0.335580 -0.615093
O7    O     O_R   0.612550 0.280380 0.335580 -0.615478
O8    O     O_R   0.387450 0.719620 0.664420 -0.615448
O9    O     O_R   0.887450 0.780380 0.664420 -0.615159
O10   O     O_R   0.112550 0.219620 0.335580 -0.614996
O11   O     O_R   0.112550 0.780380 0.335580 -0.615449
O12   O     O_R   0.887450 0.219620 0.664420 -0.615474
O13   O     O_R   0.594260 0.219670 0.543090 -0.640104
O14   O     O_R   0.405740 0.780330 0.456910 -0.640160
O15   O     O_R   0.405740 0.219670 0.456910 -0.640915
O16   O     O_R   0.594260 0.780330 0.543090 -0.640672
O17   O     O_R   0.094260 0.719670 0.543090 -0.640173
O18   O     O_R   0.905740 0.280330 0.456910 -0.640118
O19   O     O_R   0.905740 0.719670 0.456910 -0.640669
O20   O     O_R   0.094260 0.280330 0.543090 -0.640919
O21   O     O_R   0.508800 0.134220 0.543090 -0.643686
O22   O     O_R   0.491200 0.865780 0.456910 -0.643679
O23   O     O_R   0.491200 0.134220 0.456910 -0.643583
O24   O     O_R   0.508800 0.865780 0.543090 -0.643618
O25   O     O_R   0.008800 0.634220 0.543090 -0.643680
O26   O     O_R   0.991200 0.365780 0.456910 -0.643686
O27   O     O_R   0.991200 0.634220 0.456910 -0.643635
O28   O     O_R   0.008800 0.365780 0.543090 -0.643586
O29   O     O_R   0.448100 0.365830 0.543110 -0.623086
O30   O     O_R   0.551900 0.634170 0.456890 -0.623134
O31   O     O_R   0.551900 0.365830 0.456890 -0.623401
O32   O     O_R   0.448100 0.634170 0.543110 -0.623411
O33   O     O_R   0.948100 0.865830 0.543110 -0.623132
O34   O     O_R   0.051900 0.134170 0.456890 -0.623086
O35   O     O_R   0.051900 0.865830 0.456890 -0.623385
O36   O     O_R   0.948100 0.134170 0.543110 -0.623383
O37   O     O_R   0.637370 0.280400 0.456880 -0.597903
O38   O     O_R   0.362630 0.719600 0.543120 -0.597825
O39   O     O_R   0.362630 0.280400 0.543120 -0.597127
O40   O     O_R   0.637370 0.719600 0.456880 -0.597372
O41   O     O_R   0.137370 0.780400 0.456880 -0.597778
O42   O     O_R   0.862630 0.219600 0.543120 -0.597859
O43   O     O_R   0.862630 0.780400 0.543120 -0.597428
O44   O     O_R   0.137370 0.219600 0.456880 -0.597136
O45   O     O_R   0.448170 0.219660 0.664410 -0.626666
O46   O     O_R   0.551830 0.780340 0.335590 -0.626648
O47   O     O_R   0.551830 0.219660 0.335590 -0.626739
O48   O     O_R   0.448170 0.780340 0.664410 -0.626722
O49   O     O_R   0.948170 0.719660 0.664410 -0.626643
O50   O     O_R   0.051830 0.280340 0.335590 -0.626669
O51   O     O_R   0.051830 0.719660 0.335590 -0.626703
O52   O     O_R   0.948170 0.280340 0.664410 -0.626737
C1    C     C_R   0.400331 0.250028 0.699365 0.817864
C2    C     C_R   0.599669 0.749972 0.300635 0.817830
C3    C     C_R   0.599666 0.250026 0.300636 0.817326
C4    C     C_R   0.400334 0.749974 0.699363 0.817443
C5    C     C_R   0.900331 0.750028 0.699365 0.817817
C6    C     C_R   0.099669 0.249972 0.300635 0.817857
C7    C     C_R   0.099666 0.750026 0.300637 0.817481
C8    C     C_R   0.900334 0.249974 0.699363 0.817330
C9    C     C_R   0.639609 0.250801 0.501070 0.880031
C10   C     C_R   0.360392 0.749196 0.498930 0.879875
C11   C     C_R   0.360404 0.250833 0.498900 0.877784
C12   C     C_R   0.639603 0.749178 0.501084 0.878305
C13   C     C_R   0.139607 0.750808 0.501077 0.879888
C14   C     C_R   0.860392 0.249197 0.498927 0.879995
C15   C     C_R   0.860402 0.750829 0.498905 0.878610
C16   C     C_R   0.139594 0.249165 0.501102 0.877846
C17   C     C_R   0.500000 0.109786 0.500000 0.798538
C18   C     C_R   0.500000 0.890214 0.500000 0.798500
C19   C     C_R   1.000000 0.609785 0.500000 0.798476
C20   C     C_R   1.000000 0.390214 0.500000 0.798531
C21   C     C_R   0.499998 0.390255 0.500003 0.839740
C22   C     C_R   0.500002 0.609745 0.499998 0.839912
C23   C     C_R   0.999998 0.890255 0.500002 0.840029
C24   C     C_R   0.000002 0.109744 0.499997 0.839758
C25   C     C_R   0.557324 0.473299 0.454893 -0.122945
C26   C     C_R   0.442676 0.526701 0.545107 -0.123088
C27   C     C_R   0.442673 0.473312 0.545110 -0.122997
C28   C     C_R   0.557326 0.526688 0.454890 -0.122899
C29   C     C_R   0.057325 0.973299 0.454896 -0.123075
C30   C     C_R   0.942675 0.026701 0.545103 -0.122921
C31   C     C_R   0.942673 0.973312 0.545105 -0.122892
C32   C     C_R   0.057327 0.026688 0.454894 -0.122992
H1    H     H_    0.602158 0.453219 0.419711 0.198593
H2    H     H_    0.397842 0.546781 0.580289 0.198596
H3    H     H_    0.397840 0.453242 0.580292 0.199044
H4    H     H_    0.602160 0.546758 0.419708 0.198936
H5    H     H_    0.102160 0.953219 0.419718 0.198596
H6    H     H_    0.897841 0.046781 0.580281 0.198597
H7    H     H_    0.897839 0.953242 0.580284 0.198879
H8    H     H_    0.102161 0.046758 0.419716 0.199036
C33   C     C_R   0.500002 0.553670 0.499997 -0.032512
C34   C     C_R   0.499997 0.446330 0.500003 -0.032534
C35   C     C_R   0.000003 0.053670 0.499997 -0.032539
C36   C     C_R   0.999998 0.946330 0.500002 -0.032516
C37   C     C_3   0.252055 0.797793 0.974854 0.071373
C38   C     C_3   0.748869 0.202419 0.025144 0.071285
C39   C     C_3   0.748390 0.797692 0.025156 0.071322
C40   C     C_3   0.252156 0.202187 0.974844 0.071396
C41   C     C_3   0.751130 0.297581 0.974856 0.071288
C42   C     C_3   0.247945 0.702207 0.025146 0.071383
C43   C     C_3   0.247844 0.297813 0.025156 0.071395
C44   C     C_3   0.751609 0.702309 0.974844 0.071321
C45   C     C_3   0.690500 0.264176 0.025174 0.073193
C46   C     C_3   0.309216 0.734922 0.974829 0.073137
C47   C     C_3   0.309184 0.265164 0.974829 0.073162
C48   C     C_3   0.690645 0.735369 0.025171 0.073182
C49   C     C_3   0.190784 0.765078 0.025171 0.073138
C50   C     C_3   0.809499 0.235825 0.974826 0.073192
C51   C     C_3   0.809355 0.764631 0.974829 0.073185
C52   C     C_3   0.190817 0.234835 0.025171 0.073163
C53   C     C_1   0.639283 0.250040 0.221449 -0.062596
C54   C     C_1   0.360718 0.749960 0.778551 -0.062600
C55   C     C_1   0.360711 0.250044 0.778552 -0.062525
C56   C     C_1   0.639289 0.749956 0.221447 -0.062524
C57   C     C_1   0.139283 0.750040 0.221449 -0.062595
C58   C     C_1   0.860717 0.249961 0.778551 -0.062596
C59   C     C_1   0.860711 0.750044 0.778553 -0.062550
C60   C     C_1   0.139289 0.249956 0.221447 -0.062530
C61   C     C_3   0.773001 0.282889 0.023821 0.219697
C62   C     C_3   0.226369 0.717790 0.976178 0.219692
C63   C     C_3   0.226298 0.282144 0.976188 0.219608
C64   C     C_3   0.773332 0.717452 0.023812 0.219576
C65   C     C_3   0.273632 0.782209 0.023821 0.219703
C66   C     C_3   0.726998 0.217111 0.976179 0.219700
C67   C     C_3   0.726667 0.782548 0.976187 0.219589
C68   C     C_3   0.273702 0.217856 0.023812 0.219610
C69   C     C_3   0.713168 0.250096 0.073847 -0.151989
C70   C     C_3   0.286832 0.749904 0.926153 -0.151966
C71   C     C_3   0.286828 0.250094 0.926153 -0.151989
C72   C     C_3   0.713171 0.749904 0.073848 -0.152012
C73   C     C_3   0.213169 0.750095 0.073847 -0.151972
C74   C     C_3   0.786831 0.249904 0.926153 -0.151991
C75   C     C_3   0.786829 0.750096 0.926152 -0.152011
C76   C     C_3   0.213172 0.249906 0.073847 -0.151988
C77   C     C_1   0.672647 0.250081 0.154827 0.148736
C78   C     C_1   0.327353 0.749920 0.845173 0.148756
C79   C     C_1   0.327346 0.250080 0.845174 0.148809
C80   C     C_1   0.672652 0.749919 0.154826 0.148784
C81   C     C_1   0.172647 0.750080 0.154827 0.148763
C82   C     C_1   0.827352 0.249920 0.845173 0.148737
C83   C     C_1   0.827348 0.750081 0.845174 0.148775
C84   C     C_1   0.172654 0.249920 0.154826 0.148808
C85   C     C_R   0.285362 0.205240 0.484928 -0.262476
C86   C     C_R   0.715005 0.794890 0.514322 -0.262593
C87   C     C_R   0.715831 0.204889 0.512665 -0.263124
C88   C     C_R   0.284237 0.795099 0.487203 -0.263064
C89   C     C_R   0.785036 0.705144 0.485584 -0.262647
C90   C     C_R   0.214627 0.294750 0.515095 -0.262480
C91   C     C_R   0.215750 0.704912 0.512830 -0.263053
C92   C     C_R   0.784175 0.295106 0.487321 -0.263103
H9    H     H_    0.311736 0.170188 0.475601 0.208265
H10   H     H_    0.688895 0.830006 0.523075 0.208077
H11   H     H_    0.690348 0.169646 0.520098 0.207355
H12   H     H_    0.309773 0.830337 0.479658 0.207405
H13   H     H_    0.811148 0.670020 0.476803 0.207884
H14   H     H_    0.188253 0.329809 0.524427 0.208220
H15   H     H_    0.190217 0.669677 0.520371 0.207378
H16   H     H_    0.809655 0.330350 0.479896 0.207351
C93   C     C_R   0.230066 0.202758 0.488370 0.329108
C94   C     C_R   0.770331 0.797362 0.510841 0.329089
C95   C     C_R   0.771178 0.202463 0.509175 0.329353
C96   C     C_R   0.228891 0.797532 0.490693 0.329365
C97   C     C_R   0.729742 0.702688 0.489010 0.329244
C98   C     C_R   0.269918 0.297231 0.511663 0.329131
C99   C     C_R   0.271098 0.702482 0.509333 0.329435
C100  C     C_R   0.728822 0.297533 0.490824 0.329393
C101  C     C_R   0.194970 0.248301 0.502564 -0.175574
C102  C     C_R   0.805039 0.751697 0.497410 -0.175280
C103  C     C_R   0.805034 0.248353 0.497426 -0.174764
C104  C     C_R   0.194964 0.751657 0.502583 -0.174763
C105  C     C_R   0.694990 0.748332 0.502529 -0.175379
C106  C     C_R   0.305022 0.251690 0.497452 -0.175615
C107  C     C_R   0.305025 0.748352 0.497441 -0.174745
C108  C     C_R   0.694971 0.251642 0.502562 -0.174747
C109  C     C_R   0.490147 0.026699 0.452874 -0.152801
C110  C     C_R   0.509856 0.973301 0.547123 -0.152778
C111  C     C_R   0.509856 0.026698 0.547124 -0.152763
C112  C     C_R   0.490146 0.973302 0.452873 -0.152764
C113  C     C_R   0.990148 0.526699 0.452874 -0.152814
C114  C     C_R   0.009850 0.473301 0.547128 -0.152813
C115  C     C_R   0.009851 0.526698 0.547129 -0.152773
C116  C     C_R   0.990147 0.473302 0.452873 -0.152778
H17   H     H_    0.482433 0.046768 0.416028 0.183466
H18   H     H_    0.517570 0.953232 0.583969 0.183461
H19   H     H_    0.517571 0.046765 0.583971 0.183470
H20   H     H_    0.482432 0.953235 0.416027 0.183486
H21   H     H_    0.982436 0.546767 0.416026 0.183454
H22   H     H_    0.017562 0.453232 0.583976 0.183463
H23   H     H_    0.017564 0.546765 0.583977 0.183483
H24   H     H_    0.982435 0.453235 0.416024 0.183467
C117  C     C_R   0.500001 0.946313 0.499999 -0.013225
C118  C     C_R   0.500001 0.053687 0.499999 -0.013237
C119  C     C_R   0.999999 0.446313 0.500000 -0.013229
C120  C     C_R   0.999999 0.553687 0.500001 -0.013214
I1    I     I_    0.595743 0.285238 0.065327 -0.106476
I2    I     I_    0.403550 0.712421 0.934682 -0.107289
I3    I     I_    0.403470 0.287803 0.934678 -0.107153
I4    I     I_    0.596103 0.713578 0.065322 -0.106436
I5    I     I_    0.096451 0.787579 0.065317 -0.107177
I6    I     I_    0.904256 0.214763 0.934673 -0.106457
I7    I     I_    0.903897 0.786422 0.934678 -0.106414
I8    I     I_    0.096530 0.212197 0.065321 -0.107153
I9    I     I_    0.256863 0.873759 0.934744 -0.120929
I10   I     I_    0.745530 0.126761 0.065249 -0.121277
I11   I     I_    0.744293 0.873511 0.065278 -0.120814
I12   I     I_    0.257123 0.126190 0.934724 -0.120833
I13   I     I_    0.754469 0.373240 0.934751 -0.121279
I14   I     I_    0.243138 0.626240 0.065255 -0.120926
I15   I     I_    0.242877 0.373810 0.065276 -0.120838
I16   I     I_    0.755706 0.626489 0.934722 -0.120834
N1    N     N_R   0.199350 0.681939 0.951094 0.254177
O53   O     O_R   0.147621 0.656982 0.999452 -0.284954
O54   O     O_R   0.226493 0.674629 0.880697 -0.329856
N2    N     N_R   0.799318 0.319496 0.048904 0.254195
O55   O     O_R   0.850557 0.344982 0.000547 -0.284918
O56   O     O_R   0.772034 0.326960 0.119302 -0.329845
N3    N     N_R   0.800018 0.681224 0.048886 0.254223
O57   O     O_R   0.851512 0.656002 0.000524 -0.284866
O58   O     O_R   0.772809 0.673842 0.119283 -0.329425
N4    N     N_R   0.199201 0.317920 0.951115 0.254186
O59   O     O_R   0.147418 0.342827 0.999478 -0.284985
O60   O     O_R   0.226328 0.325215 0.880718 -0.329389
N5    N     N_R   0.700681 0.180504 0.951095 0.254194
O61   O     O_R   0.649442 0.155019 0.999453 -0.284927
O62   O     O_R   0.727965 0.173041 0.880698 -0.329848
N6    N     N_R   0.300650 0.818061 0.048905 0.254178
O63   O     O_R   0.352380 0.843018 0.000548 -0.284975
O64   O     O_R   0.273507 0.825371 0.119303 -0.329861
N7    N     N_R   0.300799 0.182079 0.048885 0.254185
O65   O     O_R   0.352582 0.157173 0.000522 -0.284992
O66   O     O_R   0.273672 0.174785 0.119282 -0.329406
N8    N     N_R   0.699982 0.818776 0.951114 0.254215
O67   O     O_R   0.648488 0.843998 0.999476 -0.284889
O68   O     O_R   0.727190 0.826158 0.880717 -0.329511
N9    N     N_R   0.208869 0.153572 0.481011 0.226477
O69   O     O_R   0.250104 0.119451 0.435139 -0.331840
O70   O     O_R   0.149846 0.139787 0.527943 -0.375758
N10   N     N_R   0.791980 0.846622 0.517306 0.226418
O71   O     O_R   0.751043 0.881353 0.561912 -0.332359
O72   O     O_R   0.851266 0.859782 0.470613 -0.376223
N11   N     N_R   0.793725 0.153099 0.513902 0.226088
O73   O     O_R   0.753417 0.117341 0.556351 -0.333203
O74   O     O_R   0.853447 0.141051 0.467588 -0.377328
N12   N     N_R   0.206421 0.846891 0.485813 0.226129
O75   O     O_R   0.246780 0.882574 0.443228 -0.333224
O76   O     O_R   0.146728 0.859019 0.532131 -0.377350
N13   N     N_R   0.708199 0.653458 0.482302 0.226362
O77   O     O_R   0.749200 0.618977 0.437085 -0.332045
O78   O     O_R   0.649020 0.640080 0.529197 -0.376162
N14   N     N_R   0.291098 0.346410 0.519062 0.226446
O79   O     O_R   0.249851 0.380484 0.565059 -0.331770
O80   O     O_R   0.350098 0.360241 0.472084 -0.375740
N15   N     N_R   0.293581 0.653125 0.514188 0.226114
O81   O     O_R   0.253234 0.617465 0.556853 -0.333201
O82   O     O_R   0.353258 0.640980 0.467782 -0.377349
N16   N     N_R   0.706248 0.346898 0.486155 0.226066
O83   O     O_R   0.746537 0.382675 0.443734 -0.333259
O84   O     O_R   0.646523 0.358929 0.532509 -0.377366

loop_
_geom_bond_atom_site_label_1
_geom_bond_atom_site_label_2
_geom_bond_distance
_ccdc_geom_bond_type
C23   C36   1.456948 S    
C76   C84   1.459832 S    
C50   C61   1.540096 S    
C40   I12   2.139026 S    
C67   N8    1.458055 S    
C47   I3    2.138925 S    
C111  H19   1.083158 S    
C114  H22   1.083152 S    
C90   C101  1.399991 A    
Zn8   O10   1.914675 S    
C12   C105  1.455956 S    
Zn6   O42   1.938164 S    
C113  H21   1.083151 S    
C90   C98   1.392653 A    
C18   C117  1.457564 S    
O41   C13   1.274732 A    
C17   C118  1.457567 S    
C64   C72   1.534531 S    
Zn13  O25   1.940886 S    
C109  C118  1.401988 A    
O51   C7    1.280426 A    
C109  H17   1.083151 S    
O18   C14   1.275328 A    
Zn13  O49   1.914108 S    
C42   I14   2.139009 S    
C114  C115  1.387355 A    
Zn15  O3    1.941721 S    
C48   C72   1.546481 S    
C26   C33   1.401949 A    
C63   C71   1.534525 S    
Zn8   O4    1.941066 S    
O22   C18   1.275414 A    
Zn9   O45   1.914108 S    
C38   C66   1.540059 S    
Zn10  O2    1.941705 S    
C39   I11   2.139061 S    
Zn2   O2    1.941256 S    
C52   C63   1.540089 S    
O43   C15   1.274620 A    
Zn5   O3    1.941254 S    
N16   O83   1.301401 A    
Zn11  O47   1.914159 S    
O42   C14   1.274762 A    
C42   C46   1.556402 S    
N9    O69   1.301780 A    
Zn12  O48   1.914161 S    
C30   C31   1.387171 A    
C95   C103  1.411904 A    
C91   C104  1.400344 A    
N8    O68   1.300200 A    
N15   O81   1.301213 A    
O50   C6    1.280381 A    
C43   I15   2.139025 S    
C52   I8    2.138927 S    
Zn4   O40   1.938206 S    
C93   C101  1.411695 A    
N6    O63   1.300303 A    
O46   C2    1.280381 A    
N15   O82   1.301506 A    
N5    O61   1.300306 A    
C19   C120  1.457564 S    
Zn7   O43   1.938208 S    
C86   H10   1.084008 S    
Zn1   O37   1.938163 S    
C41   C45   1.556390 S    
C96   C104  1.411941 A    
C51   C75   1.546483 S    
C40   C68   1.540075 S    
C97   C105  1.411679 A    
C52   C76   1.546447 S    
Zn6   O12   1.914638 S    
C5    C59   1.427545 S    
C37   C65   1.540077 S    
C92   C100  1.393332 A    
C20   C119  1.457567 S    
C6    C60   1.427542 S    
C47   C68   1.540089 S    
C64   N3    1.458057 S    
N3    O57   1.300327 A    
C100  C108  1.411886 A    
C48   C67   1.540078 S    
C41   C74   1.546488 S    
C44   C64   1.540096 S    
C112  H20   1.083160 S    
C88   C107  1.400329 A    
C71   C79   1.459832 S    
N13   O77   1.301627 A    
C44   I16   2.139061 S    
C13   C104  1.456019 S    
Zn1   O31   1.940480 S    
C88   C96   1.393304 A    
Zn16  O4    1.941717 S    
C25   C34   1.401948 A    
Zn14  O26   1.940886 S    
C69   C77   1.459845 S    
C43   C63   1.540077 S    
C67   C75   1.534531 S    
C110  C111  1.387355 A    
Zn15  O51   1.914159 S    
C39   C51   1.556438 S    
Zn11  O15   1.937722 S    
C116  H24   1.083159 S    
C92   C103  1.400224 A    
O32   C22   1.275072 A    
Zn12  O16   1.937722 S    
C63   N4    1.458009 S    
O35   C23   1.275070 A    
N3    O58   1.300201 A    
C16   C101  1.455909 S    
Zn10  O46   1.914106 S    
Zn3   O39   1.938208 S    
O33   C23   1.275102 A    
C61   N2    1.458011 S    
O11   C7    1.280388 A    
C45   C66   1.540095 S    
Zn15  O19   1.937722 S    
Zn16  O28   1.940878 S    
C27   H3    1.083188 S    
C98   C106  1.411708 A    
O9    C5    1.280309 A    
C3    C53   1.427545 S    
N4    O60   1.300212 A    
C85   H9    1.083837 S    
N7    O66   1.300209 A    
C100  N16   1.438623 S    
O25   C19   1.275414 A    
C98   N14   1.437795 S    
O19   C15   1.275395 A    
C32   H8    1.083189 S    
C116  C119  1.401990 A    
C99   N15   1.438653 S    
Zn13  O3    1.941702 S    
Zn12  O2    1.941717 S    
C51   I7    2.138957 S    
C65   N6    1.458040 S    
Zn14  O4    1.941705 S    
C94   N10   1.438219 S    
C59   C83   1.201003 T    
Zn7   O33   1.940574 S    
C111  C118  1.401991 A    
C54   C78   1.201018 T    
C115  H23   1.083159 S    
Zn2   O38   1.938164 S    
O49   C5    1.280381 A    
O24   C18   1.275411 A    
N9    O70   1.301652 A    
C29   C36   1.401949 A    
C95   N11   1.438662 S    
O17   C13   1.275377 A    
C115  C120  1.401994 A    
C46   C70   1.546459 S    
N12   O76   1.301498 A    
C89   C97   1.392769 A    
Zn2   O32   1.940479 S    
N8    O67   1.300327 A    
C39   C72   1.546500 S    
Zn3   O29   1.940574 S    
C46   I2    2.138961 S    
N10   O72   1.301576 A    
N5    O62   1.300205 A    
C75   C83   1.459821 S    
C37   C70   1.546498 S    
Zn12  O24   1.940878 S    
C113  C116  1.387355 A    
O37   C9    1.274752 A    
Zn13  O17   1.937781 S    
N1    O53   1.300303 A    
C94   C102  1.411852 A    
O7    C3    1.280389 A    
O16   C12   1.275394 A    
O39   C11   1.274597 A    
Zn10  O14   1.937781 S    
C11   C106  1.455879 S    
C70   C78   1.459841 S    
O44   C16   1.274584 A    
C87   C95   1.393334 A    
O40   C12   1.274593 A    
C1    C55   1.427540 S    
C109  C112  1.387355 A    
C41   I13   2.138982 S    
N10   O71   1.301543 A    
Zn1   O7    1.914640 S    
C2    C56   1.427545 S    
Zn14  O50   1.914106 S    
C15   C102  1.456015 S    
C38   I10   2.138982 S    
O15   C11   1.275426 A    
C114  C119  1.401988 A    
N13   O78   1.301588 A    
C37   I9    2.139012 S    
C87   C108  1.400213 A    
C49   C73   1.546459 S    
C97   N13   1.438059 S    
C112  C117  1.401992 A    
Zn9   O1    1.941702 S    
C58   C82   1.201020 T    
N14   O80   1.301694 A    
O31   C21   1.275070 A    
C25   C28   1.387171 A    
Zn7   O3    1.941067 S    
C28   H4    1.083189 S    
Zn2   O8    1.914638 S    
C46   C65   1.540097 S    
C42   C73   1.546500 S    
C45   C69   1.546439 S    
Zn3   O5    1.914673 S    
O26   C20   1.275414 A    
C51   C64   1.540077 S    
O23   C17   1.275411 A    
C25   H1    1.083227 S    
N11   O73   1.301414 A    
O12   C8    1.280389 A    
Zn8   O34   1.940574 S    
C8    C58   1.427547 S    
C29   C32   1.387173 A    
C87   H11   1.084113 S    
O8    C4    1.280388 A    
C91   H15   1.084128 S    
Zn9   O21   1.940886 S    
C48   I4    2.138957 S    
O29   C21   1.275101 A    
C61   C69   1.534493 S    
C43   C76   1.546480 S    
C92   H16   1.084125 S    
C88   H12   1.084210 S    
Zn4   O6    1.914675 S    
N4    O59   1.300336 A    
O34   C24   1.275099 A    
C44   C75   1.546501 S    
C91   C99   1.393280 A    
C30   C35   1.401949 A    
C74   C82   1.459845 S    
N2    O56   1.300207 A    
C9    C108  1.455925 S    
C29   H5    1.083229 S    
Zn11  O1    1.941721 S    
C62   N1    1.458040 S    
C41   C61   1.540055 S    
C10   C107  1.456021 S    
O20   C16   1.275423 A    
C38   C69   1.546488 S    
C47   C71   1.546449 S    
C85   C106  1.399979 A    
N11   O74   1.301547 A    
C27   C34   1.401940 A    
C99   C107  1.411824 A    
Zn14  O18   1.937781 S    
C40   C71   1.546479 S    
N7    O65   1.300336 A    
C7    C57   1.427547 S    
C24   C35   1.456946 S    
C4    C54   1.427547 S    
N12   O75   1.301290 A    
O30   C22   1.275100 A    
C43   C47   1.556408 S    
C49   C62   1.540097 S    
O52   C8    1.280426 A    
C66   N5    1.458011 S    
C31   H7    1.083190 S    
C28   C33   1.401940 A    
C65   C73   1.534498 S    
C90   H14   1.083956 S    
Zn1   O1    1.941254 S    
C89   C102  1.400224 A    
Zn7   O9    1.914673 S    
Zn5   O41   1.938163 S    
C14   C103  1.455936 S    
Zn10  O22   1.940886 S    
Zn16  O52   1.914161 S    
O27   C19   1.275410 A    
C66   C74   1.534494 S    
C55   C79   1.201005 T    
Zn9   O13   1.937781 S    
O21   C17   1.275414 A    
Zn4   O2    1.941066 S    
N1    O54   1.300202 A    
C113  C120  1.401988 A    
O28   C20   1.275411 A    
Zn16  O20   1.937722 S    
C110  C117  1.401992 A    
C53   C77   1.201020 T    
C93   N9    1.437843 S    
C50   C74   1.546437 S    
Zn5   O11   1.914640 S    
Zn4   O30   1.940574 S    
C30   H6    1.083231 S    
Zn6   O4    1.941256 S    
C62   C70   1.534498 S    
C38   C50   1.556387 S    
C31   C36   1.401941 A    
C21   C34   1.456946 S    
C37   C49   1.556401 S    
N2    O55   1.300305 A    
O10   C6    1.280309 A    
N6    O64   1.300203 A    
C96   N12   1.438711 S    
Zn3   O1    1.941067 S    
C57   C81   1.201020 T    
O45   C1    1.280381 A    
O48   C4    1.280426 A    
C39   C67   1.540098 S    
C26   C27   1.387171 A    
C56   C80   1.201003 T    
C85   C93   1.392667 A    
C86   C94   1.392951 A    
C60   C84   1.201005 T    
O36   C24   1.275072 A    
C49   I5    2.138960 S    
Zn15  O27   1.940878 S    
O14   C10   1.275364 A    
C50   I6    2.138948 S    
O13   C9    1.275326 A    
N14   O79   1.301895 A    
C26   H2    1.083230 S    
C32   C35   1.401943 A    
C68   C76   1.534525 S    
Zn11  O23   1.940878 S    
C40   C52   1.556408 S    
C68   N7    1.458012 S    
O5    C1    1.280311 A    
Zn5   O35   1.940480 S    
C72   C80   1.459823 S    
C22   C33   1.456946 S    
Zn6   O36   1.940479 S    
C42   C62   1.540077 S    
C89   H13   1.084086 S    
C73   C81   1.459841 S    
O47   C3    1.280426 A    
O6    C2    1.280309 A    
C86   C105  1.400187 A    
Zn8   O44   1.938206 S    
C44   C48   1.556438 S    
C45   I1    2.138949 S    
O38   C10   1.274698 A    
N16   O84   1.301581 A    
C110  H18   1.083150 S    
