data_mof_unit_62127.cif
_audit_creation_date              2012-12-10T19:04:15-0500
_audit_creation_method            fapswitch 2.2
_symmetry_space_group_name_H-M    P1
_symmetry_Int_Tables_number       1
_space_group_crystal_system       triclinic
_cell_length_a                    30.221486
_cell_length_b                    30.291943
_cell_length_c                    47.070271
_cell_angle_alpha                 90.000026
_cell_angle_beta                  90.000041
_cell_angle_gamma                 89.999989
_cell_volume                      43091.3047894

loop_
_atom_site_label
_atom_site_type_symbol
_atom_type_description
_atom_site_fract_x
_atom_site_fract_y
_atom_site_fract_z
_atom_type_partial_charge
C1    C     C_R   0.086205 0.500000 1.000000 0.868953
C2    C     C_R   0.500000 0.086396 0.000000 0.892372
C3    C     C_R   0.913795 0.500000 0.000000 0.868953
C4    C     C_R   0.500000 0.913604 0.000000 0.892373
C5    C     C_R   0.586205 0.000000 0.500000 0.868970
C6    C     C_R   0.000000 0.586396 0.500000 0.892385
C7    C     C_R   0.413795 0.000000 0.500000 0.868971
C8    C     C_R   0.000000 0.413604 0.500000 0.892385
C9    C     C_R   0.000000 0.500000 0.145779 0.185829
C10   C     C_R   0.500000 1.000000 0.145535 0.187748
C11   C     C_R   1.000000 0.500000 0.854221 0.185829
C12   C     C_R   0.500000 1.000000 0.854465 0.187748
C13   C     C_R   0.500000 0.000000 0.645779 0.185823
C14   C     C_R   0.000000 0.500000 0.645535 0.187757
C15   C     C_R   0.500000 1.000000 0.354221 0.185822
C16   C     C_R   1.000000 0.500000 0.354465 0.187757
C17   C     C_R   0.500000 0.413747 1.000000 0.898788
C18   C     C_R   0.586246 0.500000 0.000000 0.898022
C19   C     C_R   0.500000 0.586253 0.000000 0.898788
C20   C     C_R   0.413754 0.500000 1.000000 0.898024
C21   C     C_R   0.000000 0.913747 0.500000 0.898796
C22   C     C_R   0.086246 0.000000 0.500000 0.898028
C23   C     C_R   0.000000 0.086253 0.500000 0.898795
C24   C     C_R   0.913754 0.000000 0.500000 0.898029
C25   C     C_R   0.203484 0.472271 0.018600 -0.164485
C26   C     C_R   0.534291 0.204065 0.013305 -0.164599
C27   C     C_R   0.796516 0.527728 0.018600 -0.164485
C28   C     C_R   0.465709 0.795935 0.013305 -0.164599
C29   C     C_R   0.203484 0.527729 0.981400 -0.164485
C30   C     C_R   0.534291 0.795935 0.986695 -0.164599
C31   C     C_R   0.796515 0.472272 0.981400 -0.164485
C32   C     C_R   0.465709 0.204065 0.986695 -0.164599
C33   C     C_R   0.703485 0.972266 0.518596 -0.164487
C34   C     C_R   0.034297 0.704066 0.513298 -0.164598
C35   C     C_R   0.296515 0.027734 0.518596 -0.164487
C36   C     C_R   0.965703 0.295934 0.513299 -0.164597
C37   C     C_R   0.703485 0.027734 0.481404 -0.164487
C38   C     C_R   0.034297 0.295934 0.486701 -0.164597
C39   C     C_R   0.296515 0.972266 0.481404 -0.164487
C40   C     C_R   0.965703 0.704066 0.486701 -0.164599
C41   C     C_R   0.157600 0.472204 0.018981 0.068342
C42   C     C_R   0.534738 0.158323 0.013570 0.067250
C43   C     C_R   0.842400 0.527795 0.018982 0.068341
C44   C     C_R   0.465262 0.841677 0.013570 0.067250
C45   C     C_R   0.157600 0.527796 0.981018 0.068342
C46   C     C_R   0.534738 0.841677 0.986430 0.067247
C47   C     C_R   0.842400 0.472205 0.981018 0.068342
C48   C     C_R   0.465262 0.158323 0.986430 0.067248
C49   C     C_R   0.657600 0.972198 0.518978 0.068341
C50   C     C_R   0.034745 0.658324 0.513564 0.067242
C51   C     C_R   0.342400 0.027802 0.518978 0.068341
C52   C     C_R   0.965256 0.341676 0.513564 0.067243
C53   C     C_R   0.657600 0.027802 0.481022 0.068341
C54   C     C_R   0.034744 0.341676 0.486436 0.067243
C55   C     C_R   0.342400 0.972198 0.481022 0.068341
C56   C     C_R   0.965255 0.658324 0.486436 0.067244
C57   C     C_R   0.134246 0.500000 1.000000 -0.106601
C58   C     C_R   0.500000 0.134689 0.000000 -0.132707
C59   C     C_R   0.865754 0.500000 0.000000 -0.106601
C60   C     C_R   0.500000 0.865311 0.000000 -0.132707
C61   C     C_R   0.634246 0.000000 0.500000 -0.106611
C62   C     C_R   0.000000 0.634689 0.500000 -0.132727
C63   C     C_R   0.365754 0.000000 0.500000 -0.106611
C64   C     C_R   0.000000 0.365311 0.500000 -0.132726
C65   C     C_R   0.226115 0.500000 1.000000 0.011517
C66   C     C_R   0.500000 0.226553 0.000000 0.009535
C67   C     C_R   0.773885 0.500000 0.000000 0.011517
C68   C     C_R   0.500000 0.773447 0.000000 0.009535
C69   C     C_R   0.726116 1.000000 0.500000 0.011519
C70   C     C_R   1.000000 0.726553 0.500000 0.009532
C71   C     C_R   0.273884 0.000000 0.500000 0.011519
C72   C     C_R   0.000000 0.273446 0.500000 0.009530
C73   C     C_R   0.297139 0.475889 0.979016 0.221962
C74   C     C_R   0.517926 0.297236 0.976586 0.220894
C75   C     C_R   0.702861 0.524112 0.979016 0.221962
C76   C     C_R   0.482074 0.702764 0.976586 0.220894
C77   C     C_R   0.297139 0.524111 0.020984 0.221962
C78   C     C_R   0.517926 0.702763 0.023414 0.220894
C79   C     C_R   0.702861 0.475888 0.020983 0.221962
C80   C     C_R   0.482074 0.297236 0.023414 0.220894
C81   C     C_R   0.797139 0.975894 0.479014 0.221960
C82   C     C_R   0.017919 0.797236 0.476584 0.220892
C83   C     C_R   0.202861 0.024106 0.479014 0.221960
C84   C     C_R   0.982080 0.202763 0.476584 0.220892
C85   C     C_R   0.797139 0.024106 0.520986 0.221960
C86   C     C_R   0.017920 0.202763 0.523416 0.220893
C87   C     C_R   0.202861 0.975894 0.520986 0.221961
C88   C     C_R   0.982081 0.797236 0.523416 0.220893
C89   C     C_R   0.343134 0.476715 0.979025 -0.216885
C90   C     C_R   0.517332 0.343107 0.976735 -0.217445
C91   C     C_R   0.656866 0.523286 0.979025 -0.216885
C92   C     C_R   0.482668 0.656893 0.976735 -0.217445
C93   C     C_R   0.343133 0.523285 0.020975 -0.216886
C94   C     C_R   0.517331 0.656893 0.023265 -0.217445
C95   C     C_R   0.656866 0.476714 0.020975 -0.216886
C96   C     C_R   0.482669 0.343107 0.023265 -0.217444
C97   C     C_R   0.843134 0.976719 0.479023 -0.216885
C98   C     C_R   0.017325 0.843107 0.476733 -0.217445
C99   C     C_R   0.156866 0.023280 0.479023 -0.216886
C100  C     C_R   0.982674 0.156893 0.476734 -0.217445
C101  C     C_R   0.843133 0.023281 0.520977 -0.216887
C102  C     C_R   0.017326 0.156893 0.523266 -0.217446
C103  C     C_R   0.156866 0.976720 0.520977 -0.216886
C104  C     C_R   0.982675 0.843107 0.523266 -0.217446
C105  C     C_R   0.365944 0.500000 1.000000 -0.134427
C106  C     C_R   0.500000 0.365946 0.000000 -0.139634
C107  C     C_R   0.634056 0.500000 0.000000 -0.134427
C108  C     C_R   0.500000 0.634054 0.000000 -0.139634
C109  C     C_R   0.865944 0.000000 0.500000 -0.134431
C110  C     C_R   1.000000 0.865946 0.500000 -0.139637
C111  C     C_R   0.134056 0.000000 0.500000 -0.134431
C112  C     C_R   0.000000 0.134054 0.500000 -0.139637
C113  C     C_R   0.274052 0.500000 1.000000 -0.035619
C114  C     C_R   0.500000 0.274287 0.000000 -0.035112
C115  C     C_R   0.725947 0.500000 0.000000 -0.035619
C116  C     C_R   0.500000 0.725713 0.000000 -0.035112
C117  C     C_R   0.774053 1.000000 0.500000 -0.035618
C118  C     C_R   1.000000 0.774288 0.500000 -0.035111
C119  C     C_R   0.225947 0.000000 0.500000 -0.035618
C120  C     C_R   0.000000 0.225712 0.500000 -0.035111
C121  C     C_R   0.000000 0.500000 0.055339 0.986628
C122  C     C_R   0.500000 0.000000 0.055289 1.008223
C123  C     C_R   0.000000 0.500000 0.944661 0.986628
C124  C     C_R   0.500000 1.000000 0.944711 1.008223
C125  C     C_R   0.500000 0.000000 0.555339 0.986668
C126  C     C_R   0.000000 0.500000 0.555289 1.008216
C127  C     C_R   0.500000 1.000000 0.444661 0.986672
C128  C     C_R   1.000000 0.500000 0.444711 1.008217
C129  C     C_R   0.034446 0.480570 0.309721 0.532564
C130  C     C_R   0.533708 0.020674 0.309509 0.533605
C131  C     C_R   0.965554 0.519431 0.309721 0.532566
C132  C     C_R   0.466293 0.979326 0.309509 0.533605
C133  C     C_R   0.034447 0.519430 0.690279 0.532565
C134  C     C_R   0.533709 0.979328 0.690491 0.533606
C135  C     C_R   0.965553 0.480571 0.690278 0.532565
C136  C     C_R   0.466292 0.020672 0.690491 0.533605
C137  C     C_R   0.534435 0.980550 0.809721 0.532566
C138  C     C_R   0.033721 0.520652 0.809508 0.533604
C139  C     C_R   0.465565 0.019450 0.809721 0.532567
C140  C     C_R   0.966279 0.479348 0.809508 0.533605
C141  C     C_R   0.534434 0.019451 0.190279 0.532567
C142  C     C_R   0.033721 0.479347 0.190492 0.533606
C143  C     C_R   0.465566 0.980548 0.190279 0.532567
C144  C     C_R   0.966280 0.520653 0.190492 0.533604
C145  C     C_R   0.965087 0.520247 0.279993 -0.029883
C146  C     C_R   0.465360 0.979287 0.279780 -0.028513
C147  C     C_R   0.034913 0.479753 0.279993 -0.029883
C148  C     C_R   0.534640 0.020712 0.279780 -0.028514
C149  C     C_R   0.965087 0.479754 0.720007 -0.029882
C150  C     C_R   0.465359 0.020711 0.720220 -0.028514
C151  C     C_R   0.034913 0.520246 0.720007 -0.029882
C152  C     C_R   0.534641 0.979289 0.720220 -0.028513
C153  C     C_R   0.465099 0.020267 0.779992 -0.029881
C154  C     C_R   0.965346 0.479310 0.779779 -0.028515
C155  C     C_R   0.534901 0.979733 0.779992 -0.029881
C156  C     C_R   0.034654 0.520690 0.779779 -0.028515
C157  C     C_R   0.465100 0.979731 0.220007 -0.029881
C158  C     C_R   0.965347 0.520691 0.220220 -0.028515
C159  C     C_R   0.534900 0.020269 0.220007 -0.029881
C160  C     C_R   0.034653 0.479310 0.220220 -0.028515
C161  C     C_R   0.000000 0.500000 0.265071 -0.019749
C162  C     C_R   0.500000 1.000000 0.264857 -0.018481
C163  C     C_R   0.000000 0.500000 0.734929 -0.019749
C164  C     C_R   0.500000 0.000000 0.735143 -0.018480
C165  C     C_R   0.500000 0.000000 0.765070 -0.019749
C166  C     C_R   0.000000 0.500000 0.764856 -0.018480
C167  C     C_R   0.500000 1.000000 0.234930 -0.019749
C168  C     C_R   0.000000 0.500000 0.235144 -0.018481
C169  C     C_R   0.930576 0.540602 0.264910 -0.161116
C170  C     C_R   0.430820 0.958983 0.264698 -0.162335
C171  C     C_R   0.069424 0.459399 0.264910 -0.161116
C172  C     C_R   0.569181 0.041016 0.264698 -0.162336
C173  C     C_R   0.930575 0.459400 0.735090 -0.161115
C174  C     C_R   0.430818 0.041013 0.735302 -0.162336
C175  C     C_R   0.069425 0.540600 0.735090 -0.161116
C176  C     C_R   0.569182 0.958987 0.735302 -0.162336
C177  C     C_R   0.430600 0.040642 0.764909 -0.161116
C178  C     C_R   0.930793 0.459029 0.764697 -0.162335
C179  C     C_R   0.569400 0.959358 0.764909 -0.161115
C180  C     C_R   0.069207 0.540971 0.764697 -0.162335
C181  C     C_R   0.430602 0.959354 0.235091 -0.161116
C182  C     C_R   0.930794 0.540973 0.235303 -0.162335
C183  C     C_R   0.569399 0.040645 0.235091 -0.161115
C184  C     C_R   0.069206 0.459028 0.235303 -0.162336
C185  C     C_R   0.033113 0.523438 0.130985 0.186775
C186  C     C_R   0.496398 0.040432 0.130731 0.187666
C187  C     C_R   0.966888 0.476562 0.130985 0.186776
C188  C     C_R   0.503602 0.959567 0.130731 0.187666
C189  C     C_R   0.033112 0.476561 0.869015 0.186776
C190  C     C_R   0.496400 0.959567 0.869269 0.187666
C191  C     C_R   0.966888 0.523439 0.869015 0.186775
C192  C     C_R   0.503600 0.040433 0.869269 0.187666
C193  C     C_R   0.533126 0.023419 0.630985 0.186780
C194  C     C_R   0.996423 0.540435 0.630731 0.187657
C195  C     C_R   0.466874 0.976581 0.630984 0.186780
C196  C     C_R   0.003577 0.459565 0.630731 0.187657
C197  C     C_R   0.533127 0.976582 0.369015 0.186781
C198  C     C_R   0.996422 0.459566 0.369269 0.187658
C199  C     C_R   0.466873 0.023417 0.369015 0.186780
C200  C     C_R   0.003578 0.540435 0.369269 0.187658
C201  C     C_R   0.033756 0.522358 0.101078 0.053595
C202  C     C_R   0.498283 0.040425 0.100796 0.058202
C203  C     C_R   0.966244 0.477642 0.101078 0.053596
C204  C     C_R   0.501717 0.959575 0.100796 0.058203
C205  C     C_R   0.033755 0.477641 0.898922 0.053595
C206  C     C_R   0.498285 0.959574 0.899204 0.058204
C207  C     C_R   0.966245 0.522359 0.898922 0.053595
C208  C     C_R   0.501715 0.040425 0.899204 0.058204
C209  C     C_R   0.533769 0.022339 0.601078 0.053592
C210  C     C_R   0.998308 0.540427 0.600796 0.058214
C211  C     C_R   0.466231 0.977661 0.601078 0.053592
C212  C     C_R   0.001693 0.459574 0.600796 0.058215
C213  C     C_R   0.533770 0.977663 0.398922 0.053591
C214  C     C_R   0.998307 0.459574 0.399204 0.058214
C215  C     C_R   0.466230 0.022337 0.398922 0.053592
C216  C     C_R   0.001693 0.540427 0.399204 0.058214
C217  C     C_R   0.000000 0.500000 0.086364 -0.182708
C218  C     C_R   0.500000 1.000000 0.086203 -0.165183
C219  C     C_R   1.000000 0.500000 0.913636 -0.182709
C220  C     C_R   0.500000 1.000000 0.913797 -0.165182
C221  C     C_R   0.500000 1.000000 0.586363 -0.182682
C222  C     C_R   1.000000 0.500000 0.586203 -0.165168
C223  C     C_R   0.500000 1.000000 0.413637 -0.182680
C224  C     C_R   1.000000 0.500000 0.413797 -0.165169
H1    H     H_    0.903384 0.556420 0.275912 0.189661
H2    H     H_    0.403798 0.942880 0.275701 0.189630
H3    H     H_    0.096616 0.443581 0.275912 0.189661
H4    H     H_    0.596202 0.057120 0.275701 0.189630
H5    H     H_    0.903383 0.443583 0.724088 0.189661
H6    H     H_    0.403795 0.057115 0.724299 0.189631
H7    H     H_    0.096617 0.556418 0.724088 0.189661
H8    H     H_    0.596205 0.942885 0.724299 0.189631
H9    H     H_    0.403417 0.056476 0.775911 0.189660
H10   H     H_    0.903760 0.442944 0.775700 0.189631
H11   H     H_    0.596583 0.943524 0.775911 0.189660
H12   H     H_    0.096240 0.557057 0.775700 0.189631
H13   H     H_    0.403420 0.943519 0.224088 0.189660
H14   H     H_    0.903762 0.557059 0.224299 0.189631
H15   H     H_    0.596580 0.056480 0.224088 0.189660
H16   H     H_    0.096239 0.442941 0.224300 0.189631
H17   H     H_    0.221644 0.451077 0.033042 0.153910
H18   H     H_    0.560650 0.222259 0.023659 0.153908
H19   H     H_    0.778356 0.548922 0.033043 0.153910
H20   H     H_    0.439350 0.777741 0.023659 0.153908
H21   H     H_    0.221644 0.548923 0.966958 0.153910
H22   H     H_    0.560650 0.777741 0.976341 0.153908
H23   H     H_    0.778356 0.451078 0.966957 0.153910
H24   H     H_    0.439350 0.222259 0.976341 0.153909
H25   H     H_    0.721644 0.951067 0.533036 0.153909
H26   H     H_    0.060661 0.722260 0.523647 0.153910
H27   H     H_    0.278356 0.048933 0.533036 0.153909
H28   H     H_    0.939340 0.277740 0.523648 0.153909
H29   H     H_    0.721644 0.048933 0.466964 0.153909
H30   H     H_    0.060660 0.277740 0.476352 0.153909
H31   H     H_    0.278356 0.951067 0.466964 0.153909
H32   H     H_    0.939339 0.722259 0.476352 0.153910
H33   H     H_    0.361104 0.458572 0.962868 0.169034
H34   H     H_    0.530830 0.360901 0.958734 0.173758
H35   H     H_    0.638896 0.541430 0.962869 0.169033
H36   H     H_    0.469170 0.639099 0.958734 0.173758
H37   H     H_    0.361104 0.541428 0.037132 0.169034
H38   H     H_    0.530830 0.639099 0.041266 0.173758
H39   H     H_    0.638896 0.458570 0.037131 0.169033
H40   H     H_    0.469170 0.360901 0.041266 0.173758
H41   H     H_    0.861104 0.958580 0.462864 0.169037
H42   H     H_    0.030818 0.860901 0.458730 0.173762
H43   H     H_    0.138896 0.041420 0.462864 0.169038
H44   H     H_    0.969180 0.139099 0.458731 0.173761
H45   H     H_    0.861104 0.041420 0.537136 0.169038
H46   H     H_    0.030820 0.139099 0.541269 0.173761
H47   H     H_    0.138896 0.958580 0.537136 0.169038
H48   H     H_    0.969181 0.860901 0.541269 0.173762
N1    N     N_R   0.000000 0.500000 0.323942 -0.322657
N2    N     N_R   0.500000 1.000000 0.323715 -0.320938
N3    N     N_R   0.000000 0.500000 0.676058 -0.322657
N4    N     N_R   0.500000 0.000000 0.676285 -0.320938
N5    N     N_R   0.500000 0.000000 0.823942 -0.322657
N6    N     N_R   0.000000 0.500000 0.823715 -0.320940
N7    N     N_R   0.500000 1.000000 0.176058 -0.322657
N8    N     N_R   0.000000 0.500000 0.176285 -0.320939
O1    O     O_R   0.065440 0.536920 0.000020 -0.630246
O2    O     O_R   0.463080 0.065440 0.000020 -0.632148
O3    O     O_R   0.934560 0.463080 0.000020 -0.630245
O4    O     O_R   0.536920 0.934560 0.000020 -0.632148
O5    O     O_R   0.065440 0.463080 0.999980 -0.630245
O6    O     O_R   0.463080 0.934560 0.999980 -0.632149
O7    O     O_R   0.934560 0.536920 0.999980 -0.630245
O8    O     O_R   0.536920 0.065440 0.999980 -0.632149
O9    O     O_R   0.565440 0.036920 0.500020 -0.630253
O10   O     O_R   0.963080 0.565440 0.500020 -0.632153
O11   O     O_R   0.434560 0.963080 0.500020 -0.630252
O12   O     O_R   0.036920 0.434560 0.500020 -0.632153
O13   O     O_R   0.565440 0.963080 0.499980 -0.630253
O14   O     O_R   0.963080 0.434560 0.499980 -0.632152
O15   O     O_R   0.434560 0.036920 0.499980 -0.630253
O16   O     O_R   0.036920 0.565440 0.499980 -0.632153
O17   O     O_R   0.999940 0.536930 0.041940 -0.614076
O18   O     O_R   0.463070 0.999940 0.041940 -0.626473
O19   O     O_R   0.000060 0.463070 0.041940 -0.614076
O20   O     O_R   0.536930 0.000060 0.041940 -0.626474
O21   O     O_R   0.999940 0.463070 0.958060 -0.614074
O22   O     O_R   0.463070 0.000060 0.958060 -0.626473
O23   O     O_R   0.000060 0.536930 0.958060 -0.614075
O24   O     O_R   0.536930 0.999940 0.958060 -0.626473
O25   O     O_R   0.499940 0.036930 0.541940 -0.614092
O26   O     O_R   0.963070 0.499940 0.541940 -0.626469
O27   O     O_R   0.500060 0.963070 0.541940 -0.614092
O28   O     O_R   0.036930 0.500060 0.541940 -0.626470
O29   O     O_R   0.499940 0.963070 0.458060 -0.614093
O30   O     O_R   0.963070 0.500060 0.458060 -0.626470
O31   O     O_R   0.500060 0.036930 0.458060 -0.614093
O32   O     O_R   0.036930 0.499940 0.458060 -0.626470
O33   O     O_R   0.499970 0.434520 0.023700 -0.624870
O34   O     O_R   0.565480 0.499970 0.023700 -0.622371
O35   O     O_R   0.500030 0.565480 0.023700 -0.624870
O36   O     O_R   0.434520 0.500030 0.023700 -0.622371
O37   O     O_R   0.499970 0.565480 0.976300 -0.624869
O38   O     O_R   0.565480 0.500030 0.976300 -0.622370
O39   O     O_R   0.500030 0.434520 0.976300 -0.624869
O40   O     O_R   0.434520 0.499970 0.976300 -0.622370
O41   O     O_R   0.999970 0.934520 0.523700 -0.624873
O42   O     O_R   0.065480 0.999970 0.523700 -0.622374
O43   O     O_R   0.000030 0.065480 0.523700 -0.624873
O44   O     O_R   0.934520 0.000030 0.523700 -0.622373
O45   O     O_R   0.999970 0.065480 0.476300 -0.624872
O46   O     O_R   0.065480 0.000030 0.476300 -0.622373
O47   O     O_R   0.000030 0.934520 0.476300 -0.624872
O48   O     O_R   0.934520 0.999970 0.476300 -0.622372
O49   O     O_2   0.068360 0.462605 0.324365 -0.565294
O50   O     O_2   0.565923 0.041493 0.324167 -0.568319
O51   O     O_2   0.931640 0.537395 0.324365 -0.565294
O52   O     O_2   0.434077 0.958506 0.324167 -0.568319
O53   O     O_2   0.068361 0.537394 0.675635 -0.565294
O54   O     O_2   0.565925 0.958510 0.675832 -0.568319
O55   O     O_2   0.931639 0.462607 0.675635 -0.565294
O56   O     O_2   0.434075 0.041490 0.675832 -0.568319
O57   O     O_2   0.568339 0.962566 0.824365 -0.565296
O58   O     O_2   0.065951 0.541450 0.824167 -0.568318
O59   O     O_2   0.431661 0.037434 0.824365 -0.565297
O60   O     O_2   0.934049 0.458550 0.824167 -0.568318
O61   O     O_2   0.568337 0.037437 0.175635 -0.565297
O62   O     O_2   0.065949 0.458549 0.175833 -0.568318
O63   O     O_2   0.431663 0.962562 0.175635 -0.565297
O64   O     O_2   0.934051 0.541452 0.175833 -0.568318
Zn1   Zn    Zn3+2 1.000000 0.549320 0.000000 0.933513
Zn2   Zn    Zn3+2 0.450680 0.000000 0.000000 0.939697
Zn3   Zn    Zn3+2 0.000000 0.450680 0.000000 0.933514
Zn4   Zn    Zn3+2 0.549320 0.000000 0.000000 0.939697
Zn5   Zn    Zn3+2 0.500000 0.049320 0.500000 0.933515
Zn6   Zn    Zn3+2 0.950680 0.500000 0.500000 0.939705
Zn7   Zn    Zn3+2 0.500000 0.950680 0.500000 0.933515
Zn8   Zn    Zn3+2 0.049320 0.500000 0.500000 0.939705
Zn9   Zn    Zn3+2 0.500000 0.500000 0.031630 0.958426
Zn10  Zn    Zn3+2 0.500000 0.500000 0.968370 0.958426
Zn11  Zn    Zn3+2 0.000000 0.000000 0.531630 0.958419
Zn12  Zn    Zn3+2 0.000000 0.000000 0.468370 0.958420
N9    N     N_2   0.065661 0.547596 0.146506 -0.273627
H49   H     H_    0.096563 0.548941 0.137335 0.236226
C225  C     C_3   0.051054 0.590069 0.157008 -0.759391
H50   H     H_    0.078239 0.605880 0.169182 0.234758
H51   H     H_    0.022302 0.586294 0.171413 0.256367
H52   H     H_    0.041693 0.611993 0.139090 0.238538
N10   N     N_2   0.491192 0.080620 0.146265 -0.274738
H53   H     H_    0.504375 0.108440 0.137014 0.235176
C226  C     C_3   0.447389 0.088112 0.157765 -0.756247
H54   H     H_    0.446607 0.120370 0.168961 0.233878
H55   H     H_    0.438489 0.062175 0.173316 0.254303
H56   H     H_    0.422323 0.088496 0.140541 0.236159
N11   N     N_2   0.934339 0.452404 0.146506 -0.273627
H57   H     H_    0.903438 0.451059 0.137335 0.236226
C227  C     C_3   0.948947 0.409932 0.157008 -0.759394
H58   H     H_    0.921761 0.394121 0.169182 0.234758
H59   H     H_    0.977698 0.413706 0.171414 0.256367
H60   H     H_    0.958308 0.388007 0.139090 0.238539
N12   N     N_2   0.508808 0.919380 0.146265 -0.274738
H61   H     H_    0.495626 0.891559 0.137013 0.235176
C228  C     C_3   0.552611 0.911888 0.157765 -0.756245
H62   H     H_    0.553393 0.879630 0.168961 0.233877
H63   H     H_    0.561511 0.937825 0.173316 0.254302
H64   H     H_    0.577677 0.911504 0.140540 0.236158
N13   N     N_2   0.065660 0.452402 0.853494 -0.273627
H65   H     H_    0.096561 0.451056 0.862665 0.236226
C229  C     C_3   0.051051 0.409930 0.842992 -0.759394
H66   H     H_    0.078236 0.394118 0.830817 0.234758
H67   H     H_    0.022300 0.413706 0.828586 0.256367
H68   H     H_    0.041689 0.388006 0.860909 0.238539
N14   N     N_2   0.491196 0.919379 0.853735 -0.274739
H69   H     H_    0.504379 0.891559 0.862986 0.235176
C230  C     C_3   0.447393 0.911886 0.842235 -0.756245
H70   H     H_    0.446612 0.879628 0.831039 0.233877
H71   H     H_    0.438492 0.937822 0.826683 0.254302
H72   H     H_    0.422327 0.911500 0.859459 0.236158
N15   N     N_2   0.934340 0.547598 0.853494 -0.273626
H73   H     H_    0.903439 0.548944 0.862665 0.236226
C231  C     C_3   0.948949 0.590070 0.842992 -0.759395
H74   H     H_    0.921764 0.605882 0.830817 0.234759
H75   H     H_    0.977700 0.586294 0.828586 0.256368
H76   H     H_    0.958311 0.611994 0.860910 0.238539
N16   N     N_2   0.508804 0.080620 0.853735 -0.274738
H77   H     H_    0.495621 0.108440 0.862986 0.235176
C232  C     C_3   0.552607 0.088114 0.842235 -0.756244
H78   H     H_    0.553388 0.120372 0.831039 0.233877
H79   H     H_    0.561508 0.062178 0.826683 0.254302
H80   H     H_    0.577673 0.088500 0.859459 0.236158
N17   N     N_2   0.565689 0.047559 0.646505 -0.273628
H81   H     H_    0.596591 0.048885 0.637335 0.236225
C233  C     C_3   0.551105 0.090040 0.657006 -0.759387
H82   H     H_    0.578299 0.105835 0.669181 0.234758
H83   H     H_    0.522350 0.086284 0.671411 0.256369
H84   H     H_    0.541760 0.111970 0.639087 0.238540
N18   N     N_2   0.991242 0.580626 0.646265 -0.274741
H85   H     H_    0.004441 0.608438 0.637014 0.235174
C234  C     C_3   0.947445 0.588144 0.657767 -0.756233
H86   H     H_    0.946683 0.620404 0.668961 0.233875
H87   H     H_    0.938531 0.562214 0.673319 0.254299
H88   H     H_    0.922377 0.588542 0.640543 0.236154
N19   N     N_2   0.434312 0.952441 0.646505 -0.273628
H89   H     H_    0.403409 0.951115 0.637335 0.236225
C235  C     C_3   0.448895 0.909959 0.657006 -0.759390
H90   H     H_    0.421701 0.894164 0.669181 0.234759
H91   H     H_    0.477650 0.913716 0.671410 0.256369
H92   H     H_    0.458241 0.888030 0.639087 0.238540
N20   N     N_2   0.008758 0.419375 0.646265 -0.274742
H93   H     H_    0.995559 0.391562 0.637014 0.235174
C236  C     C_3   0.052555 0.411856 0.657767 -0.756233
H94   H     H_    0.053318 0.379597 0.668961 0.233875
H95   H     H_    0.061470 0.437786 0.673319 0.254299
H96   H     H_    0.077623 0.411458 0.640543 0.236155
N21   N     N_2   0.565691 0.952444 0.353495 -0.273628
H97   H     H_    0.596593 0.951119 0.362665 0.236225
C237  C     C_3   0.551110 0.909962 0.342994 -0.759388
H98   H     H_    0.578304 0.894168 0.330819 0.234759
H99   H     H_    0.522354 0.913717 0.328590 0.256369
H100  H     H_    0.541765 0.888032 0.360913 0.238540
N22   N     N_2   0.991240 0.419375 0.353734 -0.274741
H101  H     H_    0.004439 0.391562 0.362986 0.235174
C238  C     C_3   0.947443 0.411857 0.342233 -0.756234
H102  H     H_    0.946680 0.379598 0.331038 0.233875
H103  H     H_    0.938529 0.437788 0.326681 0.254300
H104  H     H_    0.922375 0.411459 0.359457 0.236155
N23   N     N_2   0.434310 0.047556 0.353495 -0.273628
H105  H     H_    0.403407 0.048880 0.362665 0.236225
C239  C     C_3   0.448891 0.090038 0.342994 -0.759387
H106  H     H_    0.421696 0.105832 0.330818 0.234758
H107  H     H_    0.477647 0.086283 0.328590 0.256368
H108  H     H_    0.458235 0.111968 0.360913 0.238540
N24   N     N_2   0.008759 0.580626 0.353735 -0.274740
H109  H     H_    0.995561 0.608438 0.362986 0.235174
C240  C     C_3   0.052557 0.588143 0.342233 -0.756232
H110  H     H_    0.053320 0.620403 0.331039 0.233875
H111  H     H_    0.061471 0.562213 0.326681 0.254299
H112  H     H_    0.077625 0.588541 0.359457 0.236154
N25   N     N_2   0.069026 0.542073 0.085485 -0.309210
H113  H     H_    0.100405 0.531781 0.090939 0.215770
C241  C     C_3   0.065230 0.588938 0.080029 -0.717318
H114  H     H_    0.085639 0.607715 0.095477 0.217972
H115  H     H_    0.030298 0.600309 0.081424 0.248587
H116  H     H_    0.077607 0.596003 0.058302 0.244925
N26   N     N_2   0.499942 0.080547 0.084966 -0.321357
H117  H     H_    0.522395 0.103561 0.092160 0.223222
C242  C     C_3   0.457644 0.099184 0.077081 -0.770935
H118  H     H_    0.441598 0.114613 0.095776 0.237699
H119  H     H_    0.435514 0.073504 0.068060 0.263020
H120  H     H_    0.462792 0.125081 0.060725 0.235692
N27   N     N_2   0.930974 0.457926 0.085485 -0.309210
H121  H     H_    0.899595 0.468219 0.090939 0.215770
C243  C     C_3   0.934770 0.411062 0.080029 -0.717318
H122  H     H_    0.914361 0.392285 0.095477 0.217972
H123  H     H_    0.969702 0.399691 0.081424 0.248588
H124  H     H_    0.922392 0.403997 0.058303 0.244925
N28   N     N_2   0.500058 0.919453 0.084965 -0.321357
H125  H     H_    0.477605 0.896439 0.092160 0.223222
C244  C     C_3   0.542356 0.900815 0.077081 -0.770937
H126  H     H_    0.558402 0.885386 0.095776 0.237700
H127  H     H_    0.564486 0.926496 0.068060 0.263020
H128  H     H_    0.537209 0.874919 0.060724 0.235693
N29   N     N_2   0.069025 0.457925 0.914515 -0.309208
H129  H     H_    0.100404 0.468216 0.909061 0.215770
C245  C     C_3   0.065228 0.411060 0.919971 -0.717318
H130  H     H_    0.085636 0.392282 0.904523 0.217972
H131  H     H_    0.030296 0.399690 0.918575 0.248588
H132  H     H_    0.077606 0.403994 0.941697 0.244925
N30   N     N_2   0.499945 0.919453 0.915034 -0.321356
H133  H     H_    0.522399 0.896439 0.907840 0.223222
C246  C     C_3   0.457647 0.900814 0.922919 -0.770938
H134  H     H_    0.441602 0.885385 0.904224 0.237700
H135  H     H_    0.435517 0.926494 0.931941 0.263020
H136  H     H_    0.462796 0.874917 0.939275 0.235692
N31   N     N_2   0.930975 0.542075 0.914515 -0.309209
H137  H     H_    0.899596 0.531784 0.909061 0.215770
C247  C     C_3   0.934772 0.588940 0.919971 -0.717318
H138  H     H_    0.914364 0.607717 0.904523 0.217972
H139  H     H_    0.969705 0.600310 0.918576 0.248587
H140  H     H_    0.922394 0.596005 0.941697 0.244925
N32   N     N_2   0.500055 0.080547 0.915034 -0.321357
H141  H     H_    0.477601 0.103561 0.907840 0.223223
C248  C     C_3   0.542352 0.099186 0.922919 -0.770940
H142  H     H_    0.558398 0.114615 0.904224 0.237701
H143  H     H_    0.564483 0.073506 0.931941 0.263020
H144  H     H_    0.537203 0.125083 0.939275 0.235692
N33   N     N_2   0.569050 0.042035 0.585484 -0.309239
H145  H     H_    0.600424 0.031728 0.590939 0.215774
C249  C     C_3   0.565277 0.088900 0.580024 -0.717347
H146  H     H_    0.585697 0.107670 0.595470 0.217979
H147  H     H_    0.530351 0.100289 0.581421 0.248595
H148  H     H_    0.577655 0.095954 0.558297 0.244937
N34   N     N_2   0.999988 0.580547 0.584965 -0.321348
H149  H     H_    0.022452 0.603550 0.592161 0.223227
C250  C     C_3   0.957700 0.599205 0.577079 -0.770988
H150  H     H_    0.941655 0.614633 0.595775 0.237718
H151  H     H_    0.935562 0.573537 0.568050 0.263015
H152  H     H_    0.962863 0.625107 0.560728 0.235688
N35   N     N_2   0.430950 0.957965 0.585484 -0.309240
H153  H     H_    0.399576 0.968272 0.590939 0.215774
C251  C     C_3   0.434723 0.911100 0.580024 -0.717347
H154  H     H_    0.414303 0.892330 0.595470 0.217979
H155  H     H_    0.469649 0.899711 0.581421 0.248595
H156  H     H_    0.422345 0.904045 0.558297 0.244936
N36   N     N_2   0.000012 0.419453 0.584965 -0.321348
H157  H     H_    0.977548 0.396449 0.592161 0.223227
C252  C     C_3   0.042300 0.400795 0.577080 -0.770988
H158  H     H_    0.058345 0.385368 0.595775 0.237718
H159  H     H_    0.064438 0.426463 0.568050 0.263015
H160  H     H_    0.037137 0.374893 0.560728 0.235688
N37   N     N_2   0.569052 0.957968 0.414516 -0.309242
H161  H     H_    0.600425 0.968276 0.409061 0.215774
C253  C     C_3   0.565280 0.911103 0.419976 -0.717349
H162  H     H_    0.585702 0.892334 0.404531 0.217979
H163  H     H_    0.530355 0.899712 0.418579 0.248596
H164  H     H_    0.577659 0.904049 0.441704 0.244937
N38   N     N_2   0.999987 0.419453 0.415034 -0.321348
H165  H     H_    0.022451 0.396449 0.407839 0.223227
C254  C     C_3   0.957698 0.400796 0.422920 -0.770989
H166  H     H_    0.941653 0.385368 0.404225 0.237718
H167  H     H_    0.935561 0.426464 0.431949 0.263016
H168  H     H_    0.962861 0.374893 0.439272 0.235689
N39   N     N_2   0.430948 0.042031 0.414516 -0.309242
H169  H     H_    0.399575 0.031724 0.409060 0.215774
C255  C     C_3   0.434720 0.088897 0.419976 -0.717349
H170  H     H_    0.414298 0.107666 0.404530 0.217979
H171  H     H_    0.469645 0.100287 0.418579 0.248596
H172  H     H_    0.422341 0.095951 0.441703 0.244937
N40   N     N_2   0.000013 0.580547 0.415035 -0.321348
H173  H     H_    0.977549 0.603551 0.407839 0.223227
C256  C     C_3   0.042301 0.599205 0.422920 -0.770987
H174  H     H_    0.058347 0.614632 0.404225 0.237718
H175  H     H_    0.064439 0.573536 0.431949 0.263015
H176  H     H_    0.037139 0.625107 0.439272 0.235688
N41   N     N_3   0.135720 0.444729 0.039427 -0.459094
H177  H     H_    0.118186 0.420117 0.028715 0.213156
H178  H     H_    0.113576 0.464037 0.051133 0.187454
N42   N     N_3   0.570321 0.137151 0.028403 -0.462010
H179  H     H_    0.590455 0.120838 0.013733 0.214459
H180  H     H_    0.557317 0.114510 0.042915 0.208010
N43   N     N_3   0.864280 0.555270 0.039428 -0.459094
H181  H     H_    0.881814 0.579882 0.028716 0.213156
H182  H     H_    0.886424 0.535961 0.051133 0.187454
N44   N     N_3   0.429679 0.862849 0.028402 -0.462010
H183  H     H_    0.409544 0.879162 0.013733 0.214459
H184  H     H_    0.442682 0.885490 0.042915 0.208010
N45   N     N_3   0.135720 0.555271 0.960573 -0.459094
H185  H     H_    0.118186 0.579883 0.971284 0.213156
H186  H     H_    0.113576 0.535962 0.948867 0.187454
N46   N     N_3   0.570321 0.862849 0.971598 -0.462010
H187  H     H_    0.590456 0.879162 0.986267 0.214458
H188  H     H_    0.557318 0.885490 0.957085 0.208012
N47   N     N_3   0.864280 0.444730 0.960572 -0.459094
H189  H     H_    0.881814 0.420118 0.971283 0.213156
H190  H     H_    0.886424 0.464039 0.948867 0.187454
N48   N     N_3   0.429679 0.137151 0.971598 -0.462011
H191  H     H_    0.409544 0.120838 0.986267 0.214459
H192  H     H_    0.442682 0.114510 0.957085 0.208011
N49   N     N_3   0.635721 0.944716 0.539420 -0.459097
H193  H     H_    0.618189 0.920106 0.528705 0.213158
H194  H     H_    0.613576 0.964020 0.551128 0.187467
N50   N     N_3   0.070335 0.637153 0.528389 -0.462012
H195  H     H_    0.090463 0.620840 0.513716 0.214461
H196  H     H_    0.057339 0.614512 0.542905 0.208031
N51   N     N_3   0.364279 0.055283 0.539420 -0.459097
H197  H     H_    0.381811 0.079893 0.528706 0.213158
H198  H     H_    0.386424 0.035979 0.551128 0.187468
N52   N     N_3   0.929666 0.362847 0.528389 -0.462013
H199  H     H_    0.909538 0.379160 0.513717 0.214462
H200  H     H_    0.942662 0.385488 0.542905 0.208031
N53   N     N_3   0.635721 0.055284 0.460580 -0.459097
H201  H     H_    0.618189 0.079893 0.471295 0.213158
H202  H     H_    0.613576 0.035980 0.448872 0.187469
N54   N     N_3   0.070334 0.362847 0.471610 -0.462013
H203  H     H_    0.090462 0.379160 0.486283 0.214462
H204  H     H_    0.057338 0.385488 0.457094 0.208031
N55   N     N_3   0.364279 0.944716 0.460580 -0.459097
H205  H     H_    0.381811 0.920107 0.471294 0.213158
H206  H     H_    0.386424 0.964021 0.448872 0.187469
N56   N     N_3   0.929665 0.637152 0.471611 -0.462012
H207  H     H_    0.909537 0.620840 0.486284 0.214462
H208  H     H_    0.942661 0.614512 0.457095 0.208030
N57   N     N_2   0.274827 0.450675 0.957823 -0.304940
H209  H     H_    0.244021 0.462036 0.951985 0.237334
C257  C     C_3   0.275523 0.403534 0.962636 -0.780069
H210  H     H_    0.259273 0.386433 0.944566 0.240793
H211  H     H_    0.257355 0.395385 0.982490 0.240276
H212  H     H_    0.310116 0.391367 0.964216 0.245128
N58   N     N_2   0.536333 0.274855 0.952699 -0.305125
H213  H     H_    0.523207 0.244180 0.948406 0.236608
C258  C     C_3   0.584149 0.275258 0.951635 -0.782419
H214  H     H_    0.595502 0.258935 0.931811 0.241161
H215  H     H_    0.597964 0.257084 0.970135 0.239507
H216  H     H_    0.596797 0.309694 0.951666 0.245888
N59   N     N_2   0.725173 0.549326 0.957824 -0.304939
H217  H     H_    0.755979 0.537966 0.951985 0.237334
C259  C     C_3   0.724477 0.596468 0.962638 -0.780069
H218  H     H_    0.740727 0.613570 0.944568 0.240794
H219  H     H_    0.742646 0.604615 0.982492 0.240275
H220  H     H_    0.689884 0.608635 0.964218 0.245128
N60   N     N_2   0.463667 0.725145 0.952699 -0.305124
H221  H     H_    0.476793 0.755819 0.948406 0.236608
C260  C     C_3   0.415851 0.724742 0.951635 -0.782419
H222  H     H_    0.404498 0.741065 0.931811 0.241162
H223  H     H_    0.402036 0.742916 0.970135 0.239507
H224  H     H_    0.403203 0.690306 0.951666 0.245888
N61   N     N_2   0.274827 0.549324 0.042177 -0.304940
H225  H     H_    0.244021 0.537964 0.048015 0.237334
C261  C     C_3   0.275523 0.596466 0.037364 -0.780067
H226  H     H_    0.259273 0.613568 0.055434 0.240793
H227  H     H_    0.257354 0.604615 0.017510 0.240275
H228  H     H_    0.310116 0.608633 0.035784 0.245127
N62   N     N_2   0.536333 0.725145 0.047301 -0.305125
H229  H     H_    0.523207 0.755819 0.051595 0.236609
C262  C     C_3   0.584149 0.724741 0.048365 -0.782420
H230  H     H_    0.595502 0.741065 0.068190 0.241161
H231  H     H_    0.597963 0.742916 0.029866 0.239508
H232  H     H_    0.596796 0.690305 0.048335 0.245888
N63   N     N_2   0.725173 0.450674 0.042176 -0.304940
H233  H     H_    0.755978 0.462034 0.048014 0.237334
C263  C     C_3   0.724477 0.403532 0.037362 -0.780067
H234  H     H_    0.740727 0.386430 0.055432 0.240793
H235  H     H_    0.742646 0.395385 0.017508 0.240274
H236  H     H_    0.689884 0.391365 0.035782 0.245127
N64   N     N_2   0.463667 0.274855 0.047301 -0.305125
H237  H     H_    0.476793 0.244181 0.051595 0.236609
C264  C     C_3   0.415851 0.275259 0.048365 -0.782421
H238  H     H_    0.404498 0.258935 0.068189 0.241162
H239  H     H_    0.402037 0.257084 0.029865 0.239508
H240  H     H_    0.403204 0.309695 0.048335 0.245888
N65   N     N_2   0.774827 0.950685 0.457818 -0.304942
H241  H     H_    0.744021 0.962047 0.451981 0.237333
C265  C     C_3   0.775523 0.903542 0.462626 -0.780071
H242  H     H_    0.759272 0.886445 0.444555 0.240792
H243  H     H_    0.757354 0.895389 0.482480 0.240275
H244  H     H_    0.810116 0.891375 0.464205 0.245128
N66   N     N_2   0.036318 0.774855 0.452694 -0.305126
H245  H     H_    0.023191 0.744180 0.448403 0.236607
C266  C     C_3   0.084134 0.775258 0.451624 -0.782420
H246  H     H_    0.095481 0.758935 0.431798 0.241163
H247  H     H_    0.097955 0.757084 0.470122 0.239509
H248  H     H_    0.096781 0.809695 0.451653 0.245888
N67   N     N_2   0.225173 0.049314 0.457818 -0.304941
H249  H     H_    0.255979 0.037952 0.451981 0.237333
C267  C     C_3   0.224477 0.096457 0.462626 -0.780071
H250  H     H_    0.240727 0.113554 0.444555 0.240793
H251  H     H_    0.242646 0.104611 0.482479 0.240275
H252  H     H_    0.189884 0.108625 0.464205 0.245128
N68   N     N_2   0.963680 0.225145 0.452695 -0.305126
H253  H     H_    0.976807 0.255819 0.448403 0.236608
C268  C     C_3   0.915864 0.224741 0.451626 -0.782417
H254  H     H_    0.904516 0.241065 0.431800 0.241163
H255  H     H_    0.902044 0.242916 0.470123 0.239507
H256  H     H_    0.903217 0.190305 0.451654 0.245888
N69   N     N_2   0.774827 0.049315 0.542182 -0.304941
H257  H     H_    0.744021 0.037953 0.548019 0.237333
C269  C     C_3   0.775523 0.096457 0.537373 -0.780069
H258  H     H_    0.759272 0.113555 0.555445 0.240792
H259  H     H_    0.757354 0.104611 0.517520 0.240275
H260  H     H_    0.810115 0.108625 0.535794 0.245128
N70   N     N_2   0.036320 0.225145 0.547305 -0.305126
H261  H     H_    0.023193 0.255819 0.551597 0.236607
C270  C     C_3   0.084136 0.224741 0.548374 -0.782418
H262  H     H_    0.095484 0.241065 0.568200 0.241163
H263  H     H_    0.097956 0.242915 0.529877 0.239508
H264  H     H_    0.096783 0.190305 0.548346 0.245888
N71   N     N_2   0.225173 0.950686 0.542182 -0.304941
H265  H     H_    0.255979 0.962048 0.548019 0.237333
C271  C     C_3   0.224477 0.903543 0.537374 -0.780069
H266  H     H_    0.240728 0.886446 0.555445 0.240791
H267  H     H_    0.242646 0.895389 0.517521 0.240275
H268  H     H_    0.189884 0.891375 0.535795 0.245128
N72   N     N_2   0.963682 0.774855 0.547305 -0.305126
H269  H     H_    0.976809 0.744180 0.551597 0.236607
C272  C     C_3   0.915866 0.775259 0.548376 -0.782418
H270  H     H_    0.904519 0.758935 0.568202 0.241162
H271  H     H_    0.902045 0.757084 0.529878 0.239508
H272  H     H_    0.903219 0.809695 0.548347 0.245888

loop_
_geom_bond_atom_site_label_1
_geom_bond_atom_site_label_2
_ccdc_geom_bond_type
N26   H117  S    
C124  C220  S    
N9    H49   S    
C37   C69   A    
N18   C234  S    
N10   C226  S    
C236  H94   S    
N32   H141  S    
C133  C151  A    
N13   C229  S    
C257  H210  S    
C42   C58   A    
C21   C110  S    
C238  H102  S    
C244  H128  S    
C31   C67   A    
C23   C112  S    
C271  H267  S    
C45   C57   A    
N69   H257  S    
C32   H24   S    
C133  N3    A    
C32   C66   A    
C267  H251  S    
C42   N42   S    
C131  N1    A    
C262  H231  S    
N21   H97   S    
C15   C197  A    
C263  H235  S    
C39   H31   S    
N48   H192  S    
C87   N71   S    
C259  H218  S    
C209  N33   S    
C256  H176  S    
C209  C221  A    
C186  C202  A    
C265  H243  S    
N53   H201  S    
C233  H84   S    
C83   C119  A    
C136  O56   S    
C228  H64   S    
N19   C235  S    
O38   Zn10  S    
N15   H73   S    
C102  C112  A    
C190  C206  A    
C176  C179  A    
N38   H165  S    
C137  O57   S    
N45   H186  S    
C68   C116  S    
N52   H199  S    
C200  C216  A    
C102  H46   S    
C195  N19   S    
C33   C69   A    
C264  H240  S    
C19   C108  S    
C179  H11   S    
C95   H39   S    
C14   C194  A    
C35   C71   A    
C234  H87   S    
O23   Zn1   S    
C78   N62   S    
C128  C224  S    
C77   C113  A    
N67   C267  S    
C38   C72   A    
C249  H147  S    
C12   C192  A    
C203  C217  A    
C84   C100  A    
C91   C107  A    
C235  H92   S    
C49   N49   S    
C141  N7    A    
C188  N12   S    
C2    O2    A    
O36   Zn9   S    
C266  H248  S    
C25   C41   A    
C250  H151  S    
C203  N27   S    
C122  O18   A    
N49   H193  S    
C28   C44   A    
C17   O33   A    
O42   Zn11  S    
N24   C240  S    
C212  N36   S    
C192  N16   S    
N58   C258  S    
C248  H144  S    
C131  O51   S    
C269  H258  S    
C156  C166  A    
N66   H245  S    
O14   Zn6   S    
N15   C231  S    
C269  H260  S    
C25   C65   A    
C34   H26   S    
C268  H256  S    
C77   N61   S    
C174  C177  A    
C73   N57   S    
N63   H233  S    
C21   O47   A    
C54   N54   S    
C97   H41   S    
C243  H123  S    
C254  H167  S    
C35   C51   A    
N13   H65   S    
C236  H96   S    
C56   C62   A    
N62   C262  S    
C75   C115  A    
C82   C118  A    
C213  N37   S    
C229  H66   S    
C198  C214  A    
N20   H93   S    
C16   C198  A    
C47   N47   S    
O48   Zn12  S    
C238  H104  S    
N16   C232  S    
C3    C59   S    
N44   H183  S    
C30   H22   S    
C46   C60   A    
C65   C113  S    
C139  N5    A    
C237  H98   S    
C53   N53   S    
C147  C171  A    
C176  H8    S    
O9    Zn5   S    
N12   H61   S    
O11   Zn7   S    
C20   O36   A    
C23   O43   A    
C260  H222  S    
O1    Zn1   S    
C71   C119  S    
C187  N11   S    
C148  C162  A    
N50   H195  S    
C74   C90   A    
C244  H126  S    
C73   C89   A    
N29   C245  S    
N61   H225  S    
C104  C110  A    
C156  C180  A    
C145  C161  A    
C78   C94   A    
C36   H28   S    
C94   H38   S    
C159  C167  A    
C243  H124  S    
C261  H228  S    
C135  N3    A    
C160  C168  A    
C227  H59   S    
O21   Zn3   S    
C169  C182  A    
O30   Zn6   S    
C261  H226  S    
N34   C250  S    
C47   C59   A    
C196  C212  A    
C84   N68   S    
C245  H131  S    
C180  H12   S    
C135  O55   S    
N56   H207  S    
C257  H212  S    
C225  H50   S    
C241  H115  S    
C39   C71   A    
C28   H20   S    
O18   Zn2   S    
N17   H81   S    
C33   C49   A    
C184  H16   S    
C6    O10   A    
C41   N41   S    
N22   C238  S    
C74   C114  A    
C253  H164  S    
C1    O1    A    
C154  C178  A    
C258  H214  S    
C210  C222  A    
C79   C115  A    
C213  C223  A    
C200  N24   S    
C123  O23   A    
N70   H261  S    
O31   Zn5   S    
C251  H156  S    
C229  H67   S    
N59   H217  S    
C237  H99   S    
C212  C222  A    
C242  H118  S    
C76   C116  A    
N26   C242  S    
C137  N5    A    
C82   N66   S    
C88   N72   S    
C40   C70   A    
C199  C215  A    
C28   C68   A    
C155  C165  A    
C211  N35   S    
O39   Zn10  S    
N28   C244  S    
C141  O61   S    
N62   H229  S    
C211  C221  A    
C75   N59   S    
C97   C109  A    
C137  C155  A    
N49   H194  S    
C23   O45   A    
C50   N50   S    
C21   O41   A    
C83   N67   S    
C53   C61   A    
C141  C159  A    
N40   H173  S    
C55   C63   A    
C230  H72   S    
C10   C188  A    
C9    N8    S    
C10   N7    S    
C216  N40   S    
C11   N6    S    
C122  O20   A    
C36   C52   A    
C43   C59   A    
C37   C53   A    
C272  H272  S    
C76   N60   S    
N42   H180  S    
C99   C111  A    
C96   H40   S    
N37   H161  S    
C138  N6    A    
C255  H172  S    
N71   C271  S    
C4    C60   S    
O34   Zn9   S    
C263  H234  S    
C205  N29   S    
C207  C219  A    
C88   C104  A    
C44   N44   S    
N27   H121  S    
C260  H224  S    
C153  C177  A    
C134  O54   S    
C129  C147  A    
C82   C98   A    
C26   C66   A    
C18   O34   A    
C52   N52   S    
O41   Zn11  S    
C207  N31   S    
N60   C260  S    
C186  N10   S    
C226  H56   S    
C142  N8    A    
C178  H10   S    
C100  H44   S    
C240  H111  S    
C101  H45   S    
C188  C204  A    
O19   Zn3   S    
C204  C218  A    
N35   C251  S    
C103  H47   S    
C127  O31   A    
C87   C119  A    
C246  H134  S    
C1    C57   S    
C194  C210  A    
C55   N55   S    
O12   Zn8   S    
N30   H133  S    
C45   N45   S    
N68   H253  S    
C227  H60   S    
O33   Zn9   S    
C72   C120  S    
C5    C61   S    
O4    Zn4   S    
C191  C207  A    
N31   C247  S    
C7    C63   S    
C173  H5    S    
C8    C64   S    
C29   C65   A    
C272  H270  S    
C258  H216  S    
C13   C195  A    
O35   Zn9   S    
C268  H255  S    
C88   C118  A    
C251  H154  S    
C86   C102  A    
C196  N20   S    
O5    Zn3   S    
C232  H80   S    
C142  O62   S    
N65   C265  S    
C242  H120  S    
C181  H13   S    
N36   C252  S    
C123  C219  S    
C22   O42   A    
C153  C165  A    
C121  C217  S    
C30   C46   A    
C78   C116  A    
N14   C230  S    
C27   H19   S    
C249  H146  S    
C215  N39   S    
C48   N48   S    
C175  C180  A    
O43   Zn11  S    
C244  H127  S    
C150  C164  A    
C256  H175  S    
C202  C218  A    
O13   Zn7   S    
N33   C249  S    
O44   Zn11  S    
C17   C106  S    
N66   C266  S    
C172  C183  A    
O8    Zn4   S    
C8    O14   A    
C173  C178  A    
C98   H42   S    
N27   C243  S    
O28   Zn8   S    
C225  H52   S    
C11   C191  A    
C233  H83   S    
C125  O25   A    
C228  H63   S    
C91   H35   S    
N9    C225  S    
C240  H110  S    
C89   C105  A    
C255  H170  S    
C13   C193  A    
O25   Zn5   S    
C12   N5    S    
C36   C72   A    
N11   C227  S    
C201  N25   S    
C20   O40   A    
O17   Zn1   S    
C234  H86   S    
C98   C110  A    
O29   Zn7   S    
C247  H139  S    
C129  N1    A    
C245  H130  S    
C225  H51   S    
C214  N38   S    
C157  C167  A    
C1    O5    A    
N67   H249  S    
C245  H132  S    
C158  C168  A    
C265  H242  S    
N72   C272  S    
C3    O7    A    
C146  C162  A    
C26   C42   A    
C270  H262  S    
C197  N21   S    
C199  N23   S    
C164  C165  A    
N70   C270  S    
C264  H238  S    
C246  H136  S    
C266  H247  S    
C250  H150  S    
C231  H76   S    
N23   C239  S    
C139  C153  A    
C101  C109  A    
C227  H58   S    
C46   N46   S    
C210  N34   S    
C73   C113  A    
C80   N64   S    
C103  C111  A    
C185  C201  A    
N25   C241  S    
O46   Zn12  S    
C14   C196  A    
C7    O11   A    
C205  C219  A    
C235  H90   S    
C189  C205  A    
C40   C56   A    
C121  O17   A    
N10   H53   S    
C269  H259  S    
C130  N2    A    
C34   C70   A    
O20   Zn4   S    
O6    Zn2   S    
C39   C55   A    
C241  H114  S    
N69   C269  S    
C31   C47   A    
C254  H166  S    
C17   O39   A    
C236  H95   S    
C157  C181  A    
C19   O37   A    
C127  O29   A    
C155  C179  A    
C232  H78   S    
C145  C169  A    
C238  H103  S    
C191  N15   S    
C271  H268  S    
N44   H184  S    
C267  H250  S    
C151  C175  A    
N53   H202  S    
N24   H109  S    
C171  C184  A    
N34   H149  S    
C267  H252  S    
C49   C61   A    
C90   C106  A    
C52   C64   A    
C262  H232  S    
C24   O44   A    
C263  H236  S    
C206  C220  A    
N48   H191  S    
N57   H209  S    
C4    O6    A    
N51   H197  S    
C5    O9    A    
C11   C189  A    
N50   H196  S    
C125  O27   A    
C18   O38   A    
N28   H125  S    
C104  H48   S    
C79   C95   A    
N29   H129  S    
C10   C186  A    
C140  N6    A    
C79   N63   S    
C83   C99   A    
C136  C150  A    
N72   H269  S    
C130  O50   S    
C84   C120  A    
C240  H112  S    
C99   H43   S    
C163  C166  A    
C26   H18   S    
C51   C63   A    
C261  H227  S    
C27   C67   A    
C51   N51   S    
C33   H25   S    
C204  N28   S    
C95   C107  A    
N30   C246  S    
C171  H3    S    
C100  C112  A    
C234  H88   S    
C25   H17   S    
N47   H190  S    
C147  C161  A    
C247  H140  S    
C169  H1    S    
N39   C255  S    
C86   C120  A    
C197  C213  A    
N22   H101  S    
C2    O8    A    
C20   C105  S    
C249  H148  S    
C253  H163  S    
N14   H69   S    
N68   C268  S    
C66   C114  S    
N38   C254  S    
C29   H21   S    
C24   C109  S    
O10   Zn6   S    
N54   H204  S    
C251  H155  S    
C250  H152  S    
C226  H54   S    
C231  H74   S    
C2    C58   S    
C48   C58   A    
C40   H32   S    
O2    Zn2   S    
C16   C200  A    
N57   C257  S    
C248  H143  S    
C132  C146  A    
C270  H264  S    
C6    C62   S    
C226  H55   S    
C41   C57   A    
C172  H4    S    
C32   C48   A    
C44   C60   A    
C208  N32   S    
C77   C93   A    
C121  O19   A    
C22   O46   A    
N20   C236  S    
N46   H188  S    
C194  N18   S    
C198  N22   S    
N63   C263  S    
C124  O22   A    
C202  N26   S    
O45   Zn12  S    
C27   C43   A    
C259  H220  S    
C246  H135  S    
O24   Zn4   S    
C254  H168  S    
C29   C45   A    
N60   H221  S    
C230  H71   S    
C154  C166  A    
C123  O21   A    
C19   O35   A    
C262  H230  S    
C30   C68   A    
N16   H77   S    
O27   Zn7   S    
C208  C220  A    
C265  H244  S    
C271  H266  S    
N43   H182  S    
C255  H171  S    
C134  N4    A    
N71   H265  S    
C258  H215  S    
O37   Zn10  S    
N43   H181  S    
C239  H107  S    
C129  O49   S    
C230  H70   S    
C216  C224  A    
N19   H89   S    
N36   H157  S    
C126  O28   A    
C125  C221  S    
C260  H223  S    
C94   C108  A    
N41   H177  S    
C54   C64   A    
C70   C118  S    
C126  O26   A    
C9    C185  A    
N17   C233  S    
C257  H211  S    
C6    O16   A    
C132  O52   S    
C253  H162  S    
C144  N8    A    
C146  C170  A    
C128  O30   A    
C24   O48   A    
C248  H142  S    
C144  O64   S    
C67   C115  S    
C18   C107  S    
O15   Zn5   S    
C239  H108  S    
C43   N43   S    
N18   H85   S    
C242  H119  S    
C183  H15   S    
C14   N3    S    
N58   H213  S    
C272  H271  S    
C38   C54   A    
C241  H116  S    
C189  N13   S    
C233  H82   S    
N40   C256  S    
O3    Zn3   S    
C149  C163  A    
C80   C96   A    
C252  H158  S    
C13   N4    S    
C127  C223  S    
C187  C203  A    
C93   C105  A    
O40   Zn10  S    
C92   H36   S    
C134  C152  A    
C270  H263  S    
C192  C208  A    
C31   H23   S    
C136  N4    A    
C85   N69   S    
O16   Zn8   S    
C35   H27   S    
C232  H79   S    
C92   C108  A    
C143  C157  A    
C237  H100  S    
C93   H37   S    
N12   C228  S    
C4    O4    A    
N56   H208  S    
C34   C50   A    
N61   C261  S    
C175  H7    S    
N21   C237  S    
C130  C148  A    
C139  O59   S    
C89   H33   S    
N54   H203  S    
C140  O60   S    
C229  H68   S    
C206  N30   S    
N55   H206  S    
C7    O15   A    
C185  N9    S    
O26   Zn6   S    
C177  H9    S    
O7    Zn1   S    
N39   H169  S    
C135  C149  A    
C190  N14   S    
C235  H91   S    
N55   H205  S    
N51   H198  S    
C74   N58   S    
C15   N2    S    
C85   C117  A    
N64   C264  S    
C195  C211  A    
C124  O24   A    
C15   C199  A    
C193  C209  A    
C243  H122  S    
C247  H138  S    
C132  N2    A    
C143  N7    A    
C256  H174  S    
N32   C248  S    
N41   H178  S    
C158  C182  A    
C228  H62   S    
C152  C164  A    
C214  C224  A    
C76   C92   A    
C5    O13   A    
C81   C117  A    
N42   H179  S    
C150  C174  A    
C80   C114  A    
N45   H185  S    
C151  C163  A    
C81   N65   S    
N37   C253  S    
C170  C181  A    
C193  N17   S    
C50   C62   A    
C87   C103  A    
C144  C158  A    
C85   C101  A    
N46   H187  S    
C182  H14   S    
N11   H57   S    
C8    O12   A    
C138  C156  A    
O32   Zn8   S    
C96   C106  A    
C122  C218  S    
C259  H219  S    
C138  O58   S    
C142  C160  A    
C16   N1    S    
C9    C187  A    
N47   H189  S    
C215  C223  A    
N52   H200  S    
C126  C222  S    
O22   Zn2   S    
C75   C91   A    
C56   N56   S    
C12   C190  A    
O47   Zn12  S    
C37   H29   S    
C128  O32   A    
N31   H137  S    
C159  C183  A    
C170  H2    S    
N59   C259  S    
C201  C217  A    
C239  H106  S    
C252  H159  S    
C266  H246  S    
C231  H75   S    
N23   H105  S    
N65   H241  S    
C81   C97   A    
C38   H30   S    
C69   C117  S    
C148  C172  A    
C149  C173  A    
N25   H113  S    
C252  H160  S    
C161  C168  A    
C133  O53   S    
C162  C167  A    
C152  C176  A    
C3    O3    A    
C143  O63   S    
C22   C111  S    
C174  H6    S    
C86   N70   S    
C264  H239  S    
C268  H254  S    
N33   H145  S    
C160  C184  A    
N35   H153  S    
N64   H237  S    
C140  C154  A    
C131  C145  A    
C90   H34   S    
