data_mof_unit_51660.cif
_audit_creation_date              2012-12-10T18:31:51-0500
_audit_creation_method            fapswitch 2.2
_symmetry_space_group_name_H-M    P1
_symmetry_Int_Tables_number       1
_space_group_crystal_system       triclinic
_cell_length_a                    10.655884
_cell_length_b                    14.956008
_cell_length_c                    15.335728
_cell_angle_alpha                 81.962384
_cell_angle_beta                  89.360839
_cell_angle_gamma                 104.546502
_cell_volume                      2339.72971744

loop_
_atom_site_label
_atom_site_type_symbol
_atom_type_description
_atom_site_fract_x
_atom_site_fract_y
_atom_site_fract_z
_atom_type_partial_charge
C1    C     C_R   0.477037 0.441412 0.662783 0.876328
C2    C     C_3   0.121705 0.500656 0.496542 0.024621
C3    C     C_3   0.108680 0.599308 0.456456 -0.380631
C4    C     C_3   0.059521 0.474893 0.592394 -0.027280
C5    C     C_R   0.439332 0.405887 0.755923 -0.060575
C6    C     C_R   0.508092 0.595267 0.242169 -0.116766
C7    C     C_R   0.358122 0.280721 0.877009 -0.193334
C8    C     C_R   0.399192 0.310185 0.788343 -0.196002
C9    C     C_R   0.433634 0.470826 0.811789 -0.218607
C10   C     C_R   0.387790 0.442957 0.899444 0.095712
C11   C     C_R   0.355211 0.346764 0.933315 0.171934
C12   C     C_R   0.742502 0.501835 0.496640 0.886098
C13   C     C_R   0.386237 0.509729 0.955816 0.069354
C14   C     C_R   0.380256 0.482119 0.047746 0.097284
C15   C     C_R   0.339340 0.385176 0.080261 -0.200440
C16   C     C_R   0.324322 0.318658 0.023262 -0.234000
C17   C     C_R   0.395055 0.603772 0.923023 -0.209330
C18   C     C_R   0.424556 0.671666 0.977472 -0.228062
C19   C     C_R   0.450532 0.648668 0.066379 0.113323
C20   C     C_R   0.422944 0.552538 0.102428 0.076050
C21   C     C_R   0.509475 0.719009 0.117958 0.092016
C22   C     C_R   0.547251 0.691372 0.204740 0.067717
C23   C     C_R   0.517881 0.559056 0.336580 0.903048
C24   C     C_R   0.449050 0.528792 0.189997 -0.243765
C25   C     C_R   0.710771 0.847225 0.624645 -0.317194
C26   C     C_R   0.677591 0.757928 0.602228 0.014225
C27   C     C_R   0.497649 0.788794 0.525246 -0.043245
C28   C     C_R   0.530907 0.882310 0.540701 -0.001181
C29   C     C_R   0.638787 0.910244 0.592993 0.176521
C30   C     C_R   0.465579 0.949345 0.502753 0.072133
C31   C     C_R   0.508288 0.043463 0.519629 0.080194
C32   C     C_R   0.612052 0.066734 0.575928 -0.238409
C33   C     C_R   0.675960 0.001221 0.611571 -0.207734
C34   C     C_R   0.258050 0.499958 0.498557 0.900965
C35   C     C_R   0.363793 0.926528 0.444838 -0.237464
C36   C     C_R   0.308216 0.994016 0.402496 -0.205038
C37   C     C_R   0.350065 0.086205 0.417218 0.175773
C38   C     C_R   0.448547 0.111844 0.477243 -0.001321
C39   C     C_R   0.293898 0.153321 0.372335 -0.313803
C40   C     C_R   0.334122 0.244923 0.388273 0.017036
C41   C     C_R   0.483198 0.205811 0.491448 -0.063954
C42   C     C_3   0.903127 0.425657 0.442347 -0.377293
C43   C     C_3   0.047085 0.427228 0.439731 -0.019591
C44   C     C_3   0.965050 0.599699 0.452210 0.004507
C45   C     C_3   0.917385 0.480577 0.590891 -0.478324
C46   C     C_3   0.879393 0.502497 0.494671 0.045116
H1    H     H_    0.867752 0.435088 0.374670 0.232833
H2    H     H_    0.948700 0.654514 0.489969 0.153981
H3    H     H_    0.157188 0.652572 0.497470 0.187817
H4    H     H_    0.295494 0.245158 0.050317 0.147152
H5    H     H_    0.428403 0.456506 0.218288 0.176636
H6    H     H_    0.434177 0.742468 0.946335 0.158901
H7    H     H_    0.331026 0.206668 0.901883 0.137095
H8    H     H_    0.400625 0.258523 0.745665 0.156933
H9    H     H_    0.470209 0.544024 0.786777 0.168423
H10   H     H_    0.847133 0.355317 0.474803 0.163302
H11   H     H_    0.317051 0.358538 0.149234 0.156097
H12   H     H_    0.380292 0.626531 0.854730 0.174203
H13   H     H_    0.757334 0.022649 0.652433 0.144385
H14   H     H_    0.552648 0.231683 0.538125 0.125492
H15   H     H_    0.290322 0.297359 0.355169 0.156238
H16   H     H_    0.232155 0.973849 0.357319 0.150843
H17   H     H_    0.793716 0.867544 0.664425 0.149717
H18   H     H_    0.734063 0.709002 0.624485 0.139137
H19   H     H_    0.414273 0.759524 0.490094 0.122497
H20   H     H_    0.055586 0.356403 0.468247 0.142793
H21   H     H_    0.649542 0.135915 0.592047 0.135047
H22   H     H_    0.326354 0.857361 0.428649 0.139101
H23   H     H_    0.219041 0.134977 0.325952 0.149461
H24   H     H_    0.158828 0.620987 0.390135 0.209439
H25   H     H_    0.902621 0.535585 0.628854 0.208198
H26   H     H_    0.853448 0.413002 0.623511 0.164022
H27   H     H_    0.061408 0.401809 0.617932 0.135187
N1    N     N_R   0.573860 0.731700 0.552730 -0.097611
N2    N     N_R   0.426060 0.268290 0.447230 -0.100240
O1    O     O_R   0.462770 0.383110 0.605620 -0.620398
O2    O     O_R   0.510160 0.531900 0.639510 -0.603703
O3    O     O_R   0.661510 0.425600 0.483070 -0.625269
O4    O     O_R   0.708900 0.574390 0.516960 -0.628333
O5    O     O_R   0.489840 0.468100 0.360490 -0.605795
O6    O     O_R   0.537230 0.616890 0.394380 -0.616598
O7    O     O_R   0.291100 0.425610 0.483040 -0.620116
O8    O     O_R   0.338490 0.574400 0.516930 -0.604691
Zn1   Zn    Zn3+2 0.468350 0.400660 0.477370 0.948546
Zn2   Zn    Zn3+2 0.531650 0.599340 0.522630 0.951224
I1    I     I_    0.159644 0.557418 0.688190 -0.429978
C47   C     C_3   0.643882 0.760971 0.250709 -0.373332
C48   C     C_3   0.581084 0.825416 0.295807 -0.346718
C49   C     C_3   0.683915 0.896313 0.336499 -0.847738
H28   H     H_    0.729963 0.860268 0.390488 0.272523
H29   H     H_    0.759779 0.936638 0.285695 0.257053
H30   H     H_    0.638528 0.946329 0.363478 0.256350
H31   H     H_    0.528771 0.864275 0.248896 0.222861
H32   H     H_    0.508733 0.783137 0.347461 0.233711
H33   H     H_    0.696000 0.724904 0.300077 0.241811
H34   H     H_    0.723371 0.802224 0.202891 0.194187
C50   C     C_3   0.535556 0.822325 0.078609 -0.448078
C51   C     C_3   0.409995 0.855389 0.078833 -0.328052
C52   C     C_3   0.435812 0.958955 0.042281 -0.886804
H35   H     H_    0.504987 0.001542 0.083430 0.264003
H36   H     H_    0.476569 0.972266 0.973324 0.263842
H37   H     H_    0.343483 0.980580 0.042908 0.250711
H38   H     H_    0.336534 0.815096 0.038765 0.231762
H39   H     H_    0.367282 0.843714 0.147165 0.225016
H40   H     H_    0.608483 0.868912 0.113409 0.213036
H41   H     H_    0.580839 0.834540 0.011054 0.195060
I2    I     I_    0.122720 0.448069 0.304601 -0.422635
I3    I     I_    0.919725 0.641994 0.318256 -0.447153

loop_
_geom_bond_atom_site_label_1
_geom_bond_atom_site_label_2
_ccdc_geom_bond_type
C44   H2    S    
C47   C48   S    
C45   H25   S    
C1    O2    A    
C19   C20   A    
O5    Zn1   S    
O1    Zn1   S    
C50   C51   S    
C3    H3    S    
C18   H6    S    
C7    C8    A    
C45   C46   S    
C7    C11   A    
C30   C35   A    
C1    C5    S    
C36   C37   A    
C19   C21   A    
C16   H4    S    
C42   C46   S    
C30   C31   A    
N2    Zn1   S    
C4    I1    S    
C51   H38   S    
C6    C22   A    
C12   O4    A    
C29   C33   A    
C18   C19   A    
C25   H17   S    
C26   H18   S    
C42   H10   S    
C31   C32   A    
C12   O3    A    
C9    H9    S    
C23   O5    A    
C49   H29   S    
C27   N1    A    
C9    C10   A    
C17   H12   S    
C50   H40   S    
C2    C34   S    
C24   H5    S    
O2    Zn2   S    
C33   H13   S    
C21   C22   A    
C45   H26   S    
C15   H11   S    
C36   H16   S    
C44   C46   S    
C4    C45   S    
C44   I3    S    
C25   C29   A    
C48   H32   S    
C3    C44   S    
C14   C20   A    
C3    H24   S    
C38   C41   A    
C12   C46   S    
C8    H8    S    
C39   C40   A    
C25   C26   A    
C40   H15   S    
C47   H33   S    
C35   C36   A    
C2    C4    S    
C5    C9    A    
C37   C38   A    
C27   H19   S    
C41   N2    A    
C21   C50   S    
C11   C16   A    
C52   H35   S    
C2    C43   S    
C6    C24   A    
C47   H34   S    
C17   C18   A    
C39   H23   S    
C43   I2    S    
C22   C47   S    
C49   H30   S    
C4    H27   S    
C32   H21   S    
C50   H41   S    
C52   H36   S    
O7    Zn1   S    
C42   C43   S    
C7    H7    S    
O4    Zn2   S    
C48   H31   S    
C28   C29   A    
C23   O6    A    
O8    Zn2   S    
C1    O1    A    
C41   H14   S    
C10   C13   A    
C5    C8    A    
C40   N2    A    
C31   C38   A    
C13   C17   A    
C32   C33   A    
C28   C30   A    
C2    C3    S    
C37   C39   A    
C35   H22   S    
C43   H20   S    
C51   H39   S    
C6    C23   S    
C26   N1    A    
C42   H1    S    
N1    Zn2   S    
C10   C11   A    
O3    Zn1   S    
C52   H37   S    
C48   C49   S    
C51   C52   S    
C34   O8    A    
C27   C28   A    
C14   C15   A    
C34   O7    A    
C49   H28   S    
C13   C14   A    
C20   C24   A    
O6    Zn2   S    
C15   C16   A    
