data_mof_unit_30150.cif
_audit_creation_date              2012-12-10T17:15:13-0500
_audit_creation_method            fapswitch 2.2
_symmetry_space_group_name_H-M    P1
_symmetry_Int_Tables_number       1
_space_group_crystal_system       triclinic
_cell_length_a                    10.188045
_cell_length_b                    10.340911
_cell_length_c                    12.839663
_cell_angle_alpha                 89.576689
_cell_angle_beta                  91.107891
_cell_angle_gamma                 93.644291
_cell_volume                      1349.69217832

loop_
_atom_site_label
_atom_site_type_symbol
_atom_type_description
_atom_site_fract_x
_atom_site_fract_y
_atom_site_fract_z
_atom_type_partial_charge
C1    C     C_R   0.448967 0.264531 0.487749 0.946867
C2    C     C_R   0.552811 0.735622 0.506909 0.838602
C3    C     C_2   0.072324 0.503301 0.520133 -0.093335
C4    C     C_2   0.930020 0.524526 0.500905 -0.064919
C5    C     C_R   0.473236 0.499472 0.698065 0.933337
C6    C     C_R   0.526393 0.502709 0.301049 0.933586
C7    C     C_R   0.543916 0.512920 0.189531 -0.158176
C8    C     C_R   0.458289 0.510802 0.807524 -0.123105
C9    C     C_R   0.401880 0.651575 0.945887 -0.016643
C10   C     C_R   0.656419 0.435383 0.040742 -0.126134
C11   C     C_R   0.397681 0.619331 0.841563 -0.217434
C12   C     C_R   0.650344 0.453862 0.147407 -0.155254
C13   C     C_R   0.527443 0.432571 0.876140 -0.135746
C14   C     C_R   0.453551 0.575844 0.123878 -0.090686
C15   C     C_R   0.554234 0.480335 0.976725 0.001311
C16   C     C_R   0.471696 0.573335 0.016181 0.045883
C17   C     C_2   0.433699 0.127140 0.461140 0.222582
C18   C     C_2   0.579768 0.876569 0.502160 0.249497
C19   C     C_2   0.534360 0.076555 0.410205 0.385003
C20   C     C_2   0.548420 0.935710 0.411925 0.346259
H1    H     H_    0.724703 0.414800 0.198059 0.208943
H2    H     H_    0.351925 0.682452 0.785578 0.189952
H3    H     H_    0.864867 0.370674 0.585172 0.181896
H4    H     H_    0.132666 0.597704 0.391141 0.187952
N1    N     N_2   0.162330 0.550370 0.457540 -0.215793
N2    N     N_2   0.837670 0.449630 0.542460 -0.224926
O1    O     O_R   0.567930 0.307680 0.508550 -0.582638
O2    O     O_R   0.432070 0.692320 0.491450 -0.564494
O3    O     O_R   0.351090 0.340020 0.481290 -0.583896
O4    O     O_R   0.648910 0.659980 0.518710 -0.620164
O5    O     O_R   0.590490 0.486480 0.665020 -0.582935
O6    O     O_R   0.409510 0.513520 0.334980 -0.604390
O7    O     O_R   0.373660 0.518820 0.637760 -0.609241
O8    O     O_R   0.626340 0.481180 0.362240 -0.574153
Zn1   Zn    Zn3+2 0.644780 0.478400 0.518200 1.016831
Zn2   Zn    Zn3+2 0.355220 0.521600 0.481800 1.035722
C21   C     C_2   0.327738 0.622285 0.162556 0.954552
O9    O     O_2   0.328250 0.709689 0.226052 -0.555743
O10   O     O_R   0.208288 0.566814 0.123351 -0.770547
H5    H     H_    0.129424 0.606273 0.154460 0.350092
C22   C     C_2   0.548145 0.293841 0.850031 0.943788
O11   O     O_2   0.556340 0.213702 0.920075 -0.595660
O12   O     O_R   0.549185 0.252093 0.746749 -0.782404
H6    H     H_    0.559420 0.155639 0.740718 0.364871
C23   C     C_2   0.350105 0.777244 0.974889 0.914493
O13   O     O_2   0.248969 0.812164 0.933602 -0.565168
O14   O     O_R   0.419855 0.858014 0.046290 -0.794910
H7    H     H_    0.375434 0.941303 0.059014 0.377697
C24   C     C_2   0.773998 0.376184 0.998546 1.003859
O15   O     O_2   0.825426 0.290950 0.047978 -0.538415
O16   O     O_R   0.829302 0.417643 0.904141 -0.728005
H8    H     H_    0.789077 0.496925 0.873631 0.307757
O17   O     O_3   0.512095 0.864291 0.324079 -0.597115
C25   C     C_3   0.619699 0.867194 0.256590 -0.176799
H9    H     H_    0.636543 0.964451 0.220129 0.218310
H10   H     H_    0.597074 0.797572 0.192795 0.222532
H11   H     H_    0.710534 0.836631 0.296736 0.128263
O18   O     O_3   0.619660 0.157591 0.351943 -0.642871
C26   C     C_3   0.750970 0.144836 0.385900 -0.220344
H12   H     H_    0.787798 0.051725 0.360457 0.129214
H13   H     H_    0.762492 0.154373 0.471972 0.193990
H14   H     H_    0.813921 0.223995 0.350180 0.197431
O19   O     O_3   0.625966 0.952285 0.586775 -0.646801
C27   C     C_3   0.639228 0.879627 0.679385 -0.225804
H15   H     H_    0.717430 0.810173 0.672501 0.197140
H16   H     H_    0.543989 0.829186 0.701362 0.137596
H17   H     H_    0.669824 0.946935 0.743466 0.207850
O20   O     O_3   0.337945 0.048672 0.509762 -0.607720
C28   C     C_3   0.232114 0.025617 0.438713 -0.207397
H18   H     H_    0.262771 0.973242 0.368653 0.192735
H19   H     H_    0.187978 0.117550 0.415455 0.171789
H20   H     H_    0.154647 0.963186 0.477284 0.222161
C29   C     C_2   0.896851 0.637091 0.436787 0.980211
O21   O     O_2   0.852487 0.621393 0.348446 -0.654545
O22   O     O_R   0.925005 0.761937 0.475490 -0.805865
H21   H     H_    0.901156 0.831841 0.424027 0.314246
C30   C     C_2   0.109214 0.431553 0.614799 0.999126
O23   O     O_2   0.098474 0.481033 0.700147 -0.573944
O24   O     O_R   0.147801 0.304868 0.607259 -0.780403
H22   H     H_    0.169156 0.265665 0.677701 0.360594

loop_
_geom_bond_atom_site_label_1
_geom_bond_atom_site_label_2
_ccdc_geom_bond_type
C6    O6    A    
C9    C23   S    
C8    C13   A    
C2    C18   S    
C29   O22   S    
C22   O11   D    
C19   C20   S    
O22   H21   S    
C24   O16   S    
C13   C22   S    
C30   O23   D    
O3    Zn2   S    
O4    Zn1   S    
O6    Zn2   S    
C9    C16   A    
C10   C15   A    
C18   O19   S    
C15   C16   A    
O7    Zn2   S    
O8    Zn1   S    
C29   O21   D    
H3    N2    S    
C28   H19   S    
C7    C14   A    
O20   C28   S    
C26   H14   S    
C5    O7    A    
C18   C20   D    
C23   O14   S    
C26   H12   S    
C22   O12   S    
C30   O24   S    
C19   O18   S    
C7    C12   A    
C25   H10   S    
C26   H13   S    
O16   H8    S    
C27   H17   S    
C3    N1    D    
H4    N1    S    
O10   H5    S    
O1    Zn1   S    
O18   C26   S    
C23   O13   D    
C12   H1    S    
O19   C27   S    
C27   H16   S    
C28   H20   S    
O12   H6    S    
C21   O9    D    
O14   H7    S    
C1    O3    A    
C9    C11   A    
C4    C29   S    
C10   C12   A    
C13   C15   A    
O5    Zn1   S    
C3    C4    S    
C3    C30   S    
C25   H9    S    
C17   O20   S    
C20   O17   S    
C5    C8    S    
C4    N2    D    
O17   C25   S    
C6    C7    S    
C11   H2    S    
C1    C17   S    
C2    O4    A    
C27   H15   S    
C21   O10   S    
C14   C21   S    
C8    C11   A    
C17   C19   D    
C14   C16   A    
C28   H18   S    
N1    Zn2   S    
O24   H22   S    
C6    O8    A    
N2    Zn1   S    
O2    Zn2   S    
C24   O15   D    
C1    O1    A    
C2    O2    A    
C10   C24   S    
C5    O5    A    
C25   H11   S    
