data_mof_unit_36152.cif
_audit_creation_date              2013-03-05T15:46:33-0500
_audit_creation_method            fapswitch 2.2
_symmetry_space_group_name_H-M    P1
_symmetry_Int_Tables_number       1
_space_group_crystal_system       triclinic
_cell_length_a                    17.391609
_cell_length_b                    24.38231
_cell_length_c                    14.962017
_cell_angle_alpha                 89.748122
_cell_angle_beta                  125.389441
_cell_angle_gamma                 90.062479
_cell_volume                      5172.28487986

loop_
_atom_site_label
_atom_site_type_symbol
_atom_site_description
_atom_site_fract_x
_atom_site_fract_y
_atom_site_fract_z
_atom_type_partial_charge
C1    C     C_R   0.352958 0.347981 0.909950 -0.141326
C2    C     C_R   0.649143 0.348780 0.092572 -0.111002
C3    C     C_R   0.853054 0.848017 0.909811 -0.140796
C4    C     C_R   0.186114 0.870924 0.092962 -0.109806
H1    H     H_    0.315158 0.334127 0.826163 0.089093
H2    H     H_    0.688446 0.336088 0.177397 0.084530
H3    H     H_    0.815101 0.834260 0.825949 0.091323
H4    H     H_    0.243668 0.865971 0.178179 0.096928
N1    N     N_R   0.394180 0.396910 0.943210 -0.038655
N2    N     N_R   0.605820 0.396910 0.056790 -0.038129
N3    N     N_R   0.894180 0.896910 0.943210 -0.040665
N4    N     N_R   0.105820 0.896910 0.056790 -0.042749
C5    C     C_R   0.443536 0.651490 0.091597 -0.116391
C6    C     C_R   0.591802 0.634248 0.910726 -0.141465
C7    C     C_R   0.907383 0.128393 0.094034 -0.118558
C8    C     C_R   0.093345 0.132969 0.910907 -0.132429
H5    H     H_    0.488287 0.664260 0.176199 0.085305
H6    H     H_    0.559938 0.649595 0.828946 0.088794
H7    H     H_    0.935246 0.132284 0.179503 0.093468
H8    H     H_    0.062616 0.147947 0.829239 0.089660
N5    N     N_R   0.450950 0.603070 0.056740 -0.040877
N6    N     N_R   0.549050 0.603070 0.943260 -0.039335
N7    N     N_R   0.950950 0.103070 0.056740 -0.042842
N8    N     N_R   0.049050 0.103070 0.943260 -0.039678
C9    C     C_R   0.546321 0.453155 0.301072 -0.139510
C10   C     C_R   0.517091 0.453455 0.749303 -0.139319
C11   C     C_R   0.048741 0.953911 0.302933 -0.133953
C12   C     C_R   0.006576 0.955439 0.735815 -0.109233
H9    H     H_    0.564391 0.410941 0.324494 0.149773
H10   H     H_    0.525643 0.410732 0.739176 0.154918
H11   H     H_    0.064575 0.911681 0.327317 0.139968
H12   H     H_    0.006321 0.914262 0.710489 0.128396
N9    N     N_R   0.525650 0.471570 0.206150 -0.050882
N10   N     N_R   0.474350 0.471570 0.793850 -0.049320
N11   N     N_R   0.025650 0.971570 0.206150 -0.050019
N12   N     N_R   0.974350 0.971570 0.793850 -0.051597
C13   C     C_R   0.234167 0.546492 0.756714 -0.137951
C14   C     C_R   0.755264 0.545545 0.301374 -0.075444
C15   C     C_R   0.732024 0.046096 0.740995 -0.139195
C16   C     C_R   0.252194 0.045743 0.302619 -0.078991
H13   H     H_    0.216134 0.588850 0.754675 0.150150
H14   H     H_    0.763976 0.587065 0.330828 0.073718
H15   H     H_    0.711132 0.087845 0.722873 0.133690
H16   H     H_    0.259730 0.087402 0.331083 0.072776
N13   N     N_R   0.319480 0.528420 0.793810 -0.042844
N14   N     N_R   0.680520 0.528420 0.206190 -0.043938
N15   N     N_R   0.819480 0.028420 0.793810 -0.040448
N16   N     N_R   0.180520 0.028420 0.206190 -0.040067
C17   C     C_R   0.546235 0.544454 0.302902 -0.132962
C18   C     C_R   0.512455 0.544903 0.742363 -0.106460
C19   C     C_R   0.050958 0.045089 0.303735 -0.157967
C20   C     C_R   0.003669 0.046689 0.734981 -0.125608
H17   H     H_    0.562584 0.586456 0.330207 0.088861
H18   H     H_    0.511524 0.586175 0.716963 0.086993
H19   H     H_    0.071404 0.086878 0.330729 0.090060
H20   H     H_    0.999188 0.088405 0.709692 0.089802
N17   N     N_R   0.525640 0.528390 0.206120 -0.043616
N18   N     N_R   0.474360 0.528390 0.793880 -0.042556
N19   N     N_R   0.025640 0.028390 0.206120 -0.043196
N20   N     N_R   0.974360 0.028390 0.793880 -0.042236
C21   C     C_R   0.230908 0.454762 0.749772 -0.094609
C22   C     C_R   0.757727 0.454145 0.301227 -0.101247
C23   C     C_R   0.730329 0.954466 0.743897 -0.102424
C24   C     C_R   0.255329 0.954492 0.303556 -0.099580
H21   H     H_    0.208154 0.412516 0.736319 0.094872
H22   H     H_    0.770754 0.412008 0.329181 0.087800
H23   H     H_    0.707979 0.912169 0.732017 0.095301
H24   H     H_    0.267942 0.912553 0.332583 0.083873
N21   N     N_R   0.319490 0.471590 0.793840 -0.043800
N22   N     N_R   0.680510 0.471590 0.206160 -0.044454
N23   N     N_R   0.819490 0.971590 0.793840 -0.044368
N24   N     N_R   0.180510 0.971590 0.206160 -0.043317
C25   C     C_R   0.354394 0.652296 0.909134 -0.129896
C26   C     C_R   0.686102 0.628841 0.093803 -0.093057
C27   C     C_R   0.819996 0.134976 0.911279 -0.142679
C28   C     C_R   0.186917 0.127954 0.093920 -0.081555
H25   H     H_    0.318513 0.666252 0.825439 0.136133
H26   H     H_    0.742847 0.633471 0.179216 0.116317
H27   H     H_    0.772027 0.151871 0.830487 0.136441
H28   H     H_    0.243584 0.132541 0.179405 0.114928
N25   N     N_R   0.394130 0.603080 0.943110 -0.045057
N26   N     N_R   0.605870 0.603080 0.056890 -0.047627
N27   N     N_R   0.894130 0.103080 0.943110 -0.039798
N28   N     N_R   0.105870 0.103080 0.056890 -0.049802
C29   C     C_R   0.443481 0.348694 0.092590 -0.126492
C30   C     C_R   0.556386 0.347833 0.910033 -0.157526
C31   C     C_R   0.943656 0.848661 0.092526 -0.127708
C32   C     C_R   0.090689 0.866059 0.909725 -0.117144
H29   H     H_    0.489440 0.335854 0.177201 0.081727
H30   H     H_    0.509958 0.333797 0.826472 0.094975
H31   H     H_    0.989446 0.835886 0.177240 0.086198
H32   H     H_    0.057627 0.851801 0.827366 0.103253
N29   N     N_R   0.450990 0.396900 0.056840 -0.039539
N30   N     N_R   0.549010 0.396900 0.943160 -0.037838
N31   N     N_R   0.950990 0.896900 0.056840 -0.041036
N32   N     N_R   0.049010 0.896900 0.943160 -0.042316
C33   C     C_R   0.383972 0.316491 0.002109 0.054134
C34   C     C_R   0.617857 0.316514 0.002077 0.052191
C35   C     C_R   0.884250 0.816497 0.001911 0.054156
C36   C     C_R   0.179772 0.852738 0.001308 0.043680
C37   C     C_R   0.384738 0.683757 0.000376 0.048998
C38   C     C_R   0.680922 0.646968 0.002951 0.047349
C39   C     C_R   0.822350 0.146991 0.003397 0.043693
C40   C     C_R   0.182645 0.145369 0.003232 0.043906
C41   C     C_R   0.560799 0.497805 0.365640 0.120310
C42   C     C_R   0.546744 0.499016 0.721148 0.104784
C43   C     C_R   0.066721 0.999292 0.367346 0.131793
C44   C     C_R   0.033405 0.002049 0.707006 0.116309
C45   C     C_R   0.175931 0.501579 0.725554 0.047842
C46   C     C_R   0.805764 0.500112 0.362344 0.094855
C47   C     C_R   0.674474 0.001313 0.711632 0.050396
C48   C     C_R   0.301065 0.000569 0.364734 0.093394
Ni1   Ni    Ni4+2 0.434860 0.434850 0.869700 0.215767
Ni2   Ni    Ni4+2 0.565140 0.434850 0.130300 0.209170
Ni3   Ni    Ni4+2 0.934860 0.934850 0.869700 0.219424
Ni4   Ni    Ni4+2 0.065140 0.934850 0.130300 0.211400
Ni5   Ni    Ni4+2 0.565130 0.565140 0.130240 0.210907
Ni6   Ni    Ni4+2 0.434870 0.565140 0.869760 0.230035
Ni7   Ni    Ni4+2 0.065130 0.065140 0.130240 0.214727
Ni8   Ni    Ni4+2 0.934870 0.065140 0.869760 0.239310
C49   C     C_R   0.028947 0.554076 0.605521 0.050237
C50   C     C_R   0.939113 0.551823 0.510462 -0.029458
C51   C     C_R   0.528499 0.054364 0.594046 0.025039
C52   C     C_R   0.436834 0.052183 0.503706 -0.018257
C53   C     C_R   0.073764 0.505341 0.662552 0.058471
C54   C     C_R   0.888695 0.502850 0.474549 0.090929
C55   C     C_R   0.573121 0.005540 0.650886 0.063852
C56   C     C_R   0.384751 0.004027 0.474777 0.087606
C57   C     C_R   0.018471 0.458067 0.638605 -0.157260
C58   C     C_R   0.925369 0.456899 0.544468 -0.164265
C59   C     C_R   0.517743 0.959415 0.634667 -0.155507
C60   C     C_R   0.422508 0.958796 0.546246 -0.168744
H33   H     H_    0.049693 0.420513 0.684787 0.119925
H34   H     H_    0.886396 0.418827 0.521467 0.122250
H35   H     H_    0.549551 0.922267 0.682182 0.118417
H36   H     H_    0.382305 0.921433 0.527621 0.123617
C61   C     C_3   0.960290 0.591738 0.450651 0.045567
C62   C     C_3   0.057861 0.596561 0.556371 0.046604
C63   C     C_3   0.454179 0.088873 0.435948 0.053248
C64   C     C_3   0.553672 0.094528 0.537263 0.048414
H37   H     H_    0.917274 0.629933 0.424013 0.104142
H38   H     H_    0.115669 0.583532 0.549668 0.128968
H39   H     H_    0.412069 0.127440 0.407737 0.101214
H40   H     H_    0.608771 0.079809 0.527089 0.129053
C65   C     C_R   0.286457 0.763977 0.900323 -0.152600
C66   C     C_R   0.833233 0.695472 0.104138 -0.098108
C67   C     C_R   0.666467 0.191707 0.905589 -0.140225
C68   C     C_R   0.334862 0.194210 0.104600 -0.094411
H41   H     H_    0.264457 0.747607 0.821905 0.156127
H42   H     H_    0.848544 0.683465 0.182385 0.144827
H43   H     H_    0.646217 0.175115 0.827944 0.171587
H44   H     H_    0.350684 0.181604 0.182829 0.139060
C69   C     C_R   0.613094 0.233714 0.905041 -0.161548
C70   C     C_R   0.387873 0.236038 0.104175 -0.188335
C71   C     C_R   0.231884 0.804558 0.900690 -0.162501
C72   C     C_R   0.887498 0.736379 0.103716 -0.183791
H45   H     H_    0.554265 0.248923 0.826631 0.135690
H46   H     H_    0.442619 0.253512 0.182097 0.125815
H47   H     H_    0.171057 0.818334 0.822430 0.157630
H48   H     H_    0.942786 0.753581 0.181621 0.123429
C73   C     C_R   0.644155 0.259860 0.003729 0.122972
C74   C     C_R   0.360265 0.259592 0.004208 0.134285
C75   C     C_R   0.251226 0.822634 0.000496 0.116482
C76   C     C_R   0.860238 0.759723 0.003793 0.136265
C77   C     C_R   0.715350 0.235816 0.103646 -0.152446
C78   C     C_R   0.294696 0.232576 0.905845 -0.163228
C79   C     C_R   0.335632 0.807306 0.099199 -0.152659
C80   C     C_R   0.793967 0.732997 0.905343 -0.159941
H49   H     H_    0.737122 0.252612 0.181700 0.109969
H50   H     H_    0.276352 0.247468 0.827611 0.110629
H51   H     H_    0.356030 0.823256 0.177349 0.119360
H52   H     H_    0.775841 0.747725 0.827104 0.111795
C81   C     C_R   0.389651 0.765955 0.098847 -0.167390
C82   C     C_R   0.740946 0.690930 0.905837 -0.167021
C83   C     C_R   0.769015 0.194127 0.104103 -0.156264
C84   C     C_R   0.242674 0.189840 0.906352 -0.168304
H53   H     H_    0.449176 0.750798 0.176839 0.111397
H54   H     H_    0.684709 0.673683 0.828214 0.107487
H55   H     H_    0.829637 0.180174 0.182424 0.110689
H56   H     H_    0.186846 0.172421 0.828699 0.110094
C85   C     C_R   0.358646 0.740255 0.999772 0.128498
C86   C     C_R   0.754070 0.676465 0.004509 0.140961
C87   C     C_R   0.750459 0.176294 0.004588 0.115735
C88   C     C_R   0.256013 0.174928 0.004975 0.145662
C89   C     C_R   0.601492 0.548183 0.623562 -0.207645
C90   C     C_R   0.601370 0.546909 0.531383 -0.220146
C91   C     C_R   0.079312 0.053252 0.603202 -0.227924
C92   C     C_R   0.091063 0.051552 0.520383 -0.227204
H57   H     H_    0.596438 0.587713 0.652193 0.139227
H58   H     H_    0.598212 0.585838 0.494798 0.143545
H59   H     H_    0.061938 0.092321 0.620995 0.141185
H60   H     H_    0.082725 0.089980 0.479702 0.143508
C93   C     C_R   0.592849 0.496687 0.480866 -0.077917
C94   C     C_R   0.595554 0.499105 0.667684 -0.104887
C95   C     C_R   0.096898 0.000696 0.480824 -0.056866
C96   C     C_R   0.079686 0.004397 0.651879 -0.075424
C97   C     C_R   0.606005 0.447138 0.538752 0.440275
C98   C     C_R   0.618276 0.449651 0.639648 0.379812
C99   C     C_R   0.116004 0.952634 0.544237 0.403499
C100  C     C_R   0.117331 0.957051 0.638318 0.379158
N33   N     N_R   0.962233 0.565831 0.363601 0.248526
O1    O     O_R   0.918932 0.588943 0.267639 -0.423511
O2    O     O_R   0.007358 0.519964 0.381017 -0.391136
N34   N     N_R   0.074257 0.650507 0.607154 0.232250
O3    O     O_R   0.144534 0.680271 0.626761 -0.456997
O4    O     O_R   0.018597 0.669622 0.631427 -0.415549
N35   N     N_R   0.451119 0.059480 0.348470 0.247181
O5    O     O_R   0.407525 0.081093 0.251153 -0.422638
O6    O     O_R   0.493478 0.012421 0.367334 -0.395326
N36   N     N_R   0.572272 0.149771 0.583699 0.226539
O7    O     O_R   0.641628 0.178209 0.597357 -0.441731
O8    O     O_R   0.517971 0.171799 0.607371 -0.441231
O9    O     O_3   0.612873 0.396697 0.501830 -0.657924
C101  C     C_3   0.529757 0.365889 0.462020 0.161132
H61   H     H_    0.468563 0.385224 0.386174 0.083593
H62   H     H_    0.512604 0.362686 0.522879 0.151074
C102  C     C_3   0.543900 0.307811 0.435762 -0.222189
H63   H     H_    0.560206 0.309641 0.374131 0.170895
H64   H     H_    0.604717 0.288417 0.511614 0.253754
C103  C     C_3   0.456356 0.272505 0.391303 -0.957087
H65   H     H_    0.439145 0.269725 0.452063 0.289399
H66   H     H_    0.469791 0.230460 0.374988 0.281777
H67   H     H_    0.395213 0.290216 0.313488 0.244369
O10   O     O_3   0.637517 0.401470 0.698530 -0.674553
C104  C     C_3   0.722041 0.406749 0.804478 0.199179
H68   H     H_    0.712934 0.436512 0.853871 0.117431
H69   H     H_    0.781012 0.420532 0.800206 0.104753
C105  C     C_3   0.747311 0.350635 0.860907 -0.254602
H70   H     H_    0.684947 0.333353 0.853839 0.212435
H71   H     H_    0.766774 0.322216 0.819089 0.212978
C106  C     C_3   0.828869 0.354304 0.981971 -0.979546
H72   H     H_    0.892570 0.371114 0.991410 0.269830
H73   H     H_    0.845461 0.312710 0.019408 0.272926
H74   H     H_    0.809271 0.380991 0.025874 0.277760
O11   O     O_3   0.138505 0.903290 0.518769 -0.668487
C107  C     C_3   0.067466 0.864001 0.489890 0.162806
H75   H     H_    0.997305 0.879099 0.419416 0.083226
H76   H     H_    0.062832 0.854687 0.559389 0.159597
C108  C     C_3   0.090676 0.810396 0.457525 -0.275516
H77   H     H_    0.099370 0.818179 0.390622 0.180854
H78   H     H_    0.158209 0.793668 0.529402 0.229016
C109  C     C_3   0.012810 0.767991 0.418864 -0.926118
H79   H     H_    0.002964 0.759322 0.484584 0.301862
H80   H     H_    0.032201 0.729218 0.397762 0.283385
H81   H     H_    0.945245 0.783268 0.344974 0.236749
O12   O     O_3   0.152370 0.914913 0.714259 -0.694358
C110  C     C_3   0.245365 0.928041 0.803946 0.203997
H82   H     H_    0.254121 0.914007 0.879912 0.139247
H83   H     H_    0.261160 0.972950 0.815438 0.091057
C111  C     C_3   0.316703 0.898401 0.792300 -0.276549
H84   H     H_    0.296689 0.854556 0.772412 0.219593
H85   H     H_    0.315885 0.917201 0.723962 0.212987
C112  C     C_3   0.416270 0.901912 0.897480 -0.986690
H86   H     H_    0.438082 0.945449 0.918630 0.274748
H87   H     H_    0.466295 0.880772 0.885708 0.268740
H88   H     H_    0.419396 0.881668 0.966210 0.278490

loop_
_geom_bond_atom_site_label_1
_geom_bond_atom_site_label_2
_geom_bond_distance
_ccdc_geom_bond_type
N13   Ni6   1.866514 S    
C28   C40   1.380277 A    
C32   N32   1.328786 A    
N2    N30   1.386013 A    
C50   C54   1.393206 A    
C31   H31   1.079673 S    
C91   C96   1.391514 A    
N33   O1    1.299083 A    
C6    H6    1.074874 S    
C90   C93   1.403823 A    
C98   O10   1.385090 S    
C108  H77   1.111064 S    
C3    N3    1.331118 A    
C100  O12   1.380966 S    
C89   C94   1.396487 A    
C96   C100  1.400016 A    
C21   C45   1.395007 A    
O10   C104  1.411627 S    
C82   C86   1.400484 A    
C105  H71   1.111671 S    
C15   C47   1.370960 A    
N34   O4    1.302245 A    
C64   N36   1.465809 S    
C51   C52   1.369628 A    
C42   C94   1.465270 S    
C2    H2    1.079791 S    
O9    C101  1.418761 S    
N22   Ni2   1.866516 S    
N10   Ni1   1.858416 S    
C80   C82   1.381367 A    
N21   Ni1   1.863823 S    
N9    Ni2   1.863938 S    
C18   H18   1.070944 S    
C27   H27   1.074802 S    
N7    N27   1.386010 A    
C13   H13   1.074837 S    
C1    H1    1.080058 S    
N6    N26   1.386015 A    
N17   Ni5   1.859137 S    
C75   C79   1.400316 A    
C26   N26   1.324803 A    
C70   H46   1.079380 S    
C59   H35   1.082469 S    
N7    Ni7   1.863769 S    
C112  H86   1.110827 S    
C101  H62   1.112733 S    
C60   H36   1.082406 S    
C6    C38   1.388545 A    
C54   C58   1.405302 A    
C111  H85   1.111221 S    
C65   C85   1.398227 A    
N18   Ni6   1.864659 S    
C104  C105  1.529478 S    
C62   H38   1.113337 S    
C107  H75   1.115159 S    
C22   N22   1.338297 A    
C9    H9    1.072837 S    
C84   C88   1.400852 A    
C25   N25   1.328747 A    
C105  H70   1.109806 S    
N5    Ni5   1.863769 S    
C20   N20   1.323569 A    
C66   H42   1.078567 S    
C62   N34   1.464851 S    
C10   N10   1.330050 A    
C32   H32   1.073578 S    
C92   C95   1.405149 A    
C78   C84   1.382112 A    
C68   C70   1.376539 A    
C31   N31   1.325806 A    
C109  H80   1.110760 S    
O11   C107  1.418992 S    
C33   C74   1.452257 S    
N32   Ni3   1.863648 S    
C81   H53   1.080654 S    
C44   C96   1.449101 S    
C30   N30   1.331385 A    
C4    N4    1.329642 A    
C82   H54   1.081659 S    
C95   C99   1.417652 A    
N2    Ni2   1.864844 S    
C4    H4    1.078355 S    
C26   C38   1.379919 A    
C111  C112  1.525430 S    
C7    N7    1.326828 A    
C81   C85   1.400856 A    
C99   C100  1.399039 A    
C8    N8    1.336723 A    
C74   C78   1.401160 A    
C27   C39   1.387536 A    
N33   O2    1.302690 A    
C14   C46   1.376928 A    
C10   C42   1.386995 A    
C58   H34   1.082048 S    
C63   H39   1.112983 S    
N16   N24   1.385646 A    
C30   C34   1.381989 A    
C56   C60   1.403144 A    
C43   C95   1.458674 S    
C103  H65   1.111418 S    
N30   Ni1   1.863648 S    
C8    C40   1.389021 A    
C109  H79   1.110849 S    
N16   Ni7   1.863820 S    
C31   C35   1.380502 A    
C13   C45   1.377497 A    
C110  H83   1.118174 S    
C77   H49   1.080092 S    
N11   N19   1.385401 A    
C23   H23   1.080265 S    
C28   N28   1.325956 A    
N8    Ni8   1.866416 S    
C109  H81   1.111044 S    
N14   N22   1.385646 A    
C22   H22   1.081100 S    
C71   H47   1.079620 S    
N35   O5    1.299277 A    
C18   N18   1.335425 A    
C68   H44   1.078956 S    
C79   C81   1.380960 A    
C12   H12   1.073776 S    
C1    N1    1.332293 A    
C16   C48   1.370194 A    
N1    N29   1.386011 A    
C30   H30   1.079856 S    
C1    C33   1.382710 A    
C112  H87   1.110378 S    
C23   C47   1.391335 A    
C66   C86   1.399959 A    
C101  H61   1.113642 S    
C79   H51   1.080539 S    
C71   C75   1.400350 A    
C111  H84   1.111097 S    
C15   H15   1.061129 S    
C52   C63   1.504905 S    
N13   N21   1.385643 A    
N25   Ni6   1.863653 S    
C101  C102  1.528968 S    
C17   N17   1.335105 A    
C35   C76   1.450302 S    
N14   Ni5   1.863820 S    
C69   C73   1.400774 A    
C102  C103  1.526676 S    
C38   C86   1.449149 S    
N27   Ni8   1.863653 S    
C90   H58   1.079029 S    
C7    H7    1.078109 S    
C49   C53   1.403714 A    
C99   O11   1.386950 S    
C11   N11   1.328496 A    
C84   H56   1.081581 S    
C51   C55   1.404041 A    
C29   N29   1.326545 A    
C22   C46   1.382904 A    
C11   C43   1.382192 A    
N31   Ni4   1.866295 S    
C8    H8    1.073406 S    
C53   C57   1.408484 A    
C104  H68   1.112830 S    
C61   H37   1.112974 S    
N23   Ni3   1.863823 S    
N11   Ni4   1.863938 S    
C108  H78   1.112008 S    
C73   C77   1.400572 A    
C29   H29   1.079159 S    
N15   N23   1.385643 A    
C49   C50   1.376065 A    
C32   C36   1.386251 A    
C63   N35   1.468665 S    
C46   C54   1.448897 S    
C57   H33   1.082435 S    
C15   N15   1.315268 A    
C76   C80   1.401140 A    
C45   C53   1.453875 S    
N15   Ni8   1.866514 S    
C40   C88   1.451841 S    
N5    N25   1.386010 A    
C78   H50   1.080629 S    
N36   O8    1.302299 A    
C4    C36   1.385406 A    
C11   H11   1.072429 S    
C47   C55   1.444893 S    
C80   H52   1.080635 S    
C39   C87   1.449803 S    
C19   N19   1.323918 A    
C13   N13   1.322529 A    
C59   C60   1.398522 A    
C2    N2    1.326894 A    
C24   H24   1.081039 S    
C18   C42   1.389947 A    
C34   C73   1.451182 S    
N3    Ni3   1.859272 S    
N10   N18   1.385405 A    
C57   C58   1.401838 A    
C110  C111  1.531478 S    
C67   C87   1.399727 A    
C16   N16   1.317174 A    
N6    Ni6   1.866416 S    
O12   C110  1.416962 S    
C97   C98   1.398505 A    
N19   Ni7   1.859137 S    
C41   C93   1.473164 S    
C103  H67   1.111476 S    
C83   C87   1.399638 A    
C91   H59   1.079642 S    
C70   C74   1.399534 A    
C17   C41   1.398166 A    
C28   H28   1.077356 S    
C50   C61   1.502320 S    
C23   N23   1.340313 A    
N12   N20   1.385405 A    
C49   C62   1.512340 S    
C108  C109  1.527220 S    
C112  H88   1.111253 S    
C83   H55   1.080173 S    
C63   C64   1.508038 S    
C89   H57   1.080578 S    
C72   H48   1.079066 S    
N9    N17   1.385401 A    
C77   C83   1.378036 A    
C61   C62   1.512501 S    
N24   Ni4   1.866516 S    
C3    H3    1.080053 S    
N26   Ni5   1.858087 S    
C107  C108  1.529315 S    
C52   C56   1.390869 A    
C103  H66   1.110802 S    
C92   H60   1.078185 S    
C21   N21   1.341991 A    
C6    N6    1.335062 A    
C64   H40   1.113737 S    
C102  H63   1.111398 S    
N1    Ni1   1.859272 S    
C91   C92   1.368490 A    
N8    N28   1.386015 A    
C5    N5    1.328922 A    
C72   C76   1.398594 A    
C68   C88   1.400210 A    
C24   C48   1.377117 A    
C27   N27   1.334802 A    
C89   C90   1.378441 A    
C94   C98   1.408388 A    
C61   N33   1.467906 S    
C2    C34   1.379621 A    
C12   C44   1.386572 A    
N28   Ni7   1.858087 S    
C93   C97   1.422628 A    
C67   H43   1.080396 S    
C51   C64   1.514942 S    
C25   C37   1.380018 A    
C104  H69   1.115296 S    
C107  H76   1.110996 S    
N20   Ni8   1.864659 S    
C36   C75   1.450092 S    
C19   H19   1.078991 S    
N29   Ni2   1.866295 S    
C24   N24   1.337935 A    
C21   H21   1.080180 S    
C69   H45   1.080458 S    
C102  H64   1.111902 S    
C67   C69   1.379807 A    
C37   C85   1.449201 S    
C55   C59   1.407347 A    
C9    C41   1.381594 A    
C14   N14   1.323678 A    
C17   H17   1.079350 S    
C29   C33   1.380244 A    
C106  H74   1.111122 S    
C106  H73   1.110834 S    
C5    H5    1.080200 S    
C65   C71   1.374045 A    
C14   H14   1.080863 S    
C3    C35   1.381854 A    
C16   H16   1.081269 S    
C97   O9    1.383756 S    
N3    N31   1.386011 A    
N34   O3    1.300457 A    
C12   N12   1.337887 A    
C19   C43   1.384555 A    
N36   O7    1.300554 A    
C26   H26   1.077076 S    
C9    N9    1.323339 A    
C106  H72   1.110681 S    
N35   O6    1.302721 A    
C25   H25   1.079308 S    
N4    N32   1.386013 A    
C20   C44   1.372330 A    
C66   C72   1.374891 A    
C7    C39   1.380167 A    
N12   Ni3   1.858416 S    
C5    C37   1.379577 A    
C105  C106  1.525191 S    
C65   H41   1.079881 S    
C20   H20   1.070699 S    
C110  H82   1.108308 S    
C48   C56   1.435837 S    
N4    Ni4   1.864844 S    
C10   H10   1.076118 S    
