data_mof_unit_52157.cif
_audit_creation_date              2013-03-05T15:40:15-0500
_audit_creation_method            fapswitch 2.2
_symmetry_space_group_name_H-M    P1
_symmetry_Int_Tables_number       1
_space_group_crystal_system       triclinic
_cell_length_a                    28.257527
_cell_length_b                    18.439106
_cell_length_c                    17.078934
_cell_angle_alpha                 89.999976
_cell_angle_beta                  60.758863
_cell_angle_gamma                 89.999976
_cell_volume                      7764.89945408

loop_
_atom_site_label
_atom_site_type_symbol
_atom_site_description
_atom_site_fract_x
_atom_site_fract_y
_atom_site_fract_z
_atom_type_partial_charge
O1    O     O_R   0.746490 0.236330 0.638080 -0.617640
O2    O     O_R   0.253510 0.763670 0.361920 -0.618556
O3    O     O_R   0.253510 0.236330 0.361920 -0.617637
O4    O     O_R   0.746490 0.763670 0.638080 -0.618559
O5    O     O_R   0.246490 0.736330 0.638080 -0.618554
O6    O     O_R   0.753510 0.263670 0.361920 -0.617641
O7    O     O_R   0.753510 0.736330 0.361920 -0.618560
O8    O     O_R   0.246490 0.263670 0.638080 -0.617636
O9    O     O_R   0.674170 0.186160 0.516270 -0.611676
O10   O     O_R   0.325830 0.813840 0.483730 -0.612371
O11   O     O_R   0.325830 0.186160 0.483730 -0.611671
O12   O     O_R   0.674170 0.813840 0.516270 -0.612377
O13   O     O_R   0.174170 0.686160 0.516270 -0.612374
O14   O     O_R   0.825830 0.313840 0.483730 -0.611675
O15   O     O_R   0.825830 0.686160 0.483730 -0.612376
O16   O     O_R   0.174170 0.313840 0.516270 -0.611672
O17   O     O_R   0.739960 0.127620 0.525000 -0.620335
O18   O     O_R   0.260040 0.872380 0.475000 -0.619811
O19   O     O_R   0.260040 0.127620 0.475000 -0.620335
O20   O     O_R   0.739960 0.872380 0.525000 -0.619811
O21   O     O_R   0.239960 0.627620 0.525000 -0.619811
O22   O     O_R   0.760040 0.372380 0.475000 -0.620335
O23   O     O_R   0.760040 0.627620 0.475000 -0.619810
O24   O     O_R   0.239960 0.372380 0.525000 -0.620335
O25   O     O_R   0.680700 0.294870 0.629350 -0.620368
O26   O     O_R   0.319300 0.705130 0.370650 -0.620303
O27   O     O_R   0.319300 0.294870 0.370650 -0.620370
O28   O     O_R   0.680700 0.705130 0.629350 -0.620300
O29   O     O_R   0.180700 0.794870 0.629350 -0.620303
O30   O     O_R   0.819300 0.205130 0.370650 -0.620368
O31   O     O_R   0.819300 0.794870 0.370650 -0.620301
O32   O     O_R   0.180700 0.205130 0.629350 -0.620370
C1    C     C_R   0.701895 0.268843 0.675793 0.865394
C2    C     C_R   0.298174 0.731295 0.324209 0.864967
C3    C     C_R   0.298105 0.268843 0.324207 0.865393
C4    C     C_R   0.701826 0.731296 0.675791 0.864968
C5    C     C_R   0.201826 0.768704 0.675791 0.864967
C6    C     C_R   0.798105 0.231157 0.324207 0.865394
C7    C     C_R   0.798174 0.768704 0.324209 0.864968
C8    C     C_R   0.201895 0.231157 0.675793 0.865393
C9    C     C_R   0.691380 0.129229 0.534228 0.869703
C10   C     C_R   0.308620 0.870771 0.465774 0.869600
C11   C     C_R   0.308620 0.129229 0.465772 0.869702
C12   C     C_R   0.691380 0.870771 0.534227 0.869600
C13   C     C_R   0.191380 0.629229 0.534227 0.869600
C14   C     C_R   0.808620 0.370771 0.465772 0.869703
C15   C     C_R   0.808620 0.629229 0.465773 0.869601
C16   C     C_R   0.191380 0.370771 0.534228 0.869702
Zn1   Zn    Zn3+2 0.792340 0.208750 0.507670 1.076561
Zn2   Zn    Zn3+2 0.207660 0.791250 0.492330 1.075014
Zn3   Zn    Zn3+2 0.207660 0.208750 0.492330 1.076564
Zn4   Zn    Zn3+2 0.792340 0.791250 0.507670 1.075011
Zn5   Zn    Zn3+2 0.292340 0.708750 0.507670 1.075016
Zn6   Zn    Zn3+2 0.707660 0.291250 0.492330 1.076560
Zn7   Zn    Zn3+2 0.707660 0.708750 0.492330 1.075009
Zn8   Zn    Zn3+2 0.292340 0.291250 0.507670 1.076565
C17   C     C_R   0.539262 0.132097 0.528317 -0.079234
C18   C     C_R   0.460733 0.867900 0.471697 -0.080989
C19   C     C_R   0.460735 0.132097 0.471693 -0.079232
C20   C     C_R   0.539263 0.867900 0.528315 -0.080991
C21   C     C_R   0.039266 0.632100 0.528306 -0.080990
C22   C     C_R   0.960737 0.367903 0.471686 -0.079233
C23   C     C_R   0.960736 0.632100 0.471689 -0.080992
C24   C     C_R   0.039264 0.367903 0.528310 -0.079232
C25   C     C_R   0.519274 0.198605 0.514914 0.218022
C26   C     C_R   0.480720 0.801393 0.485104 0.214373
C27   C     C_R   0.480721 0.198605 0.485100 0.218014
C28   C     C_R   0.519274 0.801393 0.514913 0.214385
C29   C     C_R   0.019278 0.698606 0.514901 0.214377
C30   C     C_R   0.980724 0.301395 0.485090 0.218021
C31   C     C_R   0.980724 0.698606 0.485091 0.214383
C32   C     C_R   0.019278 0.301395 0.514904 0.218015
C33   C     C_R   0.479751 0.066126 0.487254 -0.010197
C34   C     C_R   0.520246 0.933870 0.512755 -0.010923
C35   C     C_R   0.520246 0.066127 0.512755 -0.010196
C36   C     C_R   0.479751 0.933870 0.487255 -0.010924
C37   C     C_R   0.979753 0.566129 0.487248 -0.010923
C38   C     C_R   0.020248 0.433873 0.512749 -0.010197
C39   C     C_R   0.020248 0.566129 0.512748 -0.010924
C40   C     C_R   0.979753 0.433873 0.487248 -0.010196
C41   C     C_R   0.959055 0.500001 0.475270 0.030992
C42   C     C_R   0.040946 0.500002 0.524727 0.030992
C43   C     C_R   0.459053 0.999998 0.475276 0.030991
C44   C     C_R   0.540944 0.999998 0.524732 0.030992
C45   C     C_R   0.893523 0.434044 0.447424 0.034277
C46   C     C_R   0.106478 0.565959 0.552572 0.034140
C47   C     C_R   0.106478 0.434044 0.552575 0.034278
C48   C     C_R   0.893522 0.565959 0.447425 0.034139
C49   C     C_R   0.393521 0.934041 0.447429 0.034139
C50   C     C_R   0.606477 0.065956 0.552578 0.034278
C51   C     C_R   0.606478 0.934041 0.552576 0.034139
C52   C     C_R   0.393522 0.065956 0.447427 0.034278
C53   C     C_R   0.843278 0.434946 0.445754 -0.117413
C54   C     C_R   0.156722 0.565056 0.554245 -0.117515
C55   C     C_R   0.156722 0.434946 0.554245 -0.117412
C56   C     C_R   0.843277 0.565056 0.445755 -0.117516
C57   C     C_R   0.343277 0.934944 0.445756 -0.117515
C58   C     C_R   0.656722 0.065054 0.554247 -0.117413
C59   C     C_R   0.656722 0.934944 0.554246 -0.117516
C60   C     C_R   0.343278 0.065054 0.445755 -0.117412
C61   C     C_R   0.820688 0.500001 0.440962 -0.286282
C62   C     C_R   0.179312 0.500001 0.559038 -0.286283
C63   C     C_R   0.320688 0.999999 0.440962 -0.286284
C64   C     C_R   0.679312 0.999999 0.559038 -0.286281
H1    H     H_    0.782277 0.500000 0.441088 0.199901
H2    H     H_    0.217722 0.500000 0.558912 0.199901
H3    H     H_    0.282278 0.999999 0.441087 0.199901
H4    H     H_    0.717723 0.999999 0.558911 0.199901
C65   C     C_R   0.915537 0.500002 0.456179 0.067933
C66   C     C_R   0.084463 0.500002 0.543819 0.067932
C67   C     C_R   0.415536 0.999998 0.456183 0.067931
C68   C     C_R   0.584462 0.999998 0.543823 0.067934
C69   C     C_R   0.077953 0.369764 0.557151 -0.148277
C70   C     C_R   0.922045 0.630240 0.442852 -0.150920
C71   C     C_R   0.922047 0.369764 0.442847 -0.148280
C72   C     C_R   0.077955 0.630240 0.557145 -0.150917
C73   C     C_R   0.577954 0.869760 0.557151 -0.150921
C74   C     C_R   0.422046 0.130236 0.442851 -0.148276
C75   C     C_R   0.422044 0.869760 0.442857 -0.150914
C76   C     C_R   0.577952 0.130236 0.557156 -0.148282
H5    H     H_    0.084479 0.320814 0.584918 0.205906
H6    H     H_    0.915519 0.679192 0.415089 0.206126
H7    H     H_    0.915521 0.320814 0.415081 0.205907
H8    H     H_    0.084481 0.679192 0.584908 0.206126
H9    H     H_    0.584481 0.820808 0.584913 0.206127
H10   H     H_    0.415521 0.179186 0.415084 0.205906
H11   H     H_    0.415519 0.820808 0.415093 0.206126
H12   H     H_    0.584479 0.179186 0.584921 0.205906
H13   H     H_    0.709938 0.372179 0.015362 0.139082
H14   H     H_    0.350514 0.751753 0.916437 0.142920
H15   H     H_    0.290065 0.372177 0.984631 0.139083
H16   H     H_    0.649486 0.751746 0.083565 0.142915
H17   H     H_    0.149486 0.748247 0.083563 0.142918
H18   H     H_    0.790062 0.127821 0.984638 0.139082
H19   H     H_    0.850514 0.748254 0.916435 0.142916
H20   H     H_    0.209934 0.127823 0.015368 0.139083
C77   C     C_R   0.720912 0.266163 0.953604 0.106798
C78   C     C_R   0.279366 0.735589 0.046415 0.100553
C79   C     C_R   0.279089 0.266163 0.046395 0.106796
C80   C     C_R   0.720634 0.735589 0.953585 0.100557
C81   C     C_R   0.220634 0.764411 0.953584 0.100553
C82   C     C_R   0.779088 0.233837 0.046396 0.106798
C83   C     C_R   0.779366 0.764411 0.046415 0.100556
C84   C     C_R   0.220911 0.233837 0.953604 0.106797
C85   C     C_R   0.744733 0.197674 0.945429 -0.160430
C86   C     C_R   0.222274 0.735497 0.092038 -0.159632
C87   C     C_R   0.255264 0.197675 0.054575 -0.160428
C88   C     C_R   0.777726 0.735501 0.907961 -0.159634
C89   C     C_R   0.277726 0.764503 0.907961 -0.159631
C90   C     C_R   0.755266 0.302326 0.054571 -0.160431
C91   C     C_R   0.722274 0.764498 0.092039 -0.159635
C92   C     C_R   0.244736 0.302325 0.945425 -0.160428
H21   H     H_    0.740509 0.155881 0.904729 0.138783
H22   H     H_    0.199783 0.722940 0.162939 0.148120
H23   H     H_    0.259487 0.155883 0.095277 0.138784
H24   H     H_    0.800217 0.722947 0.837059 0.148118
H25   H     H_    0.300217 0.777060 0.837061 0.148121
H26   H     H_    0.759491 0.344119 0.095271 0.138783
H27   H     H_    0.699783 0.777053 0.162941 0.148117
H28   H     H_    0.240513 0.344117 0.904723 0.138784
C93   C     C_R   0.773265 0.181682 0.991297 -0.158371
C94   C     C_R   0.193367 0.749701 0.046323 -0.165422
C95   C     C_R   0.226732 0.181683 0.008706 -0.158370
C96   C     C_R   0.806633 0.749705 0.953675 -0.165424
C97   C     C_R   0.306633 0.750299 0.953676 -0.165422
C98   C     C_R   0.726735 0.318318 0.008703 -0.158372
C99   C     C_R   0.693367 0.750295 0.046325 -0.165425
C100  C     C_R   0.273267 0.318317 0.991294 -0.158369
C101  C     C_R   0.643436 0.326735 0.945951 -0.195138
C102  C     C_R   0.356513 0.673779 0.054027 -0.196956
C103  C     C_R   0.356564 0.326735 0.054048 -0.195136
C104  C     C_R   0.643487 0.673778 0.945972 -0.196958
C105  C     C_R   0.143487 0.826221 0.945973 -0.196956
C106  C     C_R   0.856564 0.173265 0.054049 -0.195139
C107  C     C_R   0.856513 0.826221 0.054027 -0.196957
C108  C     C_R   0.143435 0.173265 0.945951 -0.195137
H29   H     H_    0.628925 0.346025 0.013791 0.158147
H30   H     H_    0.369754 0.652572 0.987356 0.157879
H31   H     H_    0.371076 0.346024 0.986208 0.158148
H32   H     H_    0.630246 0.652571 0.012643 0.157876
H33   H     H_    0.130246 0.847428 0.012643 0.157878
H34   H     H_    0.871075 0.153974 0.986209 0.158148
H35   H     H_    0.869754 0.847429 0.987357 0.157876
H36   H     H_    0.128924 0.153976 0.013792 0.158148
C109  C     C_R   0.616433 0.347108 0.898324 -0.068562
C110  C     C_R   0.383559 0.653092 0.101598 -0.068806
C111  C     C_R   0.383567 0.347108 0.101676 -0.068563
C112  C     C_R   0.616441 0.653092 0.898402 -0.068806
C113  C     C_R   0.116441 0.846908 0.898402 -0.068806
C114  C     C_R   0.883567 0.152891 0.101676 -0.068562
C115  C     C_R   0.883559 0.846908 0.101598 -0.068806
C116  C     C_R   0.116433 0.152892 0.898324 -0.068562
C117  C     C_R   0.633171 0.322031 0.813197 -0.253641
C118  C     C_R   0.366889 0.678087 0.186749 -0.254611
C119  C     C_R   0.366829 0.322031 0.186803 -0.253641
C120  C     C_R   0.633111 0.678087 0.813251 -0.254609
C121  C     C_R   0.133111 0.821913 0.813251 -0.254610
C122  C     C_R   0.866829 0.177969 0.186803 -0.253641
C123  C     C_R   0.866889 0.821913 0.186749 -0.254610
C124  C     C_R   0.133171 0.177969 0.813197 -0.253641
H37   H     H_    0.612058 0.338444 0.777418 0.186807
H38   H     H_    0.387935 0.661444 0.222553 0.186476
H39   H     H_    0.387942 0.338444 0.222582 0.186805
H40   H     H_    0.612065 0.661444 0.777446 0.186479
H41   H     H_    0.112065 0.838556 0.777447 0.186477
H42   H     H_    0.887942 0.161556 0.222582 0.186806
H43   H     H_    0.887935 0.838556 0.222553 0.186478
H44   H     H_    0.112058 0.161556 0.777418 0.186805
C125  C     C_R   0.679597 0.281502 0.770893 -0.056076
C126  C     C_R   0.320527 0.718719 0.229138 -0.055051
C127  C     C_R   0.320403 0.281502 0.229107 -0.056076
C128  C     C_R   0.679473 0.718720 0.770862 -0.055051
C129  C     C_R   0.179473 0.781281 0.770862 -0.055051
C130  C     C_R   0.820403 0.218498 0.229107 -0.056076
C131  C     C_R   0.820527 0.781280 0.229138 -0.055050
C132  C     C_R   0.179597 0.218498 0.770893 -0.056076
C133  C     C_R   0.707829 0.260374 0.816917 -0.185433
C134  C     C_R   0.292438 0.740355 0.183155 -0.186788
C135  C     C_R   0.292171 0.260374 0.183083 -0.185433
C136  C     C_R   0.707562 0.740356 0.816845 -0.186789
C137  C     C_R   0.207562 0.759644 0.816844 -0.186787
C138  C     C_R   0.792171 0.239626 0.183083 -0.185434
C139  C     C_R   0.792438 0.759644 0.183155 -0.186790
C140  C     C_R   0.207829 0.239625 0.816917 -0.185432
H45   H     H_    0.745049 0.229439 0.782616 0.166271
H46   H     H_    0.256111 0.773102 0.216877 0.163611
H47   H     H_    0.254950 0.229440 0.217384 0.166272
H48   H     H_    0.743888 0.773103 0.783123 0.163608
H49   H     H_    0.243889 0.726898 0.783123 0.163611
H50   H     H_    0.754951 0.270561 0.217384 0.166271
H51   H     H_    0.756112 0.726896 0.216877 0.163607
H52   H     H_    0.245050 0.270560 0.782616 0.166272
C141  C     C_R   0.689912 0.283290 0.905478 0.067181
C142  C     C_R   0.310346 0.717916 0.094466 0.067996
C143  C     C_R   0.310088 0.283290 0.094522 0.067182
C144  C     C_R   0.689654 0.717916 0.905534 0.067997
C145  C     C_R   0.189654 0.782084 0.905534 0.067995
C146  C     C_R   0.810088 0.216710 0.094522 0.067182
C147  C     C_R   0.810346 0.782084 0.094466 0.067998
C148  C     C_R   0.189912 0.216710 0.905478 0.067182
O33   O     O_R   0.062020 0.072840 0.007170 -0.623580
O34   O     O_R   0.937980 0.927160 0.992830 -0.623501
O35   O     O_R   0.937980 0.072840 0.992830 -0.623581
O36   O     O_R   0.062020 0.927160 0.007170 -0.623499
O37   O     O_R   0.562020 0.572840 0.007170 -0.623501
O38   O     O_R   0.437980 0.427160 0.992830 -0.623579
O39   O     O_R   0.437980 0.572840 0.992830 -0.623498
O40   O     O_R   0.562020 0.427160 0.007170 -0.623582
O41   O     O_R   0.947860 0.073950 0.109290 -0.616017
O42   O     O_R   0.052140 0.926050 0.890710 -0.616367
O43   O     O_R   0.052140 0.073950 0.890710 -0.616018
O44   O     O_R   0.947860 0.926050 0.109290 -0.616367
O45   O     O_R   0.447860 0.573950 0.109290 -0.616368
O46   O     O_R   0.552140 0.426050 0.890710 -0.616017
O47   O     O_R   0.552140 0.573950 0.890710 -0.616366
O48   O     O_R   0.447860 0.426050 0.109290 -0.616019
C149  C     C_R   0.073931 0.099734 0.934016 0.900161
C150  C     C_R   0.925942 0.900367 0.066075 0.899382
C151  C     C_R   0.926068 0.099734 0.065984 0.900160
C152  C     C_R   0.074058 0.900366 0.933925 0.899383
C153  C     C_R   0.574058 0.599633 0.933925 0.899382
C154  C     C_R   0.426069 0.400265 0.065984 0.900161
C155  C     C_R   0.425942 0.599633 0.066074 0.899383
C156  C     C_R   0.573931 0.400266 0.934016 0.900160
Zn9   Zn    Zn3+2 0.505960 0.500000 0.080520 1.002953
Zn10  Zn    Zn3+2 0.494040 0.500000 0.919480 1.002966
Zn11  Zn    Zn3+2 0.005960 0.000000 0.080520 1.002963
Zn12  Zn    Zn3+2 0.994040 0.000000 0.919480 1.002956
N1    N     N_R   0.038737 0.233554 0.529520 0.218970
O49   O     O_R   0.004744 0.185723 0.583977 -0.328394
O50   O     O_R   0.089954 0.217172 0.483104 -0.377028
N2    N     N_R   0.961264 0.766447 0.470478 0.218978
O51   O     O_R   0.995255 0.814261 0.415982 -0.331768
O52   O     O_R   0.910052 0.782844 0.516930 -0.379602
N3    N     N_R   0.961266 0.233554 0.470471 0.218975
O53   O     O_R   0.995260 0.185728 0.416005 -0.328401
O54   O     O_R   0.910051 0.217168 0.516890 -0.377025
N4    N     N_R   0.038740 0.766447 0.529510 0.218974
O55   O     O_R   0.004750 0.814267 0.583996 -0.331759
O56   O     O_R   0.089953 0.782839 0.483061 -0.379606
N5    N     N_R   0.538733 0.733553 0.529529 0.218980
O57   O     O_R   0.504741 0.685742 0.584029 -0.331771
O58   O     O_R   0.589944 0.717154 0.483076 -0.379601
N6    N     N_R   0.461261 0.266446 0.470486 0.218968
O59   O     O_R   0.495253 0.314280 0.416033 -0.328389
O60   O     O_R   0.410043 0.282826 0.516900 -0.377030
N7    N     N_R   0.461257 0.733552 0.470497 0.218971
O61   O     O_R   0.495247 0.685729 0.416017 -0.331752
O62   O     O_R   0.410043 0.717164 0.516943 -0.379609
N8    N     N_R   0.538731 0.266446 0.529535 0.218977
O63   O     O_R   0.504737 0.314269 0.584004 -0.328404
O64   O     O_R   0.589947 0.282834 0.483114 -0.377024

loop_
_geom_bond_atom_site_label_1
_geom_bond_atom_site_label_2
_geom_bond_distance
_ccdc_geom_bond_type
O4    C4    1.252954 A    
O48   C154  1.263805 A    
C122  H42   1.084946 S    
O7    Zn7   2.019583 S    
O31   Zn4   2.078323 S    
O8    Zn8   2.019583 S    
O44   C150  1.264604 A    
O18   Zn2   2.021954 S    
C44   C68   1.417808 A    
C102  H30   1.083157 S    
C78   C97   1.408419 A    
N6    O59   1.301057 A    
C46   C66   1.406892 A    
O5    C5    1.252955 A    
C12   C59   1.465973 S    
C119  H39   1.084948 S    
C117  H37   1.084946 S    
C22   C30   1.414796 A    
C130  C138  1.420800 A    
O39   Zn10  1.985930 S    
N2    O51   1.301053 A    
N7    O62   1.301296 A    
C120  H40   1.084939 S    
C87   H23   1.082746 S    
C19   C33   1.406641 A    
C55   C62   1.379904 A    
O2    C2    1.252955 A    
C83   C91   1.407727 A    
C124  H44   1.084948 S    
O34   C150  1.228380 A    
C6    C130  1.445588 S    
C36   C43   1.409830 A    
C77   C98   1.410229 A    
C104  C144  1.400353 A    
C71   H7    1.076576 S    
C83   C147  1.499297 S    
C10   C57   1.465972 S    
C133  C141  1.405164 A    
C128  C136  1.419469 A    
O27   C3    1.297037 A    
C137  C145  1.404568 A    
O24   C16   1.303385 A    
C132  C140  1.420799 A    
C38   C42   1.409833 A    
O44   Zn11  2.002008 S    
C86   H22   1.082573 S    
C20   C73   1.401817 A    
C57   C63   1.379906 A    
C4    C128  1.444722 S    
C48   C65   1.406892 A    
O30   Zn1   2.078323 S    
C23   C31   1.414775 A    
N1    O50   1.301291 A    
C79   C143  1.498694 S    
C122  C130  1.369504 A    
C107  H35   1.083157 S    
C113  C121  1.371128 A    
C108  H36   1.083026 S    
O46   Zn10  2.002007 S    
O37   Zn9   1.985931 S    
C52   C67   1.406895 A    
O23   Zn7   2.021953 S    
O47   Zn10  2.002007 S    
O24   Zn8   2.021953 S    
O9    C9    1.256294 A    
C7    C131  1.444723 S    
C125  C133  1.420800 A    
O12   C12   1.256288 A    
C139  C147  1.404567 A    
O13   C13   1.256286 A    
H14   C97   1.082717 S    
C85   C93   1.402752 A    
C91   C99   1.403025 A    
C18   C75   1.401819 A    
C116  C124  1.370927 A    
C47   C69   1.413895 A    
C120  C128  1.369355 A    
C54   C62   1.379907 A    
O7    C7    1.252954 A    
C63   H3    1.084330 S    
O9    Zn6   2.107050 S    
O8    C8    1.252707 A    
C33   C43   1.409833 A    
O39   C155  1.228380 A    
O11   Zn8   2.107050 S    
C91   H27   1.082571 S    
O40   C156  1.228554 A    
C25   N8    1.436526 S    
O36   C152  1.228380 A    
O16   Zn3   2.107050 S    
O37   C153  1.228381 A    
C106  H34   1.083025 S    
C82   C93   1.410228 A    
C18   C36   1.406633 A    
O22   Zn6   2.021954 S    
C47   C66   1.406895 A    
C103  C143  1.399070 A    
O30   C6    1.297036 A    
C101  C141  1.399070 A    
H13   C98   1.082502 S    
C123  C131  1.369355 A    
C22   C40   1.406640 A    
O18   C10   1.303384 A    
C105  C145  1.400353 A    
C35   C44   1.409832 A    
C90   C98   1.402754 A    
C21   C39   1.406633 A    
C84   C148  1.498696 S    
C115  C150  1.436723 S    
C52   C74   1.413895 A    
C2    C126  1.444723 S    
C19   C27   1.414796 A    
C45   C53   1.434038 A    
C90   H26   1.082746 S    
O47   C153  1.264604 A    
C47   C55   1.434037 A    
O6    C6    1.252707 A    
O34   Zn12  1.985932 S    
O45   C155  1.264606 A    
C80   C99   1.408420 A    
O46   C156  1.263807 A    
C81   C94   1.408419 A    
C103  H31   1.083026 S    
C101  H29   1.083028 S    
O20   C12   1.303383 A    
O21   C13   1.303383 A    
O23   C15   1.303384 A    
C88   C96   1.403026 A    
C135  C143  1.405164 A    
C89   C97   1.403027 A    
O17   Zn1   2.021954 S    
O40   Zn9   1.985932 S    
C112  C153  1.436723 S    
C50   C76   1.413895 A    
C51   C68   1.406892 A    
C118  C126  1.369353 A    
O3    C3    1.252707 A    
C8    C132  1.445588 S    
C140  C148  1.405165 A    
C20   C28   1.414777 A    
O25   Zn6   2.078323 S    
C17   C76   1.401830 A    
C19   C74   1.401827 A    
C32   N1    1.436527 S    
O29   C5    1.296474 A    
C24   C38   1.406641 A    
C110  C118  1.371127 A    
C34   C44   1.409829 A    
C39   C42   1.409828 A    
N5    O58   1.301289 A    
C127  C135  1.420801 A    
H18   C93   1.082505 S    
O36   Zn11  1.985932 S    
C17   C35   1.406640 A    
N6    O60   1.301294 A    
O42   Zn12  2.002007 S    
C22   C71   1.401828 A    
C84   C92   1.405576 A    
C87   C95   1.402753 A    
C78   C86   1.407728 A    
C107  C147  1.400351 A    
C29   N4    1.436503 S    
C124  C132  1.369500 A    
C134  H46   1.082781 S    
O12   Zn7   2.107050 S    
O13   Zn2   2.107050 S    
C69   H5    1.076578 S    
C138  H50   1.082953 S    
N2    O52   1.301290 A    
N4    O55   1.301056 A    
C51   C59   1.434035 A    
O38   Zn10  1.985932 S    
C73   H9    1.076578 S    
C133  H45   1.082954 S    
C75   H11   1.076578 S    
O48   Zn9   2.002008 S    
C48   C56   1.434035 A    
O10   C10   1.256286 A    
C33   C35   1.409240 A    
C121  H41   1.084941 S    
N3    O53   1.301051 A    
H16   C99   1.082719 S    
H17   C94   1.082720 S    
O14   C14   1.256292 A    
C86   C94   1.403025 A    
C77   C85   1.405579 A    
O6    Zn6   2.019583 S    
C45   C65   1.406895 A    
C118  H38   1.084941 S    
C136  H48   1.082780 S    
N8    O63   1.301050 A    
O10   Zn5   2.107050 S    
C129  C137  1.419468 A    
C49   C75   1.413904 A    
O19   C11   1.303386 A    
C31   N2    1.436500 S    
C25   C27   1.409988 A    
C15   C56   1.465972 S    
C51   C73   1.413904 A    
C30   N3    1.436525 S    
O15   C15   1.256287 A    
O38   C154  1.228554 A    
C111  C119  1.370927 A    
C104  H32   1.083155 S    
C37   C39   1.409236 A    
C59   C64   1.379906 A    
C105  H33   1.083155 S    
C56   C61   1.379905 A    
C80   C88   1.407725 A    
C5    C129  1.444723 S    
C92   C100  1.402752 A    
C139  H51   1.082780 S    
O1    C1    1.252707 A    
C45   C71   1.413896 A    
O35   Zn12  1.985930 S    
O3    Zn3   2.019583 S    
O27   Zn8   2.078323 S    
C60   C63   1.379904 A    
O32   Zn3   2.078323 S    
N7    O61   1.301059 A    
C37   C41   1.409829 A    
C102  C110  1.412909 A    
C21   C72   1.401818 A    
O35   C151  1.228553 A    
O15   Zn4   2.107050 S    
C11   C60   1.465993 S    
C34   C36   1.409234 A    
C106  C114  1.411171 A    
O22   C14   1.303387 A    
C41   C65   1.417809 A    
C84   C95   1.410226 A    
C43   C67   1.417808 A    
C78   C142  1.499297 S    
C53   C61   1.379903 A    
C83   C96   1.408419 A    
C64   H4    1.084334 S    
C121  C129  1.369353 A    
C114  C122  1.370927 A    
C82   C146  1.498692 S    
C72   H8    1.076578 S    
C113  C152  1.436722 S    
C114  C151  1.435082 S    
C17   C25   1.414793 A    
C27   N6    1.436527 S    
C76   H12   1.076578 S    
C109  C156  1.435082 S    
C110  C155  1.436720 S    
C111  C154  1.435082 S    
C82   C90   1.405581 A    
C106  C146  1.399071 A    
O43   C149  1.263805 A    
O41   Zn11  2.002006 S    
C38   C40   1.409239 A    
C48   C70   1.413904 A    
C79   C100  1.410226 A    
O28   C4    1.296474 A    
C137  H49   1.082781 S    
C80   C144  1.499297 S    
C88   H24   1.082572 S    
C135  H47   1.082954 S    
C89   H25   1.082572 S    
O43   Zn12  2.002007 S    
H20   C95   1.082500 S    
C26   C28   1.409958 A    
C92   H28   1.082746 S    
C16   C55   1.465991 S    
H19   C96   1.082719 S    
C50   C68   1.406897 A    
O16   C16   1.256295 A    
C81   C89   1.407728 A    
C102  C142  1.400351 A    
C79   C87   1.405577 A    
O33   C149  1.228555 A    
O4    Zn4   2.019583 S    
C42   C66   1.417810 A    
O5    Zn5   2.019583 S    
C26   N7    1.436505 S    
N3    O54   1.301290 A    
C115  C123  1.371128 A    
C140  H52   1.082954 S    
C107  C115  1.412905 A    
C108  C116  1.411170 A    
O14   Zn1   2.107050 S    
N1    O49   1.301055 A    
C46   C72   1.413905 A    
C20   C34   1.406633 A    
C29   C31   1.409961 A    
C3    C127  1.445588 S    
C46   C54   1.434034 A    
C23   C70   1.401818 A    
C1    C125  1.445588 S    
O26   C2    1.296474 A    
O11   C11   1.256294 A    
O2    Zn2   2.019583 S    
C85   H21   1.082749 S    
O32   C8    1.297037 A    
O41   C151  1.263807 A    
C13   C54   1.465975 S    
O42   C152  1.264606 A    
O28   Zn7   2.078323 S    
C18   C26   1.414779 A    
O29   Zn2   2.078323 S    
C61   H1    1.084332 S    
C116  C149  1.435082 S    
C134  C142  1.404566 A    
O45   Zn9   2.002006 S    
N5    O57   1.301053 A    
C138  C146  1.405165 A    
C49   C57   1.434037 A    
C119  C127  1.369500 A    
C117  C125  1.369504 A    
C123  H43   1.084940 S    
H15   C100  1.082500 S    
N4    O56   1.301291 A    
C77   C141  1.498692 S    
O26   Zn5   2.078323 S    
C52   C60   1.434037 A    
C28   N5    1.436501 S    
C23   C37   1.406635 A    
C21   C29   1.414776 A    
C81   C145  1.499292 S    
C24   C69   1.401828 A    
C108  C148  1.399071 A    
C136  C144  1.404567 A    
C109  C117  1.370927 A    
C40   C41   1.409831 A    
C131  C139  1.419468 A    
C49   C67   1.406892 A    
C126  C134  1.419469 A    
C103  C111  1.411170 A    
C101  C109  1.411170 A    
O20   Zn4   2.021953 S    
O21   Zn5   2.021954 S    
O33   Zn11  1.985931 S    
C14   C53   1.465991 S    
C104  C112  1.412907 A    
C58   C64   1.379903 A    
C105  C113  1.412906 A    
O31   C7    1.296474 A    
C62   H2    1.084330 S    
N8    O64   1.301290 A    
C24   C32   1.414797 A    
O17   C9    1.303386 A    
C70   H6    1.076578 S    
O19   Zn3   2.021953 S    
C112  C120  1.371128 A    
O25   C1    1.297036 A    
C9    C58   1.465991 S    
C30   C32   1.409987 A    
C74   H10   1.076576 S    
O1    Zn1   2.019583 S    
C50   C58   1.434035 A    
