data_mof_unit_58224.cif
_audit_creation_date              2013-03-05T15:39:48-0500
_audit_creation_method            fapswitch 2.2
_symmetry_space_group_name_H-M    P1
_symmetry_Int_Tables_number       1
_space_group_crystal_system       triclinic
_cell_length_a                    11.968918
_cell_length_b                    12.610555
_cell_length_c                    7.572281
_cell_angle_alpha                 89.267005
_cell_angle_beta                  109.052658
_cell_angle_gamma                 90.120077
_cell_volume                      1080.21858905

loop_
_atom_site_label
_atom_site_type_symbol
_atom_site_description
_atom_site_fract_x
_atom_site_fract_y
_atom_site_fract_z
_atom_type_partial_charge
O1    O     O_R   0.398880 0.887420 0.621600 -0.594685
O2    O     O_R   0.601120 0.112580 0.378400 -0.594685
O3    O     O_R   0.601120 0.887420 0.378400 -0.588460
O4    O     O_R   0.398880 0.112580 0.621600 -0.588460
O5    O     O_R   0.898880 0.387420 0.621600 -0.594685
O6    O     O_R   0.101120 0.612580 0.378400 -0.594685
O7    O     O_R   0.101120 0.387420 0.378400 -0.588458
O8    O     O_R   0.898880 0.612580 0.621600 -0.588459
O9    O     O_R   0.369080 0.887420 0.305440 -0.596759
O10   O     O_R   0.630920 0.112580 0.694560 -0.596759
O11   O     O_R   0.630920 0.887420 0.694560 -0.586733
O12   O     O_R   0.369080 0.112580 0.305440 -0.586734
O13   O     O_R   0.869080 0.387420 0.305440 -0.596760
O14   O     O_R   0.130920 0.612580 0.694560 -0.596760
O15   O     O_R   0.130920 0.387420 0.694560 -0.586733
O16   O     O_R   0.869080 0.612580 0.305440 -0.586733
C1    C     C_R   0.346398 0.853768 0.452832 0.871287
C2    C     C_R   0.653602 0.146232 0.547168 0.871286
C3    C     C_R   0.652566 0.852396 0.547870 0.865443
C4    C     C_R   0.347434 0.147604 0.452130 0.865444
C5    C     C_R   0.846398 0.353768 0.452832 0.871287
C6    C     C_R   0.153602 0.646232 0.547168 0.871287
C7    C     C_R   0.152566 0.352396 0.547870 0.865443
C8    C     C_R   0.847434 0.647604 0.452130 0.865444
Cu1   Cu    Cu3+1 0.517640 0.000000 0.687200 0.936603
Cu2   Cu    Cu3+1 0.482360 1.000000 0.312800 0.936603
Cu3   Cu    Cu3+1 0.017640 0.500000 0.687200 0.936604
Cu4   Cu    Cu3+1 0.982360 0.500000 0.312800 0.936603
C9    C     C_2   0.262094 0.230940 0.426379 -0.370957
C10   C     C_2   0.737906 0.769060 0.573621 -0.370957
C11   C     C_2   0.744063 0.224151 0.573317 -0.372392
C12   C     C_2   0.255937 0.775849 0.426683 -0.372391
C13   C     C_2   0.762094 0.730940 0.426379 -0.370957
C14   C     C_2   0.237906 0.269060 0.573621 -0.370958
C15   C     C_2   0.244063 0.724151 0.573317 -0.372392
C16   C     C_2   0.755937 0.275849 0.426683 -0.372391
N1    N     N_2   0.455760 1.000000 0.031460 -0.056366
N2    N     N_2   0.544240 1.000000 0.968540 -0.056366
N3    N     N_2   0.955760 0.500000 0.031460 -0.056367
N4    N     N_2   0.044240 0.500000 0.968540 -0.056366
H1    H     H_    0.719098 0.761113 0.285305 0.180303
H2    H     H_    0.280902 0.238887 0.714695 0.180303
H3    H     H_    0.302885 0.737092 0.714213 0.162874
H4    H     H_    0.697115 0.262908 0.285787 0.162874
H5    H     H_    0.219098 0.261113 0.285305 0.180303
H6    H     H_    0.780902 0.738887 0.714695 0.180303
H7    H     H_    0.802886 0.237091 0.714213 0.162873
H8    H     H_    0.197114 0.762908 0.285787 0.162873
C17   C     C_3   0.341869 0.961851 0.917770 -0.359886
H9    H     H_    0.308453 0.003085 0.781867 0.187590
H10   H     H_    0.344847 0.874707 0.906809 0.166295
H11   H     H_    0.276644 0.979688 0.988892 0.155844
C18   C     C_3   0.658131 0.038149 0.082230 -0.359886
H12   H     H_    0.691547 0.996915 0.218133 0.187590
H13   H     H_    0.723356 0.020312 0.011108 0.155844
H14   H     H_    0.655153 0.125293 0.093191 0.166295
C19   C     C_3   0.841870 0.461850 0.917771 -0.359888
H15   H     H_    0.808451 0.503085 0.781870 0.187587
H16   H     H_    0.844850 0.374707 0.906805 0.166297
H17   H     H_    0.776645 0.479682 0.988895 0.155846
C20   C     C_3   0.158130 0.538150 0.082229 -0.359889
H18   H     H_    0.191549 0.496915 0.218130 0.187587
H19   H     H_    0.223354 0.520318 0.011105 0.155846
H20   H     H_    0.155150 0.625292 0.093195 0.166297

loop_
_geom_bond_atom_site_label_1
_geom_bond_atom_site_label_2
_geom_bond_distance
_ccdc_geom_bond_type
O2    Cu2   1.957383 S    
O16   Cu4   1.952859 S    
C20   H20   1.104627 S    
O13   Cu4   1.949762 S    
O3    C3    1.300683 A    
N1    N2    1.295344 D    
Cu1   N2    2.048680 S    
O2    C2    1.302502 A    
C15   H3    1.083588 S    
O15   Cu3   1.952858 S    
C8    C13   1.433519 S    
C10   C13   1.335318 D    
Cu3   N4    2.048680 S    
C7    C14   1.433519 S    
C13   H1    1.087328 S    
O12   C4    1.302664 A    
O15   C7    1.302665 A    
O4    Cu1   1.952481 S    
O13   C5    1.297945 A    
Cu2   N1    2.048679 S    
C5    C16   1.427426 S    
C11   H7    1.083588 S    
C18   H12   1.099024 S    
O1    Cu1   1.957385 S    
C6    C15   1.427427 S    
C12   H8    1.083588 S    
N3    C19   1.439595 S    
O11   C3    1.302665 A    
C19   H15   1.099021 S    
C20   H18   1.099021 S    
N2    C18   1.439599 S    
O10   C2    1.297946 A    
O7    C7    1.300683 A    
O10   Cu1   1.949760 S    
O9    C1    1.297945 A    
O8    C8    1.300683 A    
O9    Cu2   1.949762 S    
O7    Cu4   1.952481 S    
C4    C9    1.433519 S    
C18   H13   1.108343 S    
O14   C6    1.297946 A    
O14   Cu3   1.949760 S    
C19   H16   1.104629 S    
C16   H4    1.083588 S    
O11   Cu1   1.952858 S    
O4    C4    1.300683 A    
C12   C15   1.327491 D    
N3    N4    1.295344 D    
N1    C17   1.439600 S    
O16   C8    1.302664 A    
C17   H9    1.099024 S    
C18   H14   1.104640 S    
C9    H5    1.087328 S    
Cu3   Cu4   2.726591 S    
C20   H19   1.108332 S    
C1    C12   1.427427 S    
C11   C16   1.327491 D    
O8    Cu3   1.952481 S    
C19   H17   1.108332 S    
C2    C11   1.427427 S    
Cu4   N3    2.048679 S    
Cu1   Cu2   2.726591 S    
O5    Cu3   1.957385 S    
C3    C10   1.433519 S    
O1    C1    1.302502 A    
C9    C14   1.335318 D    
C10   H6    1.087328 S    
O3    Cu2   1.952481 S    
O6    Cu4   1.957383 S    
N4    C20   1.439595 S    
C17   H11   1.108343 S    
O12   Cu2   1.952859 S    
C14   H2    1.087328 S    
C17   H10   1.104640 S    
O5    C5    1.302503 A    
O6    C6    1.302503 A    
