data_mof_unit_5027.cif
_audit_creation_date              2012-12-10T17:59:18-0500
_audit_creation_method            fapswitch 2.2
_symmetry_space_group_name_H-M    P1
_symmetry_Int_Tables_number       1
_space_group_crystal_system       triclinic
_cell_length_a                    10.884036
_cell_length_b                    9.499533
_cell_length_c                    10.788116
_cell_angle_alpha                 90.203024
_cell_angle_beta                  88.435236
_cell_angle_gamma                 89.698064
_cell_volume                      1114.97946303

loop_
_atom_site_label
_atom_site_type_symbol
_atom_type_description
_atom_site_fract_x
_atom_site_fract_y
_atom_site_fract_z
_atom_type_partial_charge
C1    C     C_R   0.261573 0.500578 0.499908 0.781878
C2    C     C_3   0.546942 0.644429 0.927071 -0.394653
C3    C     C_R   0.061742 0.382537 0.456749 0.143709
C4    C     C_R   0.058822 0.620825 0.549918 0.133115
C5    C     C_R   0.934582 0.380558 0.468546 -0.224161
C6    C     C_R   0.931003 0.617181 0.550439 -0.227284
C7    C     C_R   0.869723 0.498482 0.510174 -0.089354
C8    C     C_R   0.126576 0.501955 0.501427 -0.098476
C9    C     C_R   0.442161 0.074389 0.409744 -0.030776
C10   C     C_R   0.441457 0.925527 0.410177 -0.040538
C11   C     C_R   0.559028 0.925532 0.589624 -0.027711
C12   C     C_R   0.558905 0.074450 0.589707 -0.033070
C13   C     C_R   0.505903 0.499870 0.259498 0.770061
C14   C     C_R   0.737046 0.499597 0.506454 0.806813
C15   C     C_R   0.499097 0.500290 0.740169 0.767995
C16   C     C_3   0.375051 0.458105 0.075474 -0.033319
C17   C     C_3   0.604093 0.391654 0.063686 -0.009619
C18   C     C_3   0.370646 0.474134 0.932322 -0.394618
C19   C     C_3   0.585493 0.380368 0.922041 -0.437966
C20   C     C_3   0.538739 0.648908 0.069428 -0.376490
C21   C     C_3   0.506792 0.500352 0.120932 0.096300
C22   C     C_3   0.500785 0.500321 0.877603 0.113711
Cu1   Cu    Cu3+1 0.500020 0.640660 0.500000 0.920936
Cu2   Cu    Cu3+1 0.500020 0.359340 0.500000 0.919386
H1    H     H_    0.606766 0.869436 0.661066 0.111973
H2    H     H_    0.606554 0.130498 0.661230 0.116560
H3    H     H_    0.361884 0.344653 0.097974 0.136686
H4    H     H_    0.585591 0.286016 0.104428 0.138306
H5    H     H_    0.330253 0.377742 0.891285 0.151303
H6    H     H_    0.543667 0.276444 0.901169 0.155101
H7    H     H_    0.311218 0.564372 0.907347 0.174531
H8    H     H_    0.674126 0.383069 0.867826 0.154035
H9    H     H_    0.467992 0.727409 0.099702 0.160570
H10   H     H_    0.626923 0.687198 0.106316 0.172210
H11   H     H_    0.490601 0.732576 0.890868 0.173079
H12   H     H_    0.643577 0.661770 0.894569 0.157690
H13   H     H_    0.885427 0.288644 0.437161 0.163030
H14   H     H_    0.878113 0.706833 0.584942 0.144103
H15   H     H_    0.395669 0.130343 0.337460 0.118305
H16   H     H_    0.393784 0.869501 0.338649 0.111745
N1    N     N_R   0.500030 0.852070 0.500030 -0.150033
N2    N     N_R   0.500030 0.147930 0.500030 -0.154022
O1    O     O_R   0.319660 0.618740 0.499990 -0.581546
O2    O     O_R   0.319660 0.381260 0.499990 -0.572629
O3    O     O_R   0.499990 0.618790 0.317690 -0.592943
O4    O     O_R   0.499990 0.381210 0.317690 -0.601917
O5    O     O_R   0.680370 0.618830 0.500010 -0.584004
O6    O     O_R   0.680370 0.381170 0.500010 -0.588346
O7    O     O_R   0.500030 0.618780 0.682310 -0.595786
O8    O     O_R   0.500030 0.381220 0.682310 -0.589968
C23   C     C_3   0.266791 0.539953 0.140314 -0.385216
C24   C     C_3   0.141066 0.483110 0.105505 -0.888193
H17   H     H_    0.123209 0.501696 0.006103 0.255252
H18   H     H_    0.135229 0.368592 0.124597 0.241972
H19   H     H_    0.068621 0.538520 0.161543 0.248278
H20   H     H_    0.272313 0.531026 0.242306 0.194039
H21   H     H_    0.270406 0.653525 0.116723 0.206064
C25   C     C_3   0.742415 0.423913 0.082562 -0.415183
C26   C     C_3   0.780181 0.427732 0.216273 -0.846050
H22   H     H_    0.742110 0.335658 0.266908 0.267800
H23   H     H_    0.881800 0.423127 0.219610 0.235875
H24   H     H_    0.749411 0.528120 0.259650 0.251139
H25   H     H_    0.797830 0.338788 0.036588 0.204118
H26   H     H_    0.770273 0.523720 0.036824 0.215504
C27   C     C_3   0.119954 0.258171 0.387836 -0.383866
C28   C     C_3   0.134332 0.131583 0.473315 -0.813862
H27   H     H_    0.196142 0.156594 0.550395 0.274118
H28   H     H_    0.043488 0.099533 0.512900 0.234446
H29   H     H_    0.173648 0.041487 0.419517 0.216868
H30   H     H_    0.060025 0.226417 0.310751 0.179736
H31   H     H_    0.208198 0.284979 0.340448 0.208319
C29   C     C_3   0.115447 0.753490 0.603364 -0.365586
C30   C     C_3   0.172018 0.726034 0.728931 -0.819924
H32   H     H_    0.244944 0.644854 0.721114 0.253581
H33   H     H_    0.213072 0.824559 0.764364 0.232957
H34   H     H_    0.100243 0.689925 0.796593 0.233138
H35   H     H_    0.182308 0.801820 0.537252 0.221762
H36   H     H_    0.044587 0.837031 0.618518 0.179016

loop_
_geom_bond_atom_site_label_1
_geom_bond_atom_site_label_2
_ccdc_geom_bond_type
C2    H11   S    
C28   H28   S    
C16   C21   S    
Cu1   O3    S    
C5    H13   S    
C1    C8    S    
Cu2   N2    S    
C30   H32   S    
C16   C23   S    
C4    C8    A    
C9    N2    A    
C13   O4    A    
Cu1   O7    S    
C28   H29   S    
C11   H1    S    
C27   H30   S    
C9    H15   S    
Cu1   O1    S    
C10   H16   S    
C23   H20   S    
C15   O8    A    
C29   H36   S    
C1    O1    A    
C7    C14   S    
C2    C22   S    
C12   N2    A    
Cu1   Cu2   S    
C6    H14   S    
C23   H21   S    
C9    C10   A    
C24   H19   S    
C17   C25   S    
C20   H10   S    
C16   H3    S    
C28   H27   S    
C26   H22   S    
C10   N1    A    
Cu2   O8    S    
C30   H33   S    
C3    C27   S    
C19   H8    S    
C24   H18   S    
C15   C22   S    
C25   H26   S    
C26   H23   S    
Cu1   O5    S    
C2    C20   S    
C23   C24   S    
Cu2   O6    S    
C19   C22   S    
C4    C6    A    
C3    C8    A    
C5    C7    A    
C14   O6    A    
C25   C26   S    
C27   H31   S    
C17   C21   S    
C12   H2    S    
C29   H35   S    
C1    O2    A    
C13   C21   S    
C18   H5    S    
C6    C7    A    
C20   H9    S    
Cu2   O2    S    
C30   H34   S    
C4    C29   S    
C24   H17   S    
C2    H12   S    
C25   H25   S    
C26   H24   S    
C18   C22   S    
C17   H4    S    
C29   C30   S    
C3    C5    A    
C11   C12   A    
C14   O5    A    
Cu1   N1    S    
Cu2   O4    S    
C13   O3    A    
C17   C19   S    
C11   N1    A    
C15   O7    A    
C20   C21   S    
C16   C18   S    
C27   C28   S    
C18   H7    S    
C19   H6    S    
