data_mof_unit_31045.cif
_audit_creation_date              2012-12-10T18:03:57-0500
_audit_creation_method            fapswitch 2.2
_symmetry_space_group_name_H-M    P1
_symmetry_Int_Tables_number       1
_space_group_crystal_system       triclinic
_cell_length_a                    10.916925
_cell_length_b                    9.657102
_cell_length_c                    10.949868
_cell_angle_alpha                 91.458183
_cell_angle_beta                  96.547224
_cell_angle_gamma                 90.349098
_cell_volume                      1146.45207126

loop_
_atom_site_label
_atom_site_type_symbol
_atom_type_description
_atom_site_fract_x
_atom_site_fract_y
_atom_site_fract_z
_atom_type_partial_charge
C1    C     C_R   0.263147 0.500567 0.508970 0.851127
C2    C     C_R   0.736352 0.500470 0.489320 0.854001
C3    C     C_R   0.419803 0.072278 0.418691 0.032685
C4    C     C_R   0.581502 0.079016 0.579963 0.038523
C5    C     C_R   0.425415 0.924091 0.412151 -0.004409
C6    C     C_R   0.576591 0.930929 0.586538 0.014206
C7    C     C_R   0.504418 0.497722 0.263164 0.867816
C8    C     C_R   0.493008 0.500091 0.736853 0.865945
C9    C     C_R   0.490269 0.616204 0.067823 0.076296
C10   C     C_R   0.480028 0.618061 0.940468 0.058098
C11   C     C_R   0.502474 0.492286 0.129373 -0.235430
C12   C     C_R   0.477900 0.496008 0.869132 -0.217261
C13   C     C_R   0.500757 0.366834 0.059296 0.276424
C14   C     C_R   0.471570 0.368667 0.931127 0.283623
C15   C     C_3   0.566129 0.737197 0.942515 -0.338050
C16   C     C_3   0.582447 0.732085 0.080294 -0.347693
C17   C     C_R   0.060993 0.378867 0.519310 -0.103681
C18   C     C_R   0.935961 0.378164 0.471435 -0.105448
C19   C     C_R   0.870268 0.503424 0.475834 -0.185051
C20   C     C_R   0.128420 0.503941 0.518781 -0.179108
C21   C     C_R   0.935894 0.630901 0.483558 -0.095247
C22   C     C_R   0.064373 0.631340 0.512724 -0.091214
Cu1   Cu    Cu3+1 0.500000 0.640660 0.500000 1.037511
Cu2   Cu    Cu3+1 0.500000 0.359340 0.500000 1.070455
H1    H     H_    0.651744 0.709414 0.902725 0.202609
H2    H     H_    0.551867 0.827626 0.124835 0.271060
H3    H     H_    0.515655 0.830789 0.908827 0.274423
H4    H     H_    0.676033 0.697966 0.118094 0.220602
N1    N     N_R   0.500000 0.852070 0.500000 -0.226661
N2    N     N_R   0.500000 0.147940 0.500000 -0.248439
O1    O     O_R   0.319640 0.618740 0.499990 -0.542761
O2    O     O_R   0.680360 0.618740 0.500010 -0.537491
O3    O     O_R   0.319620 0.381170 0.499990 -0.569371
O4    O     O_R   0.680380 0.381170 0.500010 -0.571735
O5    O     O_R   0.499990 0.618810 0.319660 -0.584850
O6    O     O_R   0.500010 0.618810 0.680340 -0.576040
O7    O     O_R   0.499960 0.381240 0.319650 -0.530942
O8    O     O_R   0.500040 0.381240 0.680350 -0.531051
Br1   Br    Br    0.570778 0.197723 0.126430 -0.292340
Br2   Br    Br    0.416027 0.194961 0.850652 -0.295379
C23   C     C_2   0.109201 0.267294 0.603467 0.959739
O9    O     O_2   0.196573 0.292162 0.680989 -0.563191
O10   O     O_R   0.050057 0.138805 0.603083 -0.673075
H5    H     H_    0.088363 0.076839 0.670199 0.363311
C24   C     C_2   0.884687 0.261688 0.387691 0.956934
O11   O     O_2   0.791445 0.279180 0.317126 -0.559634
O12   O     O_R   0.947200 0.136673 0.380333 -0.680012
H6    H     H_    0.905212 0.069955 0.315478 0.360476
C25   C     C_2   0.872828 0.762043 0.447900 0.961364
O13   O     O_2   0.811726 0.768804 0.347421 -0.605170
O14   O     O_R   0.881881 0.876500 0.528789 -0.689118
H7    H     H_    0.829009 0.955469 0.495065 0.369289
C26   C     C_2   0.128916 0.763941 0.550505 0.961466
O15   O     O_2   0.187457 0.775911 0.652421 -0.574165
O16   O     O_R   0.124574 0.873575 0.469701 -0.682169
H8    H     H_    0.179592 0.953194 0.504192 0.365279
C27   C     C_2   0.322611 0.144404 0.339463 0.920977
O17   O     O_2   0.341234 0.182547 0.237976 -0.519362
O18   O     O_R   0.205903 0.159617 0.376912 -0.748426
H9    H     H_    0.148800 0.211456 0.314702 0.347171
C28   C     C_2   0.680005 0.158737 0.656797 0.945925
O19   O     O_2   0.662534 0.206463 0.757495 -0.518655
O20   O     O_R   0.797053 0.168060 0.619213 -0.758509
H10   H     H_    0.855466 0.224156 0.680314 0.342975
C29   C     C_2   0.355950 0.854273 0.301639 0.901414
O21   O     O_2   0.366342 0.898908 0.199901 -0.574759
O22   O     O_R   0.272356 0.746933 0.311063 -0.715497
H11   H     H_    0.230851 0.712183 0.228289 0.332272
C30   C     C_2   0.653853 0.870725 0.693895 0.867079
O23   O     O_2   0.662173 0.932977 0.793017 -0.582670
O24   O     O_R   0.727415 0.755458 0.683070 -0.721515
H12   H     H_    0.785901 0.737701 0.759691 0.324503

loop_
_geom_bond_atom_site_label_1
_geom_bond_atom_site_label_2
_ccdc_geom_bond_type
C6    N1    A    
C16   H4    S    
C6    C30   S    
Cu2   O8    S    
O10   H5    S    
Cu1   N1    S    
O18   H9    S    
C26   O15   D    
C13   C14   A    
C3    N2    A    
C23   O10   S    
C23   O9    D    
C15   H3    S    
Cu2   O3    S    
C1    O1    A    
C8    C12   S    
Cu1   O2    S    
C2    O4    A    
O16   H8    S    
C21   C25   S    
Cu2   O7    S    
C7    O7    A    
C1    O3    A    
O24   H12   S    
C21   C22   A    
C7    C11   S    
C9    C11   A    
C7    O5    A    
C27   O17   D    
C28   O19   D    
C8    O8    A    
O22   H11   S    
C10   C12   A    
C9    C10   A    
C5    C29   S    
C19   C21   A    
C9    C16   S    
C12   C14   A    
C17   C18   A    
C22   C26   S    
C5    N1    A    
C10   C15   S    
C26   O16   S    
C16   H2    S    
C30   O23   D    
Cu1   O5    S    
Cu2   N2    S    
C27   O18   S    
C17   C23   S    
C13   Br1   S    
Cu1   Cu2   S    
C14   Br2   S    
C15   C16   S    
Cu1   O6    S    
C18   C24   S    
C3    C27   S    
C30   O24   S    
C11   C13   A    
C17   C20   A    
O14   H7    S    
C15   H1    S    
C2    O2    A    
C29   O21   D    
C8    O6    A    
C24   O12   S    
C25   O13   D    
C25   O14   S    
C18   C19   A    
C1    C20   S    
C29   O22   S    
O12   H6    S    
C2    C19   S    
C4    C6    A    
C4    C28   S    
C28   O20   S    
C4    N2    A    
O20   H10   S    
C20   C22   A    
C24   O11   D    
C3    C5    A    
Cu1   O1    S    
Cu2   O4    S    
