data_mof_unit_25286.cif
_audit_creation_date              2013-03-05T15:59:10-0500
_audit_creation_method            fapswitch 2.2
_symmetry_space_group_name_H-M    P1
_symmetry_Int_Tables_number       1
_space_group_crystal_system       triclinic
_cell_length_a                    12.600787
_cell_length_b                    13.164163
_cell_length_c                    15.745433
_cell_angle_alpha                 91.458463
_cell_angle_beta                  102.946449
_cell_angle_gamma                 82.955329
_cell_volume                      2526.2191549

loop_
_atom_site_label
_atom_site_type_symbol
_atom_site_description
_atom_site_fract_x
_atom_site_fract_y
_atom_site_fract_z
_atom_type_partial_charge
O1    O     O_R   0.366740 0.627160 0.478850 -0.627856
O2    O     O_R   0.544830 0.662520 0.507140 -0.618002
C1    C     C_R   0.439631 0.689590 0.478170 0.865131
O3    O     O_R   0.410920 0.482310 0.608710 -0.623750
O4    O     O_R   0.589010 0.517670 0.637000 -0.603703
C2    C     C_R   0.501256 0.500644 0.661623 0.892231
Zn1   Zn    Zn3+2 0.381090 0.476390 0.481110 0.985681
Zn2   Zn    Zn3+2 0.618910 0.523610 0.518890 0.952465
O5    O     O_R   0.455170 0.337480 0.492860 -0.602102
O6    O     O_R   0.633260 0.372840 0.521150 -0.645370
O7    O     O_R   0.410990 0.482330 0.363000 -0.561808
O8    O     O_R   0.589080 0.517690 0.391290 -0.634977
C3    C     C_R   0.561052 0.308536 0.513491 0.868276
C4    C     C_R   0.498738 0.499714 0.338489 0.881924
C5    C     C_3   0.415538 0.591929 0.936095 -0.460806
C6    C     C_3   0.621124 0.528948 0.973852 0.112266
C7    C     C_3   0.617423 0.546935 0.073686 0.194844
H1    H     H_    0.439467 0.667641 0.924954 0.239972
H2    H     H_    0.673486 0.455534 0.968995 0.196016
C8    C     C_1   0.495811 0.502067 0.249421 0.031024
C9    C     C_3   0.506251 0.508840 0.918446 0.012888
C10   C     C_3   0.398171 0.583124 0.031398 0.439664
C11   C     C_3   0.502961 0.510459 0.084014 -0.189046
C12   C     C_3   0.493583 0.399110 0.045166 0.120052
C13   C     C_3   0.481706 0.403138 0.944896 -0.534162
C14   C     C_1   0.497617 0.505744 0.174637 0.167687
C15   C     C_1   0.505509 0.506267 0.826580 0.064370
C16   C     C_1   0.503889 0.503518 0.750980 -0.148657
H3    H     H_    0.396602 0.390850 0.911418 0.225757
H4    H     H_    0.535080 0.340410 0.921153 0.227402
H5    H     H_    0.417210 0.372059 0.055781 0.182268
H6    H     H_    0.338349 0.588650 0.886106 0.227501
C17   C     C_R   0.734212 0.049839 0.542046 -0.172690
H7    H     H_    0.819019 0.017961 0.560185 0.194394
C18   C     C_R   0.597796 0.198472 0.522718 -0.099529
C19   C     C_R   0.291001 0.836982 0.431959 0.054612
C20   C     C_R   0.262235 0.935838 0.464839 0.110757
C21   C     C_R   0.348633 0.995448 0.502916 0.087418
C22   C     C_R   0.455600 0.965983 0.485072 0.039697
C23   C     C_R   0.481444 0.865393 0.458373 -0.018686
C24   C     C_R   0.540772 0.029433 0.498576 0.032583
C25   C     C_R   0.651755 0.987845 0.506989 0.007139
C26   C     C_R   0.674540 0.888920 0.474603 0.288820
C27   C     C_R   0.586775 0.833189 0.443013 -0.209342
C28   C     C_R   0.517208 0.134330 0.493440 -0.210530
C29   C     C_R   0.707029 0.154154 0.557775 0.075081
C30   C     C_R   0.402856 0.797283 0.450970 -0.165532
H8    H     H_    0.435686 0.165550 0.461618 0.219448
H9    H     H_    0.602533 0.761578 0.410047 0.205602
C31   C     C_R   0.079782 0.359647 0.368657 -0.317864
H10   H     H_    0.871701 0.332759 0.343119 0.191830
H11   H     H_    0.053191 0.307686 0.315751 0.195075
N1    N     N_R   0.222200 0.444690 0.455710 -0.164805
C32   C     C_R   0.802708 0.623873 0.608374 0.049703
C33   C     C_R   0.909329 0.648265 0.634408 -0.123844
C34   C     C_R   0.989512 0.602377 0.593005 -0.147746
C35   C     C_R   0.963227 0.530394 0.525837 0.029752
C36   C     C_R   0.853342 0.507295 0.502599 0.218495
C37   C     C_R   0.041232 0.479231 0.481878 -0.003036
C38   C     C_R   0.006387 0.408814 0.414597 0.098145
C39   C     C_R   0.898452 0.387539 0.393515 -0.185176
C40   C     C_R   0.823944 0.434099 0.438627 -0.148059
C41   C     C_R   0.152724 0.494685 0.501400 -0.128331
C42   C     C_R   0.187831 0.379435 0.389218 0.436512
N2    N     N_R   0.776960 0.554780 0.543830 -0.142663
H12   H     H_    0.186365 0.546612 0.551294 0.154314
H13   H     H_    0.739998 0.659466 0.640205 0.155990
H14   H     H_    0.070725 0.624495 0.614964 0.141170
H15   H     H_    0.929608 0.703150 0.686099 0.175723
H16   H     H_    0.744877 0.408243 0.424177 0.217080
N3    N     N_R   0.384847 0.686839 0.069854 0.185271
O9    O     O_R   0.381964 0.697456 0.151761 -0.409682
O10   O     O_R   0.346563 0.766046 0.019455 -0.369617
N4    N     N_R   0.296196 0.537079 0.031245 0.217210
O11   O     O_R   0.235453 0.504375 0.960181 -0.391370
O12   O     O_R   0.263623 0.530947 0.103591 -0.312101
N5    N     N_R   0.584312 0.323306 0.088752 0.249538
O13   O     O_R   0.660812 0.283567 0.050138 -0.348840
O14   O     O_R   0.583788 0.288811 0.165363 -0.350677
C43   C     C_3   0.793096 0.210014 0.617474 -0.396379
C44   C     C_3   0.892958 0.217527 0.578436 -0.362584
C45   C     C_3   0.971687 0.285427 0.633555 -0.817191
H17   H     H_    0.929003 0.363035 0.640593 0.265389
H18   H     H_    0.005351 0.251309 0.699304 0.271545
H19   H     H_    0.040764 0.292284 0.601743 0.243580
H20   H     H_    0.938584 0.140357 0.575239 0.217996
H21   H     H_    0.865367 0.248238 0.511328 0.236267
H22   H     H_    0.758893 0.286702 0.635965 0.230426
H23   H     H_    0.821083 0.166598 0.679755 0.207750
N6    N     N_R   0.782519 0.847548 0.465298 0.199231
O15   O     O_R   0.794363 0.796131 0.395642 -0.409083
O16   O     O_R   0.866075 0.845657 0.531161 -0.447962
C46   C     C_3   0.207239 0.775053 0.374609 -0.397767
C47   C     C_3   0.155867 0.827103 0.286193 -0.357050
C48   C     C_3   0.075844 0.761942 0.228849 -0.738482
H24   H     H_    0.119046 0.686459 0.215639 0.300523
H25   H     H_    0.008651 0.749936 0.261340 0.259111
H26   H     H_    0.039515 0.801529 0.165728 0.261282
H27   H     H_    0.110964 0.902966 0.294323 0.236384
H28   H     H_    0.221825 0.838454 0.252054 0.273627
H29   H     H_    0.246869 0.699870 0.357602 0.243587
H30   H     H_    0.143872 0.758572 0.409558 0.210013
C49   C     C_3   0.330201 0.078362 0.570528 -0.441068
C50   C     C_3   0.408928 0.056160 0.659656 -0.335215
C51   C     C_3   0.389041 0.139271 0.725701 -0.829198
H31   H     H_    0.403066 0.214752 0.703056 0.256593
H32   H     H_    0.303750 0.143752 0.734972 0.266230
H33   H     H_    0.446642 0.121068 0.789380 0.266672
H34   H     H_    0.396564 0.981119 0.684383 0.237437
H35   H     H_    0.495623 0.052261 0.654478 0.237731
H36   H     H_    0.334179 0.156160 0.547998 0.208984
H37   H     H_    0.247031 0.083690 0.582915 0.206115
C52   C     C_3   0.142004 0.974815 0.462146 -0.430140
C53   C     C_3   0.103720 0.073256 0.407479 -0.359228
C54   C     C_3   0.979323 0.087461 0.373743 -0.812601
H38   H     H_    0.953231 0.023855 0.329275 0.275958
H39   H     H_    0.937269 0.089282 0.428622 0.257779
H40   H     H_    0.953939 0.160192 0.336815 0.251564
H41   H     H_    0.128230 0.140800 0.447411 0.226287
H42   H     H_    0.142651 0.070637 0.350562 0.260257
H43   H     H_    0.087223 0.916725 0.435655 0.238624
H44   H     H_    0.127584 0.986923 0.528768 0.193905
N7    N     N_R   0.259641 0.334923 0.336492 0.224750
O17   O     O_R   0.258570 0.380884 0.264106 -0.314219
O18   O     O_R   0.288969 0.236749 0.341745 -0.441993
N8    N     N_R   0.671290 0.606983 0.935730 0.199799
O19   O     O_R   0.617786 0.695969 0.910748 -0.413618
O20   O     O_R   0.766798 0.582486 0.917244 -0.347319
C55   C     C_3   0.624408 0.661522 0.103039 -0.380005
C56   C     C_3   0.740916 0.694731 0.125332 -0.274297
C57   C     C_3   0.736651 0.809809 0.141780 -0.768705
H45   H     H_    0.691042 0.852751 0.082267 0.285568
H46   H     H_    0.695882 0.831426 0.196410 0.283342
H47   H     H_    0.821237 0.831477 0.159188 0.248448
H48   H     H_    0.790176 0.655036 0.185347 0.265501
H49   H     H_    0.784469 0.675275 0.072269 0.282165
H50   H     H_    0.571616 0.714083 0.052971 0.250291
H51   H     H_    0.592659 0.674299 0.163248 0.229205
N9    N     N_R   0.712626 0.484457 0.130015 0.243278
O21   O     O_R   0.721134 0.480480 0.213828 -0.397727
O22   O     O_R   0.800368 0.453416 0.101294 -0.329782

loop_
_geom_bond_atom_site_label_1
_geom_bond_atom_site_label_2
_geom_bond_distance
_ccdc_geom_bond_type
C27   H9    1.083000 S    
C36   C40   1.396864 A    
C5    H1    1.105161 S    
C50   H35   1.108426 S    
C33   C34   1.391446 A    
C6    C9    1.562929 S    
C23   C30   1.399589 A    
C31   C42   1.382594 A    
C24   C25   1.416279 A    
C56   H48   1.110877 S    
H10   C39   1.083505 S    
C57   H47   1.110054 S    
C53   C54   1.527819 S    
C35   C36   1.419207 A    
C48   H26   1.110362 S    
N7    O17   1.300572 A    
C22   C24   1.415382 A    
C32   N2    1.357550 A    
N5    O13   1.302033 A    
Zn1   O7    1.983709 S    
C51   H32   1.110916 S    
C7    C11   1.617471 S    
N4    O12   1.301885 A    
N8    O19   1.300924 A    
C17   C25   1.406536 A    
C19   C20   1.423727 A    
C20   C21   1.433039 A    
C55   C56   1.545421 S    
O4    C2    1.296368 A    
O7    C4    1.296777 A    
N7    O18   1.299335 A    
C20   C52   1.530350 S    
C54   H38   1.110841 S    
C34   C35   1.412503 A    
C40   H16   1.066722 S    
C19   C30   1.409811 A    
C49   H36   1.102852 S    
C11   C14   1.446736 S    
C43   H23   1.112114 S    
O5    C3    1.310795 A    
C19   C46   1.529898 S    
C5    C10   1.573307 S    
C2    C16   1.399557 S    
C55   H51   1.110146 S    
C48   H24   1.111094 S    
C6    C7    1.593863 S    
C54   H39   1.108622 S    
C31   H11   1.084547 S    
C11   C12   1.581514 S    
C23   C27   1.414364 A    
C53   H41   1.110507 S    
C9    C15   1.443964 S    
C41   H12   1.076409 S    
C37   C38   1.419773 A    
C17   C29   1.403478 A    
C47   C48   1.527284 S    
O3    Zn1   1.960801 S    
C50   C51   1.527358 S    
C44   C45   1.525961 S    
N5    O14   1.301354 A    
C13   H3    1.113074 S    
C51   H33   1.110425 S    
O2    Zn2   1.941810 S    
C26   N6    1.439753 S    
N4    O11   1.302207 A    
C52   H44   1.108430 S    
C7    C55   1.573399 S    
C4    C8    1.395656 S    
C5    H6    1.110390 S    
C12   C13   1.553773 S    
O3    C2    1.296271 A    
C46   H29   1.107167 S    
C22   C23   1.401252 A    
N3    O10   1.302642 A    
C32   H13   1.081581 S    
C34   H14   1.077492 S    
C38   C39   1.387377 A    
O1    C1    1.307352 A    
C26   C27   1.393786 A    
C21   C49   1.538861 S    
C36   N2    1.360262 A    
N6    O16   1.300093 A    
C47   H28   1.112094 S    
Zn2   O8    1.960801 S    
C54   H40   1.107689 S    
C17   H7    1.076561 S    
C55   H50   1.105719 S    
C7    N9    1.490168 S    
C46   C47   1.537066 S    
C33   H15   1.082552 S    
N9    O22   1.302951 A    
C44   H21   1.106112 S    
O8    C4    1.294247 A    
C45   H18   1.110656 S    
C25   C26   1.406576 A    
Zn1   N1    2.044580 S    
C57   H45   1.110805 S    
C42   N7    1.425878 S    
C10   N3    1.485319 S    
C15   C16   1.185665 T    
C52   C53   1.539586 S    
C28   H8    1.073076 S    
C13   H4    1.111168 S    
Zn1   O5    1.941811 S    
C9    C13   1.548576 S    
C32   C33   1.388712 A    
N8    O20   1.301567 A    
O1    Zn1   1.971274 S    
C10   C11   1.607887 S    
C56   H49   1.106765 S    
C44   H20   1.110039 S    
C43   C44   1.533366 S    
C57   H46   1.111075 S    
O6    C3    1.301371 A    
C46   H30   1.110362 S    
O4    Zn2   1.983711 S    
N9    O21   1.301747 A    
C48   H25   1.111117 S    
C3    C18   1.466562 S    
C45   H19   1.110683 S    
C51   H31   1.111328 S    
C37   C41   1.408184 A    
C31   C38   1.388004 A    
O2    C1    1.309084 A    
C12   H5    1.113582 S    
N3    O9    1.301787 A    
C43   H22   1.106441 S    
C29   C43   1.517935 S    
N1    C41   1.354213 A    
N6    O15   1.301568 A    
C21   C22   1.442924 A    
C8    C14   1.185138 T    
C47   H27   1.105082 S    
C6    H2    1.112477 S    
C1    C30   1.479472 S    
N1    C42   1.365245 A    
C56   C57   1.526819 S    
C39   C40   1.377373 A    
Zn2   N2    2.032408 S    
C35   C37   1.420414 A    
C12   N5    1.475559 S    
C5    C9    1.549311 S    
C52   H43   1.104299 S    
C10   N4    1.485977 S    
Zn2   O6    1.971275 S    
C45   H17   1.109717 S    
C49   C50   1.537817 S    
C24   C28   1.376920 A    
C50   H34   1.111858 S    
C49   H37   1.101881 S    
C18   C29   1.420776 A    
C6    N8    1.475080 S    
C53   H42   1.111866 S    
C18   C28   1.391905 A    
