data_mof_unit_10977.cif
_audit_creation_date              2012-12-10T17:50:16-0500
_audit_creation_method            fapswitch 2.2
_symmetry_space_group_name_H-M    P1
_symmetry_Int_Tables_number       1
_space_group_crystal_system       triclinic
_cell_length_a                    10.622031
_cell_length_b                    14.709241
_cell_length_c                    14.641733
_cell_angle_alpha                 65.138717
_cell_angle_beta                  103.48747
_cell_angle_gamma                 103.061496
_cell_volume                      1997.07527967

loop_
_atom_site_label
_atom_site_type_symbol
_atom_type_description
_atom_site_fract_x
_atom_site_fract_y
_atom_site_fract_z
_atom_type_partial_charge
C1    C     C_R   0.480718 0.119510 0.311843 0.832865
C2    C     C_R   0.521907 0.880439 0.688248 0.825338
C3    C     C_R   0.490852 0.290583 0.177205 -0.324682
C4    C     C_R   0.533141 0.709914 0.823175 -0.328613
C5    C     C_R   0.514493 0.361300 0.080217 0.090406
C6    C     C_R   0.545742 0.640821 0.925073 0.094933
C7    C     C_R   0.517350 0.324301 0.005830 0.077963
C8    C     C_R   0.558470 0.678275 0.001974 0.090951
C9    C     C_R   0.534484 0.467553 0.055157 0.086961
C10   C     C_R   0.541490 0.535245 0.952276 0.074908
C11   C     C_R   0.545996 0.495228 0.880587 -0.204797
C12   C     C_R   0.551356 0.508377 0.129956 -0.229167
C13   C     C_R   0.535405 0.391756 0.907466 -0.169877
C14   C     C_R   0.564659 0.611878 0.103621 -0.216691
C15   C     C_R   0.719341 0.285304 0.668268 -0.290162
C16   C     C_R   0.277805 0.713487 0.333695 -0.299982
C17   C     C_R   0.684000 0.203331 0.639034 0.085820
C18   C     C_R   0.313522 0.795518 0.362876 0.068402
C19   C     C_R   0.518537 0.285067 0.509270 0.034929
C20   C     C_R   0.482518 0.715471 0.489688 0.043266
C21   C     C_R   0.549203 0.371432 0.535404 -0.057987
C22   C     C_R   0.450559 0.628584 0.464320 -0.061380
C23   C     C_R   0.259619 0.000114 0.500078 0.801164
C24   C     C_R   0.740430 0.999877 0.500030 0.817122
C25   C     C_R   0.652972 0.370034 0.616816 0.048779
C26   C     C_R   0.345924 0.629620 0.383568 0.058631
C27   C     C_R   0.481126 0.458067 0.484260 0.003085
C28   C     C_R   0.518503 0.541934 0.515421 0.003546
C29   C     C_R   0.621746 0.536075 0.597315 -0.311213
C30   C     C_R   0.376063 0.463047 0.403731 -0.307197
C31   C     C_R   0.689736 0.453076 0.645922 0.485370
C32   C     C_R   0.310862 0.547631 0.352810 0.493166
C33   C     C_3   0.010071 0.920917 0.479012 -0.227556
C34   C     C_3   0.990111 0.079375 0.521253 -0.218127
C35   C     C_3   0.931023 0.008824 0.406971 -0.213426
C36   C     C_3   0.069266 0.991578 0.593220 -0.214221
C37   C     C_3   0.876981 0.000582 0.499592 -0.078829
C38   C     C_3   0.123203 0.999661 0.500610 -0.073351
C39   C     C_3   0.955252 0.915027 0.569886 0.316934
C40   C     C_3   0.045026 0.085340 0.430393 0.307916
C41   C     C_R   0.482390 0.186564 0.203788 -0.154631
C42   C     C_R   0.536457 0.813405 0.797165 -0.154709
C43   C     C_R   0.503658 0.219924 0.030755 -0.277898
C44   C     C_R   0.563938 0.781987 0.976598 -0.287108
C45   C     C_R   0.485645 0.150361 0.129256 0.494427
C46   C     C_R   0.551152 0.849818 0.874700 0.496594
Cu1   Cu    Cu3+1 0.465750 0.918270 0.475680 0.952345
Cu2   Cu    Cu3+1 0.534250 0.081730 0.524320 0.948269
H1    H     H_    0.872698 0.017267 0.331049 0.157246
H2    H     H_    0.127802 0.983581 0.668965 0.131384
H3    H     H_    0.561816 0.722339 0.548381 0.113152
H4    H     H_    0.441448 0.279232 0.448841 0.114930
H5    H     H_    0.261262 0.860068 0.323950 0.126408
H6    H     H_    0.734869 0.138087 0.679160 0.146852
H7    H     H_    0.798347 0.281931 0.731075 0.186749
H8    H     H_    0.197530 0.716367 0.271837 0.182307
H9    H     H_    0.653090 0.594923 0.626547 0.142809
H10   H     H_    0.340259 0.401758 0.378286 0.142992
H11   H     H_    0.020182 0.855183 0.463926 0.152799
H12   H     H_    0.979912 0.144949 0.536562 0.154296
H13   H     H_    0.540165 0.364354 0.850362 0.161156
H14   H     H_    0.576913 0.639913 0.163298 0.146498
H15   H     H_    0.516544 0.684375 0.761913 0.170674
H16   H     H_    0.477880 0.314626 0.234020 0.165051
H17   H     H_    0.510014 0.192213 0.974306 0.151904
H18   H     H_    0.576192 0.810576 0.035853 0.157065
H19   H     H_    0.562080 0.541983 0.803504 0.147530
H20   H     H_    0.558460 0.462566 0.210381 0.145411
N1    N     N_R   0.585750 0.204560 0.560800 -0.180886
N2    N     N_R   0.414250 0.795440 0.439200 -0.172043
O1    O     O_R   0.454850 0.022100 0.338110 -0.537278
O2    O     O_R   0.545150 0.977900 0.661890 -0.536826
O3    O     O_R   0.512700 0.160150 0.379180 -0.600259
O4    O     O_R   0.487300 0.839850 0.620820 -0.602154
O5    O     O_R   0.287930 0.931000 0.479440 -0.591136
O6    O     O_R   0.712070 0.069000 0.520560 -0.590517
O7    O     O_R   0.345780 0.069050 0.520520 -0.595629
O8    O     O_R   0.654220 0.930950 0.479480 -0.587033
N3    N     N_2   0.900466 0.822183 0.645241 -0.430204
H21   H     H_    0.819614 0.784617 0.614277 0.245342
C47   C     C_3   0.994546 0.756612 0.713618 -0.706587
H22   H     H_    0.943529 0.687899 0.768476 0.241153
H23   H     H_    0.068128 0.795921 0.757552 0.231353
H24   H     H_    0.044849 0.733294 0.670090 0.216548
N4    N     N_2   0.099931 0.178164 0.355029 -0.443526
H25   H     H_    0.186028 0.212019 0.384619 0.247468
C48   C     C_3   0.008531 0.248541 0.293446 -0.651369
H26   H     H_    0.058037 0.314698 0.235054 0.236870
H27   H     H_    0.972873 0.275696 0.341780 0.229952
H28   H     H_    0.924156 0.211971 0.253673 0.233184
O9    O     O_3   0.558406 0.951941 0.851872 -0.562402
C49   C     C_3   0.435213 0.970508 0.854991 -0.302536
H29   H     H_    0.357034 0.947432 0.800116 0.140825
H30   H     H_    0.439518 0.053084 0.832406 0.188717
H31   H     H_    0.409844 0.931746 0.933334 0.146497
O10   O     O_3   0.484802 0.048334 0.155005 -0.559012
C50   C     C_3   0.363699 0.008539 0.111802 -0.315995
H32   H     H_    0.280407 0.020815 0.137458 0.153393
H33   H     H_    0.360569 0.925614 0.137854 0.183181
H34   H     H_    0.351992 0.040981 0.027162 0.145169
O11   O     O_3   0.788562 0.451338 0.726878 -0.583419
C51   C     C_3   0.904493 0.506110 0.687592 -0.349613
H35   H     H_    0.893284 0.586367 0.637822 0.165797
H36   H     H_    0.935715 0.469755 0.645094 0.166700
H37   H     H_    0.983541 0.506282 0.752202 0.196994
O12   O     O_3   0.205145 0.546683 0.277012 -0.583475
C52   C     C_3   0.252154 0.565705 0.187242 -0.344445
H38   H     H_    0.300623 0.502230 0.196213 0.169988
H39   H     H_    0.319851 0.638555 0.163619 0.158822
H40   H     H_    0.167770 0.572101 0.124874 0.198689

loop_
_geom_bond_atom_site_label_1
_geom_bond_atom_site_label_2
_ccdc_geom_bond_type
C18   N2    A    
C38   C40   S    
C48   H26   S    
C17   N1    A    
O11   C51   S    
C34   C37   S    
Cu2   O6    S    
C44   H18   S    
Cu2   N1    S    
C47   H24   S    
C47   H22   S    
N4    H25   S    
C26   C32   A    
C12   H20   S    
C4    H15   S    
C1    O1    A    
C34   C40   S    
C31   O11   S    
C28   C29   A    
C35   C37   S    
C20   H3    S    
C15   C25   A    
O12   C52   S    
C14   H14   S    
C51   H37   S    
C42   C46   A    
C18   H5    S    
C50   H33   S    
C19   H4    S    
C44   C46   A    
C35   H1    S    
C52   H38   S    
C7    C43   A    
C9    C10   A    
C2    O4    A    
C21   C27   A    
C33   H11   S    
C22   C28   A    
C27   C30   A    
C34   H12   S    
C52   H39   S    
C20   N2    A    
Cu2   O2    S    
C2    O2    A    
Cu2   O3    S    
C47   H23   S    
C11   H19   S    
C50   H32   S    
N4    C48   S    
C16   C26   A    
C29   H9    S    
C4    C6    A    
C23   O5    A    
O9    C49   S    
N3    C47   S    
C24   O6    A    
C6    C8    A    
C46   O9    S    
C3    H16   S    
C49   H31   S    
C39   N3    S    
C40   N4    S    
C16   H8    S    
Cu1   N2    S    
C5    C9    A    
Cu1   Cu2   S    
C43   H17   S    
O10   C50   S    
Cu2   O7    S    
C49   H30   S    
C24   C37   S    
C33   C39   S    
C23   O7    A    
C51   H36   S    
C43   C45   A    
Cu1   O1    S    
C24   O8    A    
C20   C22   A    
C48   H27   S    
C52   H40   S    
C19   N1    A    
C50   H34   S    
C36   H2    S    
C5    C7    A    
C1    C41   S    
C15   C17   A    
C21   C25   A    
C3    C41   A    
C8    C14   A    
C19   C21   A    
C29   C31   A    
C25   C31   A    
C36   C39   S    
C8    C44   A    
Cu1   O4    S    
C12   C14   A    
C3    C5    A    
C6    C10   A    
C23   C38   S    
C33   C38   S    
C1    O3    A    
C36   C38   S    
C35   C40   S    
Cu1   O5    S    
C37   C39   S    
C30   C32   A    
C11   C13   A    
C4    C42   A    
C2    C42   S    
C30   H10   S    
C49   H29   S    
C33   C35   S    
C34   C36   S    
C51   H35   S    
C9    C12   A    
C10   C11   A    
N3    H21   S    
C7    C13   A    
C13   H13   S    
C16   C18   A    
C22   C26   A    
C48   H28   S    
C27   C28   A    
C41   C45   A    
C32   O12   S    
Cu1   O8    S    
C45   O10   S    
C17   H6    S    
C15   H7    S    
