data_mof_unit_27634.cif
_audit_creation_date              2012-12-10T17:25:35-0500
_audit_creation_method            fapswitch 2.2
_symmetry_space_group_name_H-M    P1
_symmetry_Int_Tables_number       1
_space_group_crystal_system       triclinic
_cell_length_a                    10.187966
_cell_length_b                    10.582341
_cell_length_c                    23.488715
_cell_angle_alpha                 91.981367
_cell_angle_beta                  81.808597
_cell_angle_gamma                 95.902906
_cell_volume                      2492.74039964

loop_
_atom_site_label
_atom_site_type_symbol
_atom_type_description
_atom_site_fract_x
_atom_site_fract_y
_atom_site_fract_z
_atom_type_partial_charge
C1    C     C_R   0.556023 0.733980 0.498213 0.827618
C2    C     C_R   0.386016 0.467764 0.301250 0.388842
C3    C     C_R   0.450819 0.598403 0.767019 -0.137656
C4    C     C_R   0.389764 0.480713 0.242476 -0.142614
C5    C     C_R   0.524949 0.513707 0.789993 0.003078
C6    C     C_R   0.509307 0.518280 0.207796 0.021760
C7    C     C_2   0.587949 0.870574 0.504040 0.190273
C8    C     C_2   0.420155 0.133791 0.526702 0.145369
C9    C     C_2   0.508351 0.935782 0.542576 0.335890
C10   C     C_2   0.522999 0.074152 0.540139 0.368247
C11   C     C_2   0.920778 0.481459 0.515298 0.587767
C12   C     C_R   0.445300 0.266963 0.509178 0.831078
C13   C     C_2   0.069900 0.463704 0.505864 0.548176
C14   C     C_R   0.500189 0.499364 0.610435 0.914758
C15   C     C_R   0.499820 0.500110 0.389418 0.897854
C16   C     C_R   0.497173 0.404383 0.118337 0.569078
C17   C     C_R   0.569316 0.625801 0.877877 0.567503
C18   C     C_R   0.530849 0.631137 0.119360 0.562268
C19   C     C_R   0.485662 0.406788 0.880629 0.565820
C20   C     C_R   0.550042 0.632912 0.058952 -0.171783
C21   C     C_R   0.501306 0.400937 0.938679 -0.186659
C22   C     C_R   0.528245 0.516452 0.028584 -0.120354
C23   C     C_R   0.588041 0.421777 0.753886 0.398350
C24   C     C_R   0.532660 0.515945 0.968393 -0.117388
C25   C     C_R   0.499287 0.400691 0.058496 -0.190846
C26   C     C_R   0.566360 0.630476 0.937957 -0.186026
C27   C     C_R   0.587677 0.746822 0.028148 0.325125
C28   C     C_R   0.482556 0.284558 0.968102 0.339204
C29   C     C_R   0.597580 0.745196 0.968093 0.451193
C30   C     C_R   0.475745 0.284974 0.027904 0.457906
C31   C     C_3   0.769326 0.885881 0.930211 0.180429
C32   C     C_3   0.804641 0.009238 0.897622 -0.716732
C33   C     C_3   0.320067 0.129129 0.065284 0.159999
C34   C     C_R   0.627553 0.549044 0.232188 0.412209
C35   C     C_3   0.299635 0.002097 0.095307 -0.638237
C36   C     C_3   0.503463 0.196221 0.682938 0.170047
C37   C     C_3   0.575381 0.082729 0.694889 -0.704507
C38   C     C_3   0.754645 0.714253 0.323479 0.143705
C39   C     C_3   0.886148 0.751405 0.346169 -0.717862
C40   C     C_3   0.053051 0.273635 0.450686 0.051706
C41   C     C_3   0.115029 0.149523 0.436789 -0.756417
C42   C     C_3   0.895096 0.487857 0.614877 0.097713
C43   C     C_3   0.869986 0.579605 0.665677 -0.693555
C44   C     C_R   0.563309 0.408021 0.696935 0.369887
C45   C     C_R   0.622081 0.548458 0.291887 0.383349
C46   C     C_R   0.502280 0.502393 0.672552 -0.370953
C47   C     C_R   0.502123 0.504704 0.326890 -0.370503
C48   C     C_R   0.445476 0.599009 0.708350 0.349908
H1    H     H_    0.400766 0.667774 0.794806 0.210441
H2    H     H_    0.914621 0.030230 0.888991 0.197451
H3    H     H_    0.764204 0.000876 0.856014 0.272599
H4    H     H_    0.277348 0.116096 0.024141 0.158589
H5    H     H_    0.265004 0.198868 0.093428 0.125635
H6    H     H_    0.341167 0.011557 0.136651 0.282409
H7    H     H_    0.191554 0.970156 0.104173 0.173840
H8    H     H_    0.350345 0.929593 0.067474 0.281927
H9    H     H_    0.703469 0.379185 0.808027 0.326979
H10   H     H_    0.744601 0.558705 0.158528 0.334634
H11   H     H_    0.443151 0.170481 0.647809 0.120241
H12   H     H_    0.300504 0.454182 0.222916 0.194258
H13   H     H_    0.431111 0.214371 0.722126 0.148428
H14   H     H_    0.627423 0.103089 0.733090 0.287064
H15   H     H_    0.502179 0.997978 0.703510 0.219504
H16   H     H_    0.649654 0.061215 0.657540 0.241518
H17   H     H_    0.672342 0.746340 0.355354 0.107449
H18   H     H_    0.757478 0.764157 0.282245 0.178368
H19   H     H_    0.969774 0.718515 0.315538 0.276512
H20   H     H_    0.902210 0.856333 0.351290 0.195623
H21   H     H_    0.884794 0.707635 0.388566 0.281061
H22   H     H_    0.421453 0.709106 0.647609 0.376235
H23   H     H_    0.686014 0.848097 0.079944 0.355276
H24   H     H_    0.292685 0.360094 0.361382 0.337456
H25   H     H_    0.704863 0.080171 0.557994 0.348392
H26   H     H_    0.368643 0.937794 0.607961 0.357033
H27   H     H_    0.229344 0.132300 0.534643 0.368702
H28   H     H_    0.737614 0.870393 0.442968 0.338071
H29   H     H_    0.073372 0.328231 0.410470 0.244361
H30   H     H_    0.944904 0.247413 0.463898 0.188586
H31   H     H_    0.225445 0.166797 0.429950 0.261281
H32   H     H_    0.081184 0.081329 0.471955 0.276145
H33   H     H_    0.082080 0.106214 0.396788 0.222402
H34   H     H_    0.542169 0.174452 0.904527 0.370544
H35   H     H_    0.999690 0.465001 0.612746 0.124459
H36   H     H_    0.828719 0.398589 0.622989 0.208451
H37   H     H_    0.769130 0.612018 0.668420 0.241581
H38   H     H_    0.878477 0.532229 0.706262 0.212633
H39   H     H_    0.944743 0.663974 0.660340 0.267288
H40   H     H_    0.196380 0.721211 0.543659 0.410615
H41   H     H_    0.832955 0.435551 0.397761 0.407659
H42   H     H_    0.817171 0.808797 0.904067 0.132384
H43   H     H_    0.811066 0.897825 0.971575 0.136180
H44   H     H_    0.762043 0.088795 0.923599 0.256009
N1    N     N_R   0.511079 0.518143 0.146982 -0.341678
N2    N     N_R   0.527494 0.515570 0.850875 -0.333866
N3    N     N_2   0.842710 0.448880 0.476480 -0.019504
N4    N     N_2   0.157290 0.551120 0.523520 0.014602
O1    O     O_R   0.431060 0.692470 0.504730 -0.574192
O2    O     O_2   0.612760 0.729965 0.846418 -0.528736
O3    O     O_2   0.530619 0.740309 0.150777 -0.524638
O4    O     O_2   0.425757 0.306122 0.854138 -0.526905
O5    O     O_3   0.618022 0.861624 0.055082 -0.676787
O6    O     O_3   0.476203 0.167969 0.939902 -0.679446
O7    O     O_3   0.116767 0.667382 0.534409 -0.673693
O8    O     O_3   0.903233 0.459658 0.422040 -0.756566
O9    O     O_3   0.629211 0.859047 0.939614 -0.512048
O10   O     O_3   0.457753 0.169634 0.055444 -0.506594
O11   O     O_3   0.670473 0.341502 0.772930 -0.739645
O12   O     O_R   0.568940 0.307530 0.495270 -0.551629
O13   O     O_3   0.750295 0.578885 0.199571 -0.726067
O14   O     O_3   0.597772 0.300766 0.665263 -0.580240
O15   O     O_3   0.738279 0.581086 0.315389 -0.550677
O16   O     O_3   0.384559 0.695537 0.688285 -0.726256
O17   O     O_3   0.269112 0.413846 0.331439 -0.726554
O18   O     O_3   0.644328 0.140502 0.547577 -0.730949
O19   O     O_3   0.407576 0.874031 0.580391 -0.781477
O20   O     O_3   0.294916 0.068704 0.529464 -0.779971
O21   O     O_3   0.692963 0.933708 0.468772 -0.786312
O22   O     O_3   0.111204 0.341918 0.495080 -0.653443
O23   O     O_R   0.651120 0.659650 0.489640 -0.598822
O24   O     O_3   0.867717 0.544598 0.564712 -0.581329
O25   O     O_R   0.348880 0.340350 0.510360 -0.579507
O26   O     O_R   0.389950 0.516450 0.591390 -0.611550
O27   O     O_R   0.610050 0.483550 0.408610 -0.585425
O28   O     O_R   0.610020 0.483630 0.576300 -0.540743
O29   O     O_R   0.389980 0.516370 0.423700 -0.585810
O30   O     O_2   0.481943 0.295851 0.148154 -0.503078
Zn1   Zn    Zn3+2 0.353060 0.521920 0.510080 1.046596
Zn2   Zn    Zn3+2 0.646940 0.478080 0.489920 1.062651

loop_
_geom_bond_atom_site_label_1
_geom_bond_atom_site_label_2
_ccdc_geom_bond_type
C40   O22   S    
C14   O26   A    
C27   C29   A    
H10   O13   S    
C39   H20   S    
C7    O21   S    
C15   C47   S    
O1    Zn1   S    
C36   H11   S    
H40   O7    S    
C41   H32   S    
C5    N2    S    
C3    H1    S    
C14   C46   S    
C33   H4    S    
C16   N1    A    
C15   O27   A    
C17   C26   A    
C22   C24   A    
C36   C37   S    
C19   C21   A    
C24   C26   A    
O25   Zn1   S    
C38   C39   S    
C2    O17   S    
C3    C48   A    
C25   C30   A    
C1    O23   A    
O26   Zn1   S    
C33   C35   S    
N3    Zn2   S    
C12   O25   A    
C38   H18   S    
C42   C43   S    
C22   C25   A    
C34   O13   S    
C9    C10   S    
C10   O18   S    
O28   Zn2   S    
O23   Zn2   S    
C6    N1    S    
H23   O5    S    
C41   H33   S    
C30   O10   S    
C35   H6    S    
C31   O9    S    
C29   O9    S    
C11   O24   S    
C37   H15   S    
C44   C46   A    
C13   O22   S    
C45   C47   A    
C33   H5    S    
C46   C48   A    
C14   O28   A    
C33   O10   S    
C13   N4    D    
C35   H7    S    
C43   H37   S    
C42   H36   S    
C4    C6    A    
C1    O1    A    
C12   O12   A    
H24   O17   S    
C27   O5    S    
H25   O18   S    
C6    C34   A    
N4    Zn1   S    
C9    O19   S    
C2    C4    A    
C32   H3    S    
C31   C32   S    
C5    C23   A    
C38   H17   S    
C8    C12   S    
C31   H42   S    
C23   O11   S    
C4    H12   S    
H34   O6    S    
C34   C45   A    
O12   Zn2   S    
C32   H2    S    
C19   N2    A    
H22   O16   S    
C40   C41   S    
H9    O11   S    
C21   C28   A    
C20   C22   A    
C31   H43   S    
H41   O8    S    
C36   O14   S    
C40   H30   S    
N4    O7    S    
C18   O3    S    
C36   H13   S    
C37   H16   S    
N3    O8    S    
C17   O2    S    
C11   N3    D    
C16   C25   A    
C7    C9    D    
C48   O16   S    
C35   H8    S    
C1    C7    S    
C43   H38   S    
C39   H19   S    
C42   H35   S    
C3    C5    A    
C41   H31   S    
C19   O4    S    
C45   O15   S    
H27   O20   S    
C20   C27   A    
C2    C47   A    
H28   O21   S    
C43   H39   S    
C28   C30   A    
C11   C13   S    
C42   O24   S    
O27   Zn2   S    
C32   H44   S    
H26   O19   S    
C39   H21   S    
C18   C20   A    
C8    O20   S    
C28   O6    S    
C26   C29   A    
C8    C10   D    
C15   O29   A    
C21   C24   A    
O29   Zn1   S    
C18   N1    A    
C37   H14   S    
C40   H29   S    
C17   N2    A    
C38   O15   S    
C16   O30   S    
C23   C44   A    
C44   O14   S    
