data_mof_unit_26988.cif
_audit_creation_date              2012-12-10T20:00:01-0500
_audit_creation_method            fapswitch 2.2
_symmetry_space_group_name_H-M    P1
_symmetry_Int_Tables_number       1
_space_group_crystal_system       triclinic
_cell_length_a                    15.009237
_cell_length_b                    14.218389
_cell_length_c                    8.871343
_cell_angle_alpha                 89.998079
_cell_angle_beta                  90.33564
_cell_angle_gamma                 89.999333
_cell_volume                      1893.17572085

loop_
_atom_site_label
_atom_site_type_symbol
_atom_type_description
_atom_site_fract_x
_atom_site_fract_y
_atom_site_fract_z
_atom_type_partial_charge
C1    C     C_R   0.327857 0.500058 0.500053 0.833012
C2    C     C_R   0.672143 0.500057 0.499942 0.833032
C3    C     C_R   0.468441 0.204080 0.376974 0.536475
C4    C     C_R   0.562688 0.795247 0.582236 0.531754
C5    C     C_R   0.531558 0.204075 0.623030 0.536451
C6    C     C_R   0.437312 0.795256 0.417769 0.531703
C7    C     C_R   0.470465 0.104434 0.374285 -0.400382
C8    C     C_R   0.564880 0.894782 0.579875 -0.401153
C9    C     C_R   0.529533 0.104429 0.625722 -0.400360
C10   C     C_R   0.435118 0.894789 0.420142 -0.401118
C11   C     C_R   0.500148 0.499987 0.218708 0.914965
C12   C     C_R   0.499847 0.499985 0.781292 0.914919
C13   C     C_R   0.500000 0.052871 0.500004 0.096085
C14   C     C_R   0.499999 0.946367 0.500008 0.095042
C15   C     C_1   0.500074 0.499921 0.065456 -0.209884
C16   C     C_1   0.499917 0.499917 0.934544 -0.210001
C17   C     C_R   0.094559 0.580424 0.550550 -0.188600
C18   C     C_R   0.906150 0.421427 0.550946 -0.178831
C19   C     C_R   0.905433 0.580407 0.449313 -0.188583
C20   C     C_R   0.093854 0.421416 0.449049 -0.178790
C21   C     C_R   0.186530 0.580400 0.549582 -0.181972
C22   C     C_R   0.814248 0.420764 0.549155 -0.201902
C23   C     C_R   0.813463 0.580384 0.450307 -0.181999
C24   C     C_R   0.185756 0.420751 0.450866 -0.201882
C25   C     C_R   0.232099 0.500375 0.500233 -0.021873
C26   C     C_R   0.767899 0.500374 0.499736 -0.021839
C27   C     C_R   0.048140 0.501044 0.499742 0.119226
C28   C     C_R   0.951858 0.501042 0.500178 0.119234
H1    H     H_    0.059761 0.641816 0.592206 0.133833
H2    H     H_    0.941455 0.360204 0.592740 0.128982
H3    H     H_    0.940227 0.641787 0.407599 0.133832
H4    H     H_    0.058553 0.360181 0.407301 0.128983
N1    N     N_R   0.500000 0.252470 0.500000 -0.157227
N2    N     N_R   0.500000 0.747530 0.500000 -0.156707
O1    O     O_R   0.369060 0.579480 0.500010 -0.575881
O2    O     O_R   0.630940 0.420520 0.499990 -0.626839
O3    O     O_R   0.630940 0.579480 0.499990 -0.575872
O4    O     O_R   0.369060 0.420520 0.500010 -0.626840
O5    O     O_R   0.500000 0.579460 0.285340 -0.623317
O6    O     O_R   0.500000 0.420540 0.714660 -0.557291
O7    O     O_R   0.500000 0.579460 0.714660 -0.623319
O8    O     O_R   0.500000 0.420540 0.285340 -0.557325
Zn1   Zn    Zn3+2 0.500000 0.606140 0.500000 0.988618
Zn2   Zn    Zn3+2 0.500000 0.393860 0.500000 1.002489
O9    O     O_3   0.442368 0.253776 0.250292 -0.605376
C29   C     C_3   0.353068 0.233119 0.211618 0.081424
H5    H     H_    0.309763 0.229021 0.313241 0.115209
H6    H     H_    0.349796 0.165329 0.149293 0.133446
C30   C     C_3   0.317831 0.311232 0.108820 -0.289190
H7    H     H_    0.319964 0.379417 0.170075 0.215118
H8    H     H_    0.361106 0.317111 0.007926 0.243442
C31   C     C_3   0.222338 0.291931 0.057645 -0.988552
H9    H     H_    0.219098 0.225376 0.992290 0.267004
H10   H     H_    0.198847 0.350377 0.984516 0.273200
H11   H     H_    0.177509 0.286699 0.156442 0.260749
O10   O     O_3   0.628190 0.744885 0.656967 -0.612689
C32   C     C_3   0.620509 0.758714 0.814057 0.085075
H12   H     H_    0.550791 0.746445 0.852274 0.134378
H13   H     H_    0.641240 0.831306 0.845329 0.118972
C33   C     C_3   0.681881 0.689123 0.895249 -0.297035
H14   H     H_    0.663830 0.616146 0.862313 0.224510
H15   H     H_    0.751927 0.701953 0.860811 0.220886
C34   C     C_3   0.675028 0.698689 0.066155 -0.976835
H16   H     H_    0.696354 0.770036 0.102373 0.260641
H17   H     H_    0.718781 0.645829 0.121452 0.264334
H18   H     H_    0.605480 0.686430 0.102958 0.274484
O11   O     O_3   0.557619 0.253765 0.749720 -0.605356
C35   C     C_3   0.646919 0.233121 0.788397 0.081403
H19   H     H_    0.690235 0.229129 0.686782 0.115280
H20   H     H_    0.650214 0.165284 0.850589 0.133368
C36   C     C_3   0.682107 0.311161 0.891377 -0.289242
H21   H     H_    0.679924 0.379403 0.830289 0.215156
H22   H     H_    0.638832 0.316905 0.992286 0.243467
C37   C     C_3   0.777613 0.291891 0.942500 -0.988476
H23   H     H_    0.780926 0.225205 0.007525 0.266965
H24   H     H_    0.801021 0.350228 0.015945 0.273187
H25   H     H_    0.822460 0.286922 0.843683 0.260767
O12   O     O_3   0.371816 0.744905 0.343013 -0.612703
C38   C     C_3   0.379546 0.758721 0.185927 0.085085
H26   H     H_    0.449256 0.746351 0.147761 0.134453
H27   H     H_    0.358918 0.831342 0.154627 0.118916
C39   C     C_3   0.318103 0.689221 0.104702 -0.297095
H28   H     H_    0.336033 0.616216 0.137687 0.224523
H29   H     H_    0.248062 0.702178 0.139058 0.220871
C40   C     C_3   0.325035 0.698755 0.933801 -0.976839
H30   H     H_    0.303935 0.770170 0.897548 0.260633
H31   H     H_    0.281145 0.646038 0.878473 0.264343
H32   H     H_    0.394559 0.686266 0.897069 0.274557
H33   H     H_    0.221851 0.642155 0.589310 0.169287
H34   H     H_    0.779594 0.358681 0.587856 0.151514
H35   H     H_    0.778136 0.642127 0.410538 0.169275
H36   H     H_    0.220413 0.358656 0.412227 0.151560
H37   H     H_    0.450665 0.067775 0.272644 0.154419
H38   H     H_    0.618181 0.931177 0.638181 0.157101
H39   H     H_    0.549327 0.067766 0.727367 0.154423
H40   H     H_    0.381818 0.931189 0.361836 0.157118

loop_
_geom_bond_atom_site_label_1
_geom_bond_atom_site_label_2
_ccdc_geom_bond_type
C7    C13   A    
C34   H17   S    
C12   O6    A    
C17   H1    S    
C5    O11   S    
C19   H3    S    
C21   H33   S    
O9    C29   S    
O4    Zn2   S    
C29   C30   S    
C37   H24   S    
C33   C34   S    
C3    C7    A    
C32   H13   S    
C3    N1    A    
C15   C16   T    
O10   C32   S    
C11   O8    A    
C33   H15   S    
C23   C26   A    
C9    C13   A    
C11   C15   S    
C12   C16   S    
C35   H19   S    
C30   H8    S    
C37   H25   S    
C5    N1    A    
C18   H2    S    
O1    Zn1   S    
C9    H39   S    
C31   H11   S    
C4    C8    A    
C34   H18   S    
C13   C14   S    
C4    O10   S    
C1    C25   S    
O7    Zn1   S    
O8    Zn2   S    
C24   H36   S    
C31   H10   S    
C29   H6    S    
C40   H31   S    
C7    H37   S    
C4    N2    A    
C37   H23   S    
O11   C35   S    
C17   C27   A    
C20   C24   A    
C8    H38   S    
C24   C25   A    
C10   C14   A    
C36   H22   S    
O12   C38   S    
C32   C33   S    
O5    Zn1   S    
C40   H30   S    
C3    O9    S    
C17   C21   A    
C6    N2    A    
C33   H14   S    
O3    Zn1   S    
C19   C23   A    
C5    C9    A    
C12   O7    A    
C36   C37   S    
C10   H40   S    
C30   C31   S    
C22   H34   S    
C18   C28   A    
C2    C26   S    
C11   O5    A    
C19   C28   A    
C1    O4    A    
C30   H7    S    
C39   H29   S    
C23   H35   S    
O2    Zn2   S    
C31   H9    S    
C1    O1    A    
C38   H27   S    
C20   H4    S    
C40   H32   S    
C2    O2    A    
C21   C25   A    
C29   H5    S    
C8    C14   A    
C18   C22   A    
N1    Zn2   S    
N2    Zn1   S    
C34   H16   S    
C6    C10   A    
C38   C39   S    
C20   C27   A    
C39   C40   S    
C36   H21   S    
C2    O3    A    
C32   H12   S    
C35   C36   S    
C6    O12   S    
C38   H26   S    
O6    Zn2   S    
C35   H20   S    
C39   H28   S    
C22   C26   A    
C27   C28   S    
