data_mof_unit_67569.cif
_audit_creation_date              2013-03-05T15:41:22-0500
_audit_creation_method            fapswitch 2.2
_symmetry_space_group_name_H-M    P1
_symmetry_Int_Tables_number       1
_space_group_crystal_system       triclinic
_cell_length_a                    10.79333
_cell_length_b                    8.89044
_cell_length_c                    7.567071
_cell_angle_alpha                 103.002029
_cell_angle_beta                  94.396012
_cell_angle_gamma                 94.222746
_cell_volume                      702.326072502

loop_
_atom_site_label
_atom_site_type_symbol
_atom_site_description
_atom_site_fract_x
_atom_site_fract_y
_atom_site_fract_z
_atom_type_partial_charge
O1    O     O_R   0.509190 0.286130 0.619780 -0.531813
O2    O     O_R   0.490810 0.713870 0.380220 -0.531787
O3    O     O_R   0.485310 0.256770 0.308360 -0.644630
O4    O     O_R   0.514690 0.743230 0.691640 -0.644628
C1    C     C_R   0.493710 0.200570 0.454101 0.769522
C2    C     C_R   0.506284 0.799434 0.545905 0.769710
O5    O     O_R   0.328790 0.514640 0.655680 -0.542693
O6    O     O_R   0.671210 0.485360 0.344320 -0.542744
O7    O     O_R   0.304910 0.485280 0.344260 -0.571146
O8    O     O_R   0.695090 0.514720 0.655740 -0.571101
C3    C     C_R   0.259828 0.495263 0.501468 0.835646
C4    C     C_R   0.740171 0.504703 0.498520 0.836105
Cu1   Cu    Cu3+1 0.514140 0.517380 0.684380 1.047995
Cu2   Cu    Cu3+1 0.485860 0.482620 0.315620 1.047964
N1    N     N_2   0.464560 0.456420 0.038510 0.114635
N2    N     N_2   0.535440 0.543580 0.961490 0.114646
C5    C     C_3   0.045453 0.500476 0.667812 0.325583
C6    C     C_3   0.954545 0.499456 0.332125 0.325644
C7    C     C_3   0.946951 0.375448 0.549898 -0.325719
C8    C     C_3   0.053043 0.624488 0.450060 -0.325796
H1    H     H_    0.903036 0.272544 0.589666 0.217182
H2    H     H_    0.096957 0.727408 0.410325 0.217128
C9    C     C_3   0.876576 0.506555 0.494596 -0.294830
C10   C     C_3   0.123421 0.493370 0.505355 -0.294811
C11   C     C_3   0.974829 0.628874 0.613489 0.291767
C12   C     C_3   0.025168 0.371040 0.386459 0.291628
C13   C     C_2   0.485945 0.032592 0.429201 0.143931
C14   C     C_2   0.514037 0.967420 0.570826 0.143922
N3    N     N_R   0.091471 0.487340 0.848178 0.198024
O9    O     O_R   0.059660 0.362664 0.901667 -0.298936
O10   O     O_R   0.162027 0.598727 0.958152 -0.319534
N4    N     N_R   0.908558 0.512662 0.151759 0.197962
O11   O     O_R   0.940420 0.637349 0.098304 -0.299050
O12   O     O_R   0.838012 0.401301 0.041728 -0.319612
N5    N     N_R   0.947568 0.776976 0.724332 0.121155
O13   O     O_R   0.999554 0.826963 0.889706 -0.296129
O14   O     O_R   0.891665 0.872594 0.645722 -0.430378
N6    N     N_R   0.052358 0.222846 0.275715 0.120664
O15   O     O_R   0.107443 0.126777 0.354633 -0.429717
O16   O     O_R   0.000885 0.173228 0.109985 -0.296017
O17   O     O_3   0.356981 0.399375 0.935568 -0.449626
C15   C     C_3   0.321721 0.251716 0.962560 0.237928
H3    H     H_    0.263461 0.263363 0.078258 0.190351
H4    H     H_    0.403510 0.189807 0.990591 0.159661
C16   C     C_3   0.244929 0.154059 0.790769 -0.659320
H5    H     H_    0.300944 0.069717 0.710023 0.198687
H6    H     H_    0.163574 0.088139 0.828170 0.267390
H7    H     H_    0.210788 0.227522 0.700387 0.281130
O18   O     O_3   0.643011 0.600636 0.064450 -0.449647
C17   C     C_3   0.678292 0.748274 0.037418 0.237693
H8    H     H_    0.596512 0.810204 0.009393 0.159631
H9    H     H_    0.736549 0.736586 0.921716 0.190518
C18   C     C_3   0.755106 0.845940 0.209179 -0.659188
H10   H     H_    0.789378 0.772459 0.299470 0.281298
H11   H     H_    0.836382 0.911985 0.171723 0.267254
H12   H     H_    0.699047 0.930171 0.290044 0.198804
O19   O     O_3   0.467310 0.943015 0.253307 -0.635056
C19   C     C_3   0.340743 0.931558 0.187897 0.091952
H13   H     H_    0.302908 0.046260 0.209194 0.167109
H14   H     H_    0.284191 0.854648 0.254844 0.201506
C20   C     C_3   0.331052 0.861963 0.985068 -0.651267
H15   H     H_    0.360740 0.743217 0.959936 0.292288
H16   H     H_    0.234934 0.861428 0.922916 0.254950
H17   H     H_    0.394390 0.930167 0.919707 0.242288
O20   O     O_3   0.532675 0.057005 0.746727 -0.635073
C21   C     C_3   0.659234 0.068400 0.812157 0.091975
H18   H     H_    0.715844 0.145182 0.745120 0.201507
H19   H     H_    0.696962 0.953659 0.790998 0.167496
C22   C     C_3   0.668985 0.138100 0.014967 -0.651517
H20   H     H_    0.605699 0.069923 0.080438 0.242280
H21   H     H_    0.765139 0.138683 0.077051 0.254906
H22   H     H_    0.639283 0.256838 0.040035 0.292350

loop_
_geom_bond_atom_site_label_1
_geom_bond_atom_site_label_2
_geom_bond_distance
_ccdc_geom_bond_type
C7    H1    1.110894 S    
C22   H22   1.105518 S    
C21   H19   1.108933 S    
O7    Cu2   1.982757 S    
N4    O12   1.293866 A    
N3    O9    1.295160 A    
Cu1   Cu2   2.728131 S    
C20   H17   1.097899 S    
C5    N3    1.448956 S    
O17   C15   1.403159 S    
C18   H11   1.109867 S    
C7    C9    1.553007 S    
N5    O13   1.297586 A    
C6    C12   1.531288 S    
O6    C4    1.304926 A    
C5    C11   1.531123 S    
N4    O11   1.295239 A    
C19   C20   1.512610 S    
C9    C11   1.536323 S    
C17   H8    1.105731 S    
Cu1   N2    2.050019 S    
N3    O10   1.293866 A    
C1    C13   1.457840 S    
C16   H5    1.103791 S    
O5    C3    1.304964 A    
O7    C3    1.306671 A    
C4    C9    1.473796 S    
O19   C19   1.405245 S    
O2    C2    1.303258 A    
O3    Cu2   1.995820 S    
C15   H4    1.105719 S    
C21   C22   1.512618 S    
C11   N5    1.456611 S    
O1    C1    1.303213 A    
O8    C4    1.306714 A    
C13   C14   1.353370 D    
N6    O16   1.297756 A    
C10   C12   1.536379 S    
C21   H18   1.112902 S    
C6    C8    1.548036 S    
C22   H20   1.097928 S    
C16   H6    1.109754 S    
C13   O19   1.380090 S    
C20   H15   1.105521 S    
O2    Cu2   1.999049 S    
O18   C17   1.403148 S    
C16   H7    1.108110 S    
C5    C10   1.534566 S    
C6    N4    1.449059 S    
C8    C11   1.544906 S    
C19   H14   1.112899 S    
C6    C9    1.534660 S    
C17   C18   1.533486 S    
C5    C7    1.547985 S    
C8    C10   1.553091 S    
C3    C10   1.473770 S    
O5    Cu1   1.993431 S    
O1    Cu1   1.999048 S    
N2    O18   1.345030 S    
N1    O17   1.345021 S    
O4    C2    1.308946 A    
O20   C21   1.405241 S    
C15   H3    1.107173 S    
C18   H12   1.103904 S    
C17   H9    1.107162 S    
C22   H21   1.105076 S    
C7    C12   1.544975 S    
Cu2   N1    2.050019 S    
C12   N6    1.456724 S    
O6    Cu2   1.993433 S    
N5    O14   1.299462 A    
C19   H13   1.109095 S    
C18   H10   1.108195 S    
C14   O20   1.380164 S    
O8    Cu1   1.982757 S    
C20   H16   1.104971 S    
C2    C14   1.457901 S    
N1    N2    1.307542 D    
O4    Cu1   1.995821 S    
C8    H2    1.110889 S    
O3    C1    1.308966 A    
C15   C16   1.533509 S    
N6    O15   1.299784 A    
