data_mof_unit_57516.cif
_audit_creation_date              2013-03-05T15:42:41-0500
_audit_creation_method            fapswitch 2.2
_symmetry_space_group_name_H-M    P1
_symmetry_Int_Tables_number       1
_space_group_crystal_system       triclinic
_cell_length_a                    19.001911
_cell_length_b                    11.116764
_cell_length_c                    18.627057
_cell_angle_alpha                 90.059034
_cell_angle_beta                  91.624033
_cell_angle_gamma                 90.662829
_cell_volume                      3932.92769324

loop_
_atom_site_label
_atom_site_type_symbol
_atom_site_description
_atom_site_fract_x
_atom_site_fract_y
_atom_site_fract_z
_atom_type_partial_charge
O1    O     O_R   0.788190 0.043000 0.172520 -0.490705
O2    O     O_R   0.211810 0.043000 0.827480 -0.511782
O3    O     O_R   0.288190 0.543000 0.172520 -0.490709
O4    O     O_R   0.711810 0.543000 0.827480 -0.511780
O5    O     O_R   0.766240 0.292300 0.176860 -0.495859
O6    O     O_R   0.233760 0.292300 0.823140 -0.507824
O7    O     O_R   0.266240 0.792300 0.176860 -0.495858
O8    O     O_R   0.733760 0.792300 0.823140 -0.507827
C1    C     C_R   0.730881 0.377157 0.146878 0.557538
C2    C     C_R   0.270801 0.373310 0.855175 0.568241
C3    C     C_R   0.230881 0.877157 0.146878 0.557540
C4    C     C_R   0.770801 0.873310 0.855175 0.568238
O9    O     O_R   0.670310 0.409160 0.168720 -0.541394
O10   O     O_R   0.329690 0.409160 0.831280 -0.531011
O11   O     O_R   0.170310 0.909160 0.168720 -0.541393
O12   O     O_R   0.829690 0.909160 0.831280 -0.531015
O13   O     O_R   0.556160 0.251900 0.173380 -0.491183
O14   O     O_R   0.443840 0.251900 0.826620 -0.490639
O15   O     O_R   0.056160 0.751900 0.173380 -0.491167
O16   O     O_R   0.943840 0.751900 0.826620 -0.490643
C5    C     C_R   0.563696 0.151197 0.138048 0.618804
C6    C     C_R   0.468566 0.155818 0.854540 0.587720
C7    C     C_R   0.063696 0.651196 0.138048 0.618806
C8    C     C_R   0.968566 0.655818 0.854540 0.587719
O17   O     O_R   0.545410 0.050140 0.168240 -0.520954
O18   O     O_R   0.454590 0.050140 0.831760 -0.515759
O19   O     O_R   0.045410 0.550140 0.168240 -0.520952
O20   O     O_R   0.954590 0.550140 0.831760 -0.515759
O21   O     O_R   0.681530 0.958350 0.176970 -0.516635
O22   O     O_R   0.318470 0.958350 0.823030 -0.493134
O23   O     O_R   0.181530 0.458350 0.176970 -0.516634
O24   O     O_R   0.818470 0.458350 0.823030 -0.493134
C9    C     C_R   0.743307 0.963965 0.151305 0.592907
C10   C     C_R   0.257474 0.967703 0.850385 0.581651
C11   C     C_R   0.243307 0.463965 0.151305 0.592908
C12   C     C_R   0.757474 0.467703 0.850385 0.581653
O25   O     O_R   0.788610 0.044480 0.334450 -0.472266
O26   O     O_R   0.211390 0.044480 0.665550 -0.534339
O27   O     O_R   0.288610 0.544480 0.334450 -0.472256
O28   O     O_R   0.711390 0.544480 0.665550 -0.534331
O29   O     O_R   0.766630 0.293670 0.326970 -0.547183
O30   O     O_R   0.233370 0.293670 0.673030 -0.544741
O31   O     O_R   0.266630 0.793670 0.326970 -0.547184
O32   O     O_R   0.733370 0.793670 0.673030 -0.544746
C13   C     C_R   0.734882 0.391061 0.347967 0.524020
C14   C     C_R   0.266636 0.382915 0.648835 0.541116
C15   C     C_R   0.234881 0.891061 0.347967 0.524016
C16   C     C_R   0.766634 0.882918 0.648836 0.541139
O33   O     O_R   0.670730 0.410640 0.330640 -0.509337
O34   O     O_R   0.329270 0.410640 0.669360 -0.454406
O35   O     O_R   0.170730 0.910640 0.330640 -0.509363
O36   O     O_R   0.829270 0.910640 0.669360 -0.454365
O37   O     O_R   0.556550 0.253260 0.323480 -0.448121
O38   O     O_R   0.443450 0.253260 0.676520 -0.436034
O39   O     O_R   0.056550 0.753260 0.323480 -0.448096
O40   O     O_R   0.943450 0.753260 0.676520 -0.436034
C17   C     C_R   0.532242 0.155580 0.353153 0.585678
C18   C     C_R   0.468505 0.159955 0.647462 0.536227
C19   C     C_R   0.032244 0.655580 0.353153 0.585733
C20   C     C_R   0.968503 0.659955 0.647461 0.536226
O41   O     O_R   0.545830 0.051610 0.330160 -0.547174
O42   O     O_R   0.454170 0.051610 0.669840 -0.549314
O43   O     O_R   0.045830 0.551610 0.330160 -0.547180
O44   O     O_R   0.954170 0.551610 0.669840 -0.549311
O45   O     O_R   0.681920 0.959720 0.327070 -0.518490
O46   O     O_R   0.318080 0.959720 0.672930 -0.520581
O47   O     O_R   0.181920 0.459720 0.327070 -0.518485
O48   O     O_R   0.818080 0.459720 0.672930 -0.520579
C21   C     C_R   0.728584 0.023969 0.363797 0.559449
C22   C     C_R   0.270554 0.020795 0.635544 0.557823
C23   C     C_R   0.228585 0.523968 0.363797 0.559461
C24   C     C_R   0.770554 0.520794 0.635544 0.557826
Cr1   Cr    Cr6+3 0.772820 0.169820 0.252640 1.035592
Cr2   Cr    Cr6+3 0.227180 0.169820 0.747360 1.016872
Cr3   Cr    Cr6+3 0.272820 0.669820 0.252640 1.035588
Cr4   Cr    Cr6+3 0.727180 0.669820 0.747360 1.016880
Cr5   Cr    Cr6+3 0.615040 0.323610 0.249150 1.058311
Cr6   Cr    Cr6+3 0.384960 0.323610 0.750850 1.090247
Cr7   Cr    Cr6+3 0.115040 0.823610 0.249150 1.058312
Cr8   Cr    Cr6+3 0.884960 0.823610 0.750850 1.090247
Cr9   Cr    Cr6+3 0.616720 0.011130 0.250660 1.006436
Cr10  Cr    Cr6+3 0.383280 0.011130 0.749340 1.009633
Cr11  Cr    Cr6+3 0.116720 0.511130 0.250660 1.006441
Cr12  Cr    Cr6+3 0.883280 0.511130 0.749340 1.009635
O49   O     O_3   0.668190 0.168190 0.250820 -0.295950
O50   O     O_3   0.331810 0.168190 0.749180 -0.262663
O51   O     O_3   0.168190 0.668190 0.250820 -0.295958
O52   O     O_3   0.831810 0.668190 0.749180 -0.262663
C25   C     C_3   0.543908 0.261945 0.962512 -0.168529
C26   C     C_3   0.495873 0.259916 0.029249 -0.146533
C27   C     C_3   0.043908 0.761946 0.962512 -0.168530
C28   C     C_3   0.995874 0.759916 0.029249 -0.146532
C29   C     C_3   0.587783 0.160560 0.996764 0.202681
C30   C     C_3   0.450163 0.161528 0.992862 0.222534
C31   C     C_3   0.087783 0.660560 0.996764 0.202681
C32   C     C_3   0.950163 0.661528 0.992862 0.222535
H1    H     H_    0.564545 0.342666 0.934821 0.120425
H2    H     H_    0.475703 0.339599 0.057798 0.130754
H3    H     H_    0.064545 0.842666 0.934821 0.120424
H4    H     H_    0.975703 0.839599 0.057798 0.130758
C33   C     C_3   0.541218 0.158434 0.062397 0.011845
C34   C     C_3   0.496981 0.163617 0.927398 0.005879
C35   C     C_3   0.041218 0.658434 0.062397 0.011844
C36   C     C_3   0.996981 0.663617 0.927398 0.005879
C37   C     C_3   0.493892 0.060591 0.026431 -0.124217
C38   C     C_3   0.541829 0.062794 0.960514 -0.142404
C39   C     C_3   0.993892 0.560591 0.026431 -0.124217
C40   C     C_3   0.041828 0.562794 0.960514 -0.142404
H5    H     H_    0.472482 0.978638 0.052225 0.152860
H6    H     H_    0.560294 0.985252 0.929530 0.141748
H7    H     H_    0.972482 0.478638 0.052225 0.152860
H8    H     H_    0.060294 0.485252 0.929530 0.141748
H9    H     H_    0.859339 0.988289 0.073587 0.125419
H10   H     H_    0.151328 0.020869 0.934853 0.134254
H11   H     H_    0.359339 0.488289 0.073587 0.125417
H12   H     H_    0.651328 0.520869 0.934853 0.134254
C41   C     C_R   0.757629 0.896586 0.931453 0.085915
C42   C     C_R   0.248927 0.912910 0.073586 0.068651
C43   C     C_R   0.257629 0.396586 0.931453 0.085914
C44   C     C_R   0.748927 0.412909 0.073586 0.068651
C45   C     C_R   0.699359 0.846088 0.968045 0.067882
C46   C     C_R   0.304681 0.859193 0.035856 0.092800
C47   C     C_R   0.199359 0.346088 0.968045 0.067882
C48   C     C_R   0.804681 0.359193 0.035856 0.092800
C49   C     C_R   0.701921 0.842820 0.044245 0.063547
C50   C     C_R   0.300223 0.854518 0.959718 0.092426
C51   C     C_R   0.201921 0.342820 0.044245 0.063547
C52   C     C_R   0.800223 0.354518 0.959718 0.092426
C53   C     C_R   0.814761 0.946384 0.045530 -0.066640
C54   C     C_R   0.194154 0.973699 0.961409 -0.104516
C55   C     C_R   0.314761 0.446384 0.045530 -0.066641
C56   C     C_R   0.694154 0.473699 0.961409 -0.104516
C57   C     C_R   0.815299 0.942510 0.971967 -0.059417
C58   C     C_R   0.195266 0.970901 0.034748 -0.098698
C59   C     C_R   0.315299 0.442510 0.971967 -0.059417
C60   C     C_R   0.695266 0.470901 0.034748 -0.098699
C61   C     C_R   0.639135 0.796973 0.932018 -0.096547
C62   C     C_R   0.362438 0.803777 0.071141 -0.067411
C63   C     C_R   0.139135 0.296973 0.932018 -0.096547
C64   C     C_R   0.862438 0.303777 0.071141 -0.067411
C65   C     C_R   0.088292 0.233991 0.969472 -0.148098
C66   C     C_R   0.906577 0.228935 0.033679 -0.134742
C67   C     C_R   0.588292 0.733991 0.969472 -0.148098
C68   C     C_R   0.406577 0.728935 0.033679 -0.134742
C69   C     C_R   0.595260 0.720588 0.043388 -0.140316
C70   C     C_R   0.397575 0.714632 0.959916 -0.128499
C71   C     C_R   0.095260 0.220588 0.043388 -0.140317
C72   C     C_R   0.897575 0.214632 0.959916 -0.128500
C73   C     C_R   0.651114 0.775094 0.080739 -0.075671
C74   C     C_R   0.345833 0.778380 0.922805 -0.042271
C75   C     C_R   0.151114 0.275094 0.080739 -0.075671
C76   C     C_R   0.845834 0.278380 0.922805 -0.042271
C77   C     C_R   0.755854 0.906370 0.082029 0.056256
C78   C     C_R   0.247799 0.921347 0.922925 0.057158
C79   C     C_R   0.255854 0.406370 0.082029 0.056255
C80   C     C_R   0.747799 0.421347 0.922925 0.057158
H13   H     H_    0.628549 0.809243 0.875369 0.131044
H14   H     H_    0.374287 0.816617 0.127665 0.131386
H15   H     H_    0.128549 0.309243 0.875369 0.131044
H16   H     H_    0.874287 0.316617 0.127665 0.131386
H17   H     H_    0.862897 0.973267 0.947074 0.125167
H18   H     H_    0.150544 0.008361 0.060802 0.135459
H19   H     H_    0.362897 0.473268 0.947074 0.125167
H20   H     H_    0.650544 0.508361 0.060802 0.135459
H21   H     H_    0.044844 0.192049 0.940323 0.105843
H22   H     H_    0.945959 0.178466 0.062757 0.097790
H23   H     H_    0.544844 0.692049 0.940323 0.105843
H24   H     H_    0.445959 0.678466 0.062757 0.097789
H25   H     H_    0.059034 0.164485 0.072114 0.097095
H26   H     H_    0.929799 0.152448 0.931226 0.091445
H27   H     H_    0.559034 0.664485 0.072114 0.097095
H28   H     H_    0.429799 0.652448 0.931226 0.091446
H29   H     H_    0.655965 0.758925 0.137920 0.126780
H30   H     H_    0.339116 0.761382 0.865837 0.126224
H31   H     H_    0.155965 0.258925 0.137920 0.126781
H32   H     H_    0.839116 0.261382 0.865837 0.126223
C81   C     C_R   0.502018 0.177666 0.577014 -0.052499
C82   C     C_R   0.504353 0.157137 0.426506 -0.041725
C83   C     C_R   0.002011 0.677670 0.577010 -0.052507
C84   C     C_R   0.004350 0.657142 0.426503 -0.041731
C85   C     C_R   0.529721 0.075132 0.545568 -0.029884
C86   C     C_R   0.517062 0.057148 0.471897 -0.017871
C87   C     C_R   0.029719 0.575141 0.545565 -0.029885
C88   C     C_R   0.017058 0.557154 0.471895 -0.017880
C89   C     C_R   0.481633 0.264685 0.456324 0.172345
C90   C     C_R   0.481461 0.276729 0.532103 0.170740
C91   C     C_R   0.981628 0.764694 0.456318 0.172304
C92   C     C_R   0.981452 0.776731 0.532099 0.170739
C93   C     C_R   0.556205 0.979640 0.587950 -0.065240
C94   C     C_R   0.510234 0.937784 0.447540 -0.089398
C95   C     C_R   0.056209 0.479654 0.587948 -0.065241
C96   C     C_R   0.010234 0.437788 0.447540 -0.089394
C97   C     C_R   0.048526 0.362552 0.563226 -0.113634
C98   C     C_R   0.023492 0.343219 0.493607 -0.155689
C99   C     C_R   0.548517 0.862540 0.563227 -0.113638
C100  C     C_R   0.523484 0.843212 0.493607 -0.155697
H33   H     H_    0.574268 0.994078 0.643023 0.124794
H34   H     H_    0.487181 0.914944 0.395564 0.139709
H35   H     H_    0.074272 0.494095 0.643020 0.124792
H36   H     H_    0.987181 0.414944 0.395564 0.139707
H37   H     H_    0.059686 0.287419 0.598501 0.120058
H38   H     H_    0.007974 0.256036 0.475868 0.108613
H39   H     H_    0.559671 0.787405 0.598502 0.120061
H40   H     H_    0.507961 0.756031 0.475866 0.108610
H41   H     H_    0.665971 0.840164 0.429196 0.153395
H42   H     H_    0.378721 0.970625 0.548608 0.150483
H43   H     H_    0.165981 0.340149 0.429192 0.153396
H44   H     H_    0.878721 0.470606 0.548611 0.150486
C101  C     C_R   0.737575 0.939080 0.585245 0.014739
C102  C     C_R   0.262104 0.970946 0.407392 0.012831
C103  C     C_R   0.237580 0.439072 0.585241 0.014722
C104  C     C_R   0.762108 0.470944 0.407391 0.012811
C105  C     C_R   0.763166 0.051449 0.564782 0.047250
C106  C     C_R   0.213109 0.045229 0.440194 0.052432
C107  C     C_R   0.263169 0.551442 0.564780 0.047241
C108  C     C_R   0.713117 0.545235 0.440192 0.052420
C109  C     C_R   0.770209 0.073903 0.490845 0.044691
C110  C     C_R   0.205493 0.030704 0.514327 0.007859
C111  C     C_R   0.270209 0.573899 0.490843 0.044677
C112  C     C_R   0.705499 0.530713 0.514324 0.007859
C113  C     C_R   0.695581 0.898714 0.465321 -0.114732
C114  C     C_R   0.329115 0.980083 0.519352 -0.152644
C115  C     C_R   0.195588 0.398702 0.465318 -0.114710
C116  C     C_R   0.829116 0.480071 0.519353 -0.152644
C117  C     C_R   0.702431 0.864506 0.535771 -0.136069
C118  C     C_R   0.324869 0.951428 0.445512 -0.152085
C119  C     C_R   0.202439 0.364494 0.535768 -0.136079
C120  C     C_R   0.824870 0.451416 0.445513 -0.152106
C121  C     C_R   0.793860 0.130399 0.616343 -0.065585
C122  C     C_R   0.161541 0.106364 0.399659 -0.084411
C123  C     C_R   0.293859 0.630395 0.616342 -0.065587
C124  C     C_R   0.661554 0.606378 0.399654 -0.084410
C125  C     C_R   0.845434 0.210620 0.596057 -0.065560
C126  C     C_R   0.094494 0.113604 0.425649 -0.098731
C127  C     C_R   0.345428 0.710625 0.596056 -0.065561
C128  C     C_R   0.594507 0.613633 0.425644 -0.098696
C129  C     C_R   0.860789 0.219899 0.524200 -0.094061
C130  C     C_R   0.081458 0.073582 0.495031 -0.100075
C131  C     C_R   0.360781 0.719910 0.524199 -0.094067
C132  C     C_R   0.581465 0.573601 0.495023 -0.100038
C133  C     C_R   0.820582 0.160504 0.471412 -0.053143
C134  C     C_R   0.136353 0.035601 0.539929 -0.113018
C135  C     C_R   0.320578 0.660509 0.471410 -0.053170
C136  C     C_R   0.636358 0.535615 0.539924 -0.113013
C137  C     C_R   0.732298 0.999567 0.440718 0.024424
C138  C     C_R   0.266957 0.004385 0.556421 -0.002685
C139  C     C_R   0.232300 0.499561 0.440716 0.024444
C140  C     C_R   0.766960 0.504385 0.556421 -0.002681
H45   H     H_    0.783858 0.120675 0.673041 0.111035
H46   H     H_    0.170108 0.130503 0.344173 0.130272
H47   H     H_    0.283857 0.620669 0.673039 0.111042
H48   H     H_    0.670124 0.630514 0.344168 0.130262
H49   H     H_    0.682950 0.776641 0.550810 0.145839
H50   H     H_    0.367791 0.908415 0.419407 0.107477
H51   H     H_    0.182959 0.276628 0.550806 0.145839
H52   H     H_    0.867791 0.408395 0.419410 0.107477
H53   H     H_    0.875309 0.262072 0.635958 0.136316
H54   H     H_    0.052348 0.145078 0.390458 0.138388
H55   H     H_    0.375301 0.762080 0.635957 0.136324
H56   H     H_    0.552365 0.645117 0.390452 0.138392
H57   H     H_    0.901532 0.279182 0.508981 0.103953
H58   H     H_    0.028825 0.074851 0.515000 0.207068
H59   H     H_    0.401522 0.779198 0.508980 0.103959
H60   H     H_    0.528830 0.574858 0.514987 0.207060
H61   H     H_    0.834144 0.178179 0.416930 0.166685
H62   H     H_    0.121639 0.002217 0.591543 0.197298
H63   H     H_    0.334139 0.678186 0.416929 0.166678
H64   H     H_    0.621642 0.502228 0.591536 0.197319
N1    N     N_R   0.663887 0.157497 0.995728 0.052424
O53   O     O_R   0.700717 0.156012 0.055318 -0.378665
O54   O     O_R   0.695056 0.150200 0.934697 -0.402493
N2    N     N_R   0.373642 0.160600 0.993198 0.057024
O55   O     O_R   0.336961 0.159178 0.933380 -0.351951
O56   O     O_R   0.341682 0.156685 0.053953 -0.381427
N3    N     N_R   0.163887 0.657497 0.995728 0.052424
O57   O     O_R   0.200717 0.656012 0.055318 -0.378666
O58   O     O_R   0.195056 0.650200 0.934697 -0.402493
N4    N     N_R   0.873642 0.660600 0.993198 0.057025
O59   O     O_R   0.836961 0.659178 0.933380 -0.351952
O60   O     O_R   0.841682 0.656685 0.053953 -0.381425
N5    N     N_R   0.449072 0.352065 0.409285 0.118502
O61   O     O_R   0.406868 0.316274 0.357066 -0.319040
O62   O     O_R   0.461346 0.466471 0.417079 -0.340979
N6    N     N_R   0.455638 0.385423 0.562727 0.101019
O63   O     O_R   0.396072 0.429023 0.539915 -0.296449
O64   O     O_R   0.491269 0.441048 0.613674 -0.385548
N7    N     N_R   0.949092 0.852102 0.409273 0.118459
O65   O     O_R   0.907006 0.816339 0.356958 -0.319039
O66   O     O_R   0.961258 0.966516 0.417167 -0.340941
N8    N     N_R   0.955608 0.885407 0.562724 0.101079
O67   O     O_R   0.896012 0.928923 0.539942 -0.296429
O68   O     O_R   0.991234 0.941064 0.613661 -0.385540

loop_
_geom_bond_atom_site_label_1
_geom_bond_atom_site_label_2
_geom_bond_distance
_ccdc_geom_bond_type
O4    C12   1.277566 A    
O7    Cr3   1.964670 S    
O39   C19   1.304629 A    
C23   C139  1.458412 S    
C41   C57   1.403725 A    
Cr7   O51   2.011180 S    
C94   H34   1.080091 S    
N6    O63   1.297085 A    
C135  H63   1.071889 S    
O25   C21   1.296682 A    
C17   C82   1.479614 S    
C99   H39   1.082436 S    
O21   C9    1.280873 A    
C132  C136  1.388269 A    
C97   H37   1.082437 S    
C1    O9    1.285517 A    
O44   Cr12  2.076144 S    
C120  H52   1.077642 S    
C3    O11   1.285517 A    
C7    C35   1.463398 S    
C4    O12   1.275696 A    
N2    O55   1.297418 A    
N7    O66   1.297581 A    
C124  H48   1.084351 S    
C100  H40   1.059569 S    
O2    C10   1.277567 A    
C112  C140  1.421595 A    
C63   H15   1.077686 S    
O17   Cr9   2.068375 S    
H10   C54   1.081433 S    
C54   C58   1.366040 A    
C116  C120  1.411379 A    
O31   Cr3   1.958436 S    
C13   C104  1.495460 S    
O16   Cr8   1.952614 S    
C29   C33   1.529372 S    
C83   C92   1.434762 A    
C101  C105  1.392702 A    
C81   C90   1.434753 A    
O28   Cr4   2.076961 S    
O12   Cr8   2.088385 S    
O22   Cr10  1.955956 S    
O15   C7    1.309371 A    
C87   C88   1.400195 A    
C84   C91   1.395904 A    
O46   Cr10  1.941472 S    
O48   C24   1.319474 A    
C82   C86   1.416097 A    
C49   C73   1.407994 A    
C53   C57   1.371219 A    
C50   C78   1.411899 A    
C21   C137  1.458427 S    
N1    O54   1.299560 A    
C106  C110  1.401814 A    
C133  H61   1.071891 S    
C105  C121  1.409814 A    
C60   H20   1.078075 S    
C93   H33   1.083675 S    
C126  H54   1.081966 S    
C59   H19   1.080222 S    
O5    Cr1   1.964670 S    
Cr12  O52   2.011073 S    
C109  C137  1.421336 A    
C119  H51   1.080581 S    
C17   O41   1.264178 A    
C43   C47   1.426485 A    
C19   O43   1.264174 A    
C20   O44   1.303274 A    
C24   C140  1.484443 S    
Cr8   O52   1.990949 S    
O46   C22   1.319476 A    
O23   C11   1.280873 A    
C55   C79   1.394729 A    
C122  C126  1.378867 A    
C96   H36   1.080091 S    
C31   C40   1.530616 S    
C52   C80   1.411899 A    
C99   C100  1.384299 A    
C128  C132  1.395116 A    
C16   O36   1.274039 A    
C29   N1    1.447588 S    
C30   C34   1.529699 S    
C117  H49   1.080580 S    
C97   C98   1.384297 A    
O27   C23   1.296676 A    
C131  C135  1.389581 A    
C86   C94   1.405304 A    
C136  H64   1.074144 S    
O31   C15   1.310238 A    
O16   C8    1.277113 A    
C121  H45   1.083664 S    
O32   C16   1.260771 A    
O47   Cr11  1.950752 S    
C113  C117  1.369719 A    
C123  H47   1.083663 S    
C20   C83   1.487039 S    
O5    C1    1.283625 A    
O24   C12   1.284510 A    
C19   C84   1.479597 S    
C11   C79   1.466691 S    
C126  C130  1.395107 A    
C115  C119  1.369712 A    
C47   C63   1.413980 A    
C124  C128  1.378867 A    
C42   C46   1.424384 A    
C45   C61   1.413980 A    
O32   Cr4   1.958529 S    
C125  C129  1.381670 A    
C2    C43   1.472839 S    
C51   C75   1.407993 A    
C52   C76   1.410627 A    
O11   Cr7   2.078703 S    
C39   C40   1.549472 S    
O27   Cr3   2.083713 S    
O3    Cr3   2.080881 S    
C42   C58   1.397518 A    
O8    C4    1.273937 A    
Cr5   O49   2.011180 S    
C70   C74   1.387570 A    
C102  C118  1.389952 A    
C131  H59   1.055977 S    
C132  H60   1.077129 S    
C31   C35   1.529372 S    
C109  C133  1.404685 A    
C128  H56   1.081964 S    
O22   C10   1.284511 A    
C129  H57   1.055980 S    
C2    O10   1.275696 A    
C27   C28   1.562973 S    
C65   C71   1.387777 A    
C115  C139  1.398167 A    
C4    C41   1.472839 S    
C96   C98   1.378677 A    
C71   C75   1.385644 A    
C45   C49   1.419350 A    
C29   C38   1.530616 S    
C66   H22   1.074949 S    
C62   H14   1.079417 S    
C47   C51   1.419350 A    
H12   C56   1.081433 S    
O3    C11   1.272142 A    
C56   C60   1.366040 A    
C30   N2    1.454150 S    
C54   C78   1.394963 A    
Cr1   O49   1.987373 S    
Cr3   O51   1.987373 S    
O26   Cr2   2.076961 S    
C5    O17   1.304776 A    
O29   C13   1.310228 A    
O28   C24   1.299147 A    
O14   C6    1.277113 A    
C39   H7    1.108954 S    
C72   C76   1.387570 A    
C35   C39   1.543478 S    
H44   C116  1.081597 S    
C65   H21   1.076563 S    
O40   Cr8   1.966968 S    
C61   H13   1.077686 S    
N6    O64   1.301558 A    
C9    C77   1.466691 S    
O41   Cr9   2.082230 S    
C64   H16   1.079417 S    
C53   C77   1.394729 A    
C50   C74   1.410627 A    
H42   C114  1.081597 S    
C81   C85   1.396221 A    
C56   C80   1.394963 A    
O33   Cr5   2.059657 S    
C110  C134  1.411941 A    
C121  C125  1.378393 A    
O35   Cr7   2.059657 S    
O29   Cr1   1.958436 S    
C84   C88   1.416105 A    
C16   C101  1.438829 S    
N2    O56   1.299953 A    
C1    C44   1.471004 S    
N4    O59   1.297418 A    
C123  C127  1.378390 A    
C27   H3    1.108752 S    
C3    C42   1.471004 S    
C89   N5    1.441896 S    
Cr9   O49   1.991325 S    
C18   O42   1.303268 A    
Cr11  O51   1.991325 S    
O26   C22   1.299140 A    
C30   C37   1.527779 S    
O20   Cr12  2.061128 S    
N3    O57   1.295524 A    
C85   C86   1.400206 A    
H43   C115  1.078048 S    
C64   C66   1.389510 A    
O38   C18   1.272946 A    
C14   C103  1.438809 S    
C98   H38   1.059561 S    
C31   N3    1.447588 S    
N8    O67   1.297066 A    
O30   C14   1.260767 A    
C37   H5    1.108954 S    
C85   C93   1.412441 A    
C116  C140  1.413508 A    
C88   C96   1.405306 A    
C26   C30   1.534034 S    
C48   C52   1.419224 A    
O42   Cr10  2.076144 S    
O18   Cr10  2.061128 S    
N1    O53   1.295524 A    
C101  C117  1.390408 A    
O34   Cr6   2.072586 S    
O6    Cr2   1.960644 S    
C10   C78   1.462344 S    
O24   Cr12  1.955956 S    
O30   Cr2   1.958529 S    
C75   H31   1.081893 S    
O48   Cr12  1.941472 S    
C8    O20   1.271259 A    
C46   C62   1.411221 A    
C68   C70   1.388512 A    
C51   C79   1.409274 A    
O37   C17   1.304641 A    
C15   O35   1.273371 A    
Cr10  O50   2.011073 S    
C43   C59   1.403726 A    
O40   C20   1.272938 A    
C57   H17   1.080224 S    
C44   C60   1.397518 A    
O37   Cr5   1.957858 S    
C95   C97   1.385122 A    
O21   Cr9   1.963637 S    
C107  C111  1.409727 A    
O39   Cr7   1.957858 S    
C93   C99   1.385125 A    
O45   Cr9   1.950752 S    
N7    O65   1.301875 A    
C13   O33   1.273381 A    
O13   Cr5   1.940824 S    
O15   Cr7   1.940824 S    
C90   N6    1.433315 S    
C22   C138  1.484438 S    
C32   C39   1.527779 S    
C111  C139  1.421330 A    
C130  H58   1.077122 S    
N5    O62   1.297628 A    
C106  C122  1.402389 A    
C36   C40   1.535161 S    
C12   C80   1.462346 S    
C14   O34   1.274031 A    
C127  C131  1.381669 A    
C48   C64   1.411221 A    
O6    C2    1.273937 A    
C129  C133  1.389583 A    
C37   C38   1.549472 S    
O1    Cr1   2.080881 S    
O19   Cr11  2.068375 S    
C91   C92   1.417861 A    
C114  C138  1.413509 A    
C89   C90   1.417839 A    
O45   C21   1.309341 A    
O47   C23   1.309338 A    
O13   C5    1.309371 A    
C104  C120  1.389956 A    
C40   H8    1.103053 S    
C127  H55   1.081443 S    
C6    O18   1.271259 A    
O43   Cr11  2.082230 S    
C62   C68   1.389509 A    
C25   C26   1.562973 S    
O36   Cr8   2.072586 S    
C69   C73   1.385643 A    
O38   Cr6   1.966968 S    
C103  C107  1.392696 A    
C69   H27   1.077396 S    
C70   H28   1.079806 S    
C25   C34   1.536471 S    
C63   C65   1.390651 A    
C28   C32   1.534034 S    
C27   C36   1.536471 S    
O1    C9    1.272142 A    
H11   C55   1.083024 S    
O7    C3    1.283625 A    
C112  C136  1.411933 A    
H9    C53   1.083024 S    
C68   H24   1.074949 S    
C107  C123  1.409817 A    
C110  C138  1.421600 A    
N3    O58   1.299560 A    
C95   H35   1.083676 S    
C55   C59   1.371219 A    
C114  C118  1.411376 A    
O23   Cr11  1.963637 S    
C41   C45   1.426485 A    
C28   C35   1.546002 S    
C82   C89   1.395872 A    
C91   N7    1.441968 S    
C104  C108  1.403910 A    
C72   H26   1.079807 S    
C7    O19   1.304776 A    
Cr4   O52   1.987793 S    
N8    O68   1.301557 A    
O2    Cr2   2.078385 S    
C94   C100  1.378674 A    
C5    C33   1.463398 S    
Cr6   O50   1.990949 S    
C134  H62   1.074150 S    
C61   C67   1.390651 A    
C103  C119  1.390406 A    
C25   C29   1.538017 S    
C49   C77   1.409274 A    
C83   C87   1.396202 A    
C33   C37   1.543478 S    
O9    Cr5   2.078703 S    
C66   C72   1.388510 A    
C105  C109  1.409736 A    
C125  H53   1.081446 S    
N5    O61   1.301993 A    
C102  C106  1.403920 A    
C27   C31   1.538017 S    
C58   H18   1.078075 S    
C25   H1    1.108752 S    
C8    C36   1.448433 S    
C46   C50   1.419224 A    
C26   C33   1.546002 S    
Cr2   O50   1.987793 S    
O14   Cr6   1.952614 S    
C74   H30   1.081374 S    
O8    Cr4   1.960644 S    
N4    O60   1.299953 A    
C28   H4    1.110317 S    
C38   H6    1.103053 S    
C67   C69   1.387777 A    
O25   Cr1   2.083713 S    
C87   C95   1.412440 A    
C92   N8    1.433285 S    
C130  C134  1.388268 A    
C6    C34   1.448433 S    
C32   N4    1.454150 S    
C32   C36   1.529699 S    
C113  C137  1.398168 A    
C67   H23   1.076563 S    
H41   C113  1.078044 S    
C108  C124  1.402382 A    
C111  C135  1.404685 A    
C34   C38   1.535161 S    
C18   C81   1.487034 S    
C73   H29   1.081893 S    
O10   Cr6   2.088385 S    
O4    Cr4   2.078385 S    
C76   H32   1.081374 S    
C71   H25   1.077396 S    
C118  H50   1.077644 S    
C15   C102  1.495459 S    
C122  H46   1.084350 S    
C108  C112  1.401816 A    
C26   H2    1.110316 S    
C44   C48   1.424384 A    
