data_mof_unit_58331.cif
_audit_creation_date              2012-12-11T16:58:13-0500
_audit_creation_method            fapswitch 2.2
_symmetry_space_group_name_H-M    P1
_symmetry_Int_Tables_number       1
_space_group_crystal_system       triclinic
_cell_length_a                    16.946964
_cell_length_b                    7.253591
_cell_length_c                    16.896904
_cell_angle_alpha                 89.99895
_cell_angle_beta                  100.615706
_cell_angle_gamma                 90.002059
_cell_volume                      2041.52529126

loop_
_atom_site_label
_atom_site_type_symbol
_atom_type_description
_atom_site_fract_x
_atom_site_fract_y
_atom_site_fract_z
_atom_type_partial_charge
O1    O     O_R   0.413450 0.494370 0.415710 -0.535686
O2    O     O_R   0.586550 0.994370 0.584290 -0.535685
O3    O     O_R   0.578420 0.819350 0.429360 -0.539194
O4    O     O_R   0.421580 0.319350 0.570640 -0.539178
C1    C     C_R   0.603974 0.656118 0.413145 0.703016
C2    C     C_R   0.396027 0.156111 0.586855 0.703027
O5    O     O_R   0.413570 0.823780 0.406240 -0.540316
O6    O     O_R   0.586430 0.323780 0.593760 -0.540320
O7    O     O_R   0.420530 0.998740 0.561000 -0.539093
O8    O     O_R   0.579470 0.498740 0.439000 -0.539102
C3    C     C_R   0.385922 0.655344 0.383829 0.685739
C4    C     C_R   0.614078 0.155346 0.616171 0.685705
O9    O     O_3   0.502480 0.662320 0.550800 -0.378672
O10   O     O_3   0.497520 0.162320 0.449200 -0.378678
V1    V     V_3+5 0.499540 0.935370 0.490580 1.386577
V2    V     V_3+5 0.500460 0.435370 0.509420 1.386574
C5    C     C_R   0.734572 0.990543 0.694820 0.117086
C6    C     C_R   0.265435 0.490533 0.305170 0.117093
C7    C     C_R   0.685232 0.147049 0.682327 -0.112076
C8    C     C_R   0.314769 0.647046 0.317673 -0.112087
C9    C     C_R   0.708736 0.300081 0.732604 -0.185568
C10   C     C_R   0.291261 0.800081 0.267401 -0.185567
H1    H     H_    0.673898 0.425695 0.724780 0.146142
H2    H     H_    0.326098 0.925695 0.275231 0.146150
C11   C     C_R   0.774605 0.288910 0.796990 -0.163301
C12   C     C_R   0.225391 0.788912 0.203016 -0.163320
H3    H     H_    0.788139 0.407055 0.836206 0.134496
H4    H     H_    0.211855 0.907059 0.163805 0.134504
C13   C     C_R   0.819083 0.124020 0.813411 -0.096018
C14   C     C_R   0.180916 0.624022 0.186589 -0.096028
C15   C     C_R   0.799507 0.979233 0.758471 0.128557
C16   C     C_R   0.200498 0.479226 0.241520 0.128567
C17   C     C_3   0.784349 0.780433 0.772301 -0.429893
C18   C     C_3   0.215658 0.280429 0.227683 -0.429877
C19   C     C_3   0.713462 0.792734 0.702709 -0.410926
C20   C     C_3   0.286547 0.292729 0.297273 -0.410933
H5    H     H_    0.766335 0.755127 0.831414 0.167451
H6    H     H_    0.233670 0.255140 0.168568 0.167444
H7    H     H_    0.833578 0.691091 0.758992 0.192600
H8    H     H_    0.166429 0.191072 0.240993 0.192599
H9    H     H_    0.654419 0.774416 0.721527 0.175277
H10   H     H_    0.345589 0.274429 0.278452 0.175264
H11   H     H_    0.721919 0.710485 0.649378 0.176070
H12   H     H_    0.278092 0.210462 0.350603 0.176069
C21   C     C_R   0.334134 0.156527 0.638983 -0.094939
C22   C     C_R   0.665861 0.656562 0.361007 -0.094954
C23   C     C_R   0.166356 0.111183 0.862232 -0.194292
C24   C     C_R   0.833642 0.611151 0.137766 -0.194360
C25   C     C_R   0.278853 0.939661 0.825956 0.227732
C26   C     C_R   0.721213 0.439487 0.174115 0.227702
C27   C     C_R   0.222714 0.968290 0.875387 -0.144884
C28   C     C_R   0.777326 0.468155 0.124660 -0.144825
C29   C     C_R   0.167635 0.234497 0.797795 -0.055038
C30   C     C_R   0.832331 0.734554 0.202164 -0.054982
C31   C     C_R   0.223905 0.206590 0.745443 0.006275
C32   C     C_R   0.776064 0.706651 0.254520 0.006303
C33   C     C_R   0.280623 0.058143 0.758902 0.089678
C34   C     C_R   0.719407 0.558064 0.241129 0.089634
C35   C     C_R   0.336220 0.034716 0.704927 0.138372
C36   C     C_R   0.663830 0.534604 0.295122 0.138330
C37   C     C_R   0.276583 0.296768 0.626430 -0.202311
C38   C     C_R   0.723341 0.796976 0.373482 -0.202280
C39   C     C_R   0.222623 0.321219 0.678033 -0.145996
C40   C     C_R   0.777287 0.821442 0.321865 -0.146162
H13   H     H_    0.273813 0.390846 0.576137 0.133079
H14   H     H_    0.726066 0.891183 0.423722 0.133107
H15   H     H_    0.179586 0.431867 0.663922 0.150912
H16   H     H_    0.820258 0.932244 0.335907 0.150856
H17   H     H_    0.222628 0.873739 0.925119 0.155489
H18   H     H_    0.777434 0.373538 0.074956 0.155610
O11   O     O_R   0.920630 0.775410 0.061150 -0.524494
O12   O     O_R   0.079370 0.275410 0.938850 -0.524484
O13   O     O_R   0.086500 0.441450 0.093690 -0.543805
O14   O     O_R   0.913500 0.941450 0.906310 -0.543807
C41   C     C_R   0.114011 0.610310 0.116233 0.704225
C42   C     C_R   0.885988 0.110308 0.883768 0.704302
O15   O     O_R   0.921670 0.445960 0.070740 -0.544407
O16   O     O_R   0.078330 0.945960 0.929260 -0.544389
O17   O     O_R   0.913380 0.271130 0.915780 -0.533795
O18   O     O_R   0.086620 0.771130 0.084220 -0.533822
C43   C     C_R   0.896422 0.613367 0.086469 0.726379
C44   C     C_R   0.103576 0.113375 0.913528 0.726493
O19   O     O_3   0.997500 0.603030 0.949220 -0.373279
O20   O     O_3   0.002500 0.103030 0.050780 -0.373297
V3    V     V_3+5 0.000470 0.329940 0.009420 1.458711
V4    V     V_3+5 0.999530 0.829940 0.990580 1.458719
C45   C     C_2   0.108766 0.387966 0.783893 0.759183
O21   O     O_2   0.036780 0.354783 0.769899 -0.563980
O22   O     O_R   0.136021 0.570253 0.787439 -0.665040
H19   H     H_    0.090453 0.662844 0.777642 0.296310
C46   C     C_2   0.891185 0.888077 0.216038 0.759272
O23   O     O_2   0.963171 0.854946 0.230169 -0.563985
O24   O     O_R   0.863917 0.070346 0.212304 -0.665019
H20   H     H_    0.909480 0.162967 0.222118 0.296312
N1    N     N_3   0.396402 0.893478 0.718593 -0.703196
H21   H     H_    0.453126 0.953637 0.723016 0.226140
H22   H     H_    0.386558 0.801248 0.670267 0.253246
N2    N     N_3   0.603720 0.393172 0.281529 -0.703178
H23   H     H_    0.546962 0.453176 0.277081 0.226205
H24   H     H_    0.613627 0.301049 0.329901 0.253233
N3    N     N_3   0.331199 0.784671 0.845848 -0.652977
H25   H     H_    0.390660 0.829980 0.859981 0.258012
H26   H     H_    0.322788 0.691371 0.797879 0.276276
N4    N     N_3   0.668932 0.284377 0.154292 -0.652908
H27   H     H_    0.609455 0.329528 0.140168 0.258002
H28   H     H_    0.677395 0.191158 0.202286 0.276303

loop_
_geom_bond_atom_site_label_1
_geom_bond_atom_site_label_2
_ccdc_geom_bond_type
C45   O21   D    
C26   N4    S    
O24   H20   S    
C2    C21   S    
C20   H10   S    
N1    H21   S    
O1    C3    A    
C42   O17   A    
O2    C4    A    
C2    O7    A    
N4    H28   S    
O12   V3    S    
C13   C42   S    
C24   C30   A    
C17   H7    S    
O14   C42   A    
C22   C38   A    
C18   H8    S    
C40   H16   S    
C7    C9    A    
C36   N2    S    
C25   N3    S    
C33   C35   A    
C34   C36   A    
C25   C33   A    
C24   C43   S    
C23   C44   S    
C37   C39   A    
O18   V4    S    
C17   C19   S    
C25   C27   A    
C31   C39   A    
C26   C28   A    
C32   C40   A    
C19   H11   S    
C41   O18   A    
C38   C40   A    
C23   C29   A    
O16   V4    S    
O5    V1    S    
O15   V3    S    
O6    V2    S    
C30   C46   S    
O13   C41   A    
C35   N1    S    
N4    H27   S    
C30   C32   A    
C29   C31   A    
C11   C13   A    
C39   H15   S    
C3    C8    S    
C38   H14   S    
C26   C34   A    
N3    H25   S    
O20   V3    S    
O4    C2    A    
C46   O23   D    
C23   C27   A    
C17   H5    S    
C16   C18   S    
O4    V2    S    
O5    C3    A    
C31   C33   A    
C46   O24   S    
O11   V4    S    
O16   C44   A    
O15   C43   A    
O6    C4    A    
C15   C17   S    
C29   C45   S    
O1    V2    S    
O14   V4    S    
O2    V1    S    
O13   V3    S    
C8    C10   A    
C12   C14   A    
N2    H24   S    
C9    H1    S    
C5    C15   A    
C10   H2    S    
C20   H12   S    
C6    C16   A    
O17   V3    S    
O3    V1    S    
C9    C11   A    
C21   C35   A    
C22   C36   A    
C18   H6    S    
O3    C1    A    
N1    H22   S    
C11   H3    S    
C27   H17   S    
C1    C22   S    
C12   H4    S    
C45   O22   S    
O7    V1    S    
C1    O8    A    
C13   C15   A    
O8    V2    S    
C14   C16   A    
C14   C41   S    
C4    C7    S    
C21   C37   A    
C5    C7    A    
C18   C20   S    
C32   C34   A    
C6    C8    A    
C19   H9    S    
C28   H18   S    
C37   H13   S    
C24   C28   A    
O19   V4    S    
N3    H26   S    
N2    H23   S    
C10   C12   A    
O9    V2    S    
O10   V1    S    
C5    C19   S    
O22   H19   S    
C6    C20   S    
O12   C44   A    
O11   C43   A    
