data_mof_unit_31561.cif
_audit_creation_date              2012-12-11T16:06:29-0500
_audit_creation_method            fapswitch 2.2
_symmetry_space_group_name_H-M    P1
_symmetry_Int_Tables_number       1
_space_group_crystal_system       triclinic
_cell_length_a                    7.201221
_cell_length_b                    14.468235
_cell_length_c                    15.781001
_cell_angle_alpha                 89.999908
_cell_angle_beta                  89.999755
_cell_angle_gamma                 90.000241
_cell_volume                      1644.20604586

loop_
_atom_site_label
_atom_site_type_symbol
_atom_type_description
_atom_site_fract_x
_atom_site_fract_y
_atom_site_fract_z
_atom_type_partial_charge
O1    O     O_R   0.388780 0.834790 0.412340 -0.538141
O2    O     O_R   0.111220 0.165210 0.912340 -0.537021
O3    O     O_R   0.888780 0.665210 0.587660 -0.538142
O4    O     O_R   0.611220 0.334790 0.087660 -0.537017
O5    O     O_R   0.059040 0.845930 0.587040 -0.540355
O6    O     O_R   0.440960 0.154070 0.087040 -0.541624
O7    O     O_R   0.559040 0.654070 0.412960 -0.540354
O8    O     O_R   0.940960 0.345930 0.912960 -0.541623
C1    C     C_R   0.228064 0.867984 0.615394 0.643163
C2    C     C_R   0.272339 0.132006 0.115332 0.643340
C3    C     C_R   0.728065 0.632013 0.384607 0.643156
C4    C     C_R   0.772340 0.367990 0.884665 0.643345
O9    O     O_R   0.059070 0.845930 0.412970 -0.540357
O10   O     O_R   0.440930 0.154070 0.912970 -0.541627
O11   O     O_R   0.559070 0.654070 0.587030 -0.540357
O12   O     O_R   0.940930 0.345930 0.087030 -0.541624
O13   O     O_R   0.888760 0.665210 0.412340 -0.538147
O14   O     O_R   0.611240 0.334790 0.912340 -0.537023
O15   O     O_R   0.388760 0.834790 0.587660 -0.538146
O16   O     O_R   0.111240 0.165210 0.087660 -0.537025
C5    C     C_R   0.228086 0.867987 0.384611 0.643179
C6    C     C_R   0.272317 0.132003 0.884674 0.643353
C7    C     C_R   0.728086 0.632009 0.615385 0.643174
C8    C     C_R   0.772318 0.367994 0.115328 0.643357
O17   O     O_3   0.222280 0.690700 0.500000 -0.372285
O18   O     O_3   0.277720 0.309300 0.000000 -0.372195
O19   O     O_3   0.722280 0.809300 0.500000 -0.372282
O20   O     O_3   0.777720 0.190700 0.000000 -0.372199
V1    V     V_3+5 0.947430 0.761000 0.500000 1.357686
V2    V     V_3+5 0.552570 0.239000 0.000000 1.358178
V3    V     V_3+5 0.447430 0.739000 0.500000 1.357687
V4    V     V_3+5 0.052570 0.261000 0.000000 1.358180
C9    C     C_3   0.945665 0.543374 0.713390 -0.305142
C10   C     C_3   0.667186 0.395850 0.266448 -0.320453
C11   C     C_3   0.445649 0.956520 0.286521 -0.305161
C12   C     C_3   0.167321 0.104167 0.733534 -0.320470
H1    H     H_    0.025917 0.517202 0.658067 0.137903
H2    H     H_    0.525003 0.371530 0.250107 0.136040
H3    H     H_    0.526058 0.982654 0.341811 0.137950
H4    H     H_    0.025153 0.128529 0.749845 0.136021
C13   C     C_3   0.958188 0.472261 0.786142 -0.318312
C14   C     C_3   0.654385 0.467502 0.339724 -0.326234
C15   C     C_3   0.458170 0.027631 0.213767 -0.318308
C16   C     C_3   0.154513 0.032514 0.660259 -0.326238
H5    H     H_    0.043973 0.412484 0.765116 0.133757
H6    H     H_    0.506261 0.477138 0.357785 0.138306
H7    H     H_    0.544120 0.087363 0.234760 0.133802
H8    H     H_    0.006400 0.022913 0.642169 0.138292
H9    H     H_    0.728086 0.440399 0.603551 0.115159
H10   H     H_    0.504816 0.503403 0.140862 0.141926
H11   H     H_    0.228472 0.059590 0.396455 0.115168
H12   H     H_    0.004696 0.996665 0.859085 0.141951
H13   H     H_    0.747022 0.334450 0.711863 0.114952
H14   H     H_    0.486040 0.608616 0.248834 0.136781
H15   H     H_    0.247427 0.165537 0.288143 0.114964
H16   H     H_    0.985930 0.891445 0.751116 0.136804
C17   C     C_3   0.654259 0.467518 0.660291 -0.326232
C18   C     C_3   0.647453 0.524648 0.159762 -0.321206
C19   C     C_3   0.154489 0.032511 0.339741 -0.326237
C20   C     C_3   0.147331 0.975379 0.840221 -0.321196
C21   C     C_3   0.634784 0.596236 0.766903 -0.325377
C22   C     C_3   0.958166 0.472328 0.213797 -0.318321
C23   C     C_3   0.134567 0.903810 0.233129 -0.325379
C24   C     C_3   0.458152 0.027612 0.786253 -0.318316
C25   C     C_3   0.740085 0.561475 0.687129 0.124517
C26   C     C_3   0.761853 0.438533 0.186984 0.125787
C27   C     C_3   0.240085 0.938516 0.312864 0.124525
C28   C     C_3   0.261852 0.061462 0.813020 0.125782
H17   H     H_    0.486193 0.608688 0.751215 0.136754
H18   H     H_    0.030028 0.504498 0.158737 0.134993
H19   H     H_    0.985982 0.891426 0.248875 0.136792
H20   H     H_    0.529913 0.995423 0.841330 0.134969
H21   H     H_    0.694338 0.663338 0.788105 0.115393
H22   H     H_    0.044051 0.412579 0.234802 0.133780
H23   H     H_    0.193954 0.836683 0.211898 0.115391
H24   H     H_    0.544128 0.087336 0.765264 0.133803
C29   C     C_3   0.761871 0.438526 0.813006 0.125791
C30   C     C_3   0.740069 0.561482 0.312861 0.124536
C31   C     C_3   0.261868 0.061465 0.186987 0.125786
C32   C     C_3   0.240068 0.938513 0.687143 0.124528
C33   C     C_3   0.667061 0.395866 0.733568 -0.320450
C34   C     C_3   0.634630 0.596209 0.233111 -0.325371
C35   C     C_3   0.167297 0.104164 0.266465 -0.320469
C36   C     C_3   0.134514 0.903817 0.766872 -0.325375
C37   C     C_3   0.647608 0.524675 0.840253 -0.321219
C38   C     C_3   0.945643 0.543442 0.286548 -0.305153
C39   C     C_3   0.147384 0.975372 0.159779 -0.321197
C40   C     C_3   0.445629 0.956501 0.713498 -0.305154
H25   H     H_    0.713342 0.557516 0.896524 0.114049
H26   H     H_    0.025996 0.517297 0.341851 0.137934
H27   H     H_    0.212940 0.942507 0.103477 0.114042
H28   H     H_    0.526063 0.982628 0.658212 0.137959
H29   H     H_    0.504970 0.503471 0.859191 0.141907
H30   H     H_    0.011820 0.609217 0.265810 0.132037
H31   H     H_    0.004749 0.996647 0.140905 0.141945
H32   H     H_    0.511715 0.890709 0.734251 0.132013
H33   H     H_    0.506127 0.477199 0.642268 0.138329
H34   H     H_    0.713078 0.557505 0.103472 0.114048
H35   H     H_    0.006371 0.022898 0.357821 0.138294
H36   H     H_    0.212856 0.942509 0.896528 0.114043
H37   H     H_    0.524869 0.371590 0.749946 0.136065
H38   H     H_    0.694074 0.663328 0.211892 0.115387
H39   H     H_    0.025126 0.128514 0.250145 0.136025
H40   H     H_    0.193872 0.836685 0.788107 0.115389
H41   H     H_    0.011947 0.609129 0.734111 0.132068
H42   H     H_    0.747246 0.334458 0.288136 0.114956
H43   H     H_    0.511762 0.890734 0.265773 0.132022
H44   H     H_    0.247480 0.165533 0.711860 0.114967
H45   H     H_    0.030155 0.504413 0.841181 0.135021
H46   H     H_    0.728311 0.440406 0.396447 0.115162
H47   H     H_    0.529959 0.995447 0.158695 0.134978
H48   H     H_    0.228527 0.059586 0.603549 0.115168

loop_
_geom_bond_atom_site_label_1
_geom_bond_atom_site_label_2
_ccdc_geom_bond_type
O17   V3    S    
C40   H32   S    
O1    C5    A    
C39   H27   S    
O19   V1    S    
C19   H35   S    
O3    C7    A    
C10   C14   S    
C32   C36   S    
O15   V3    S    
C10   C26   S    
C31   C39   S    
C9    C25   S    
C33   H37   S    
O7    C3    A    
C22   C38   S    
C35   H39   S    
C24   C28   S    
O2    V4    S    
C19   C35   S    
C18   C34   S    
C13   C29   S    
O4    C8    A    
C12   H44   S    
C15   C31   S    
O1    V3    S    
H9    C17   S    
C22   H18   S    
H13   C33   S    
C14   H6    S    
O3    V1    S    
C38   H30   S    
C19   C27   S    
C37   H29   S    
C18   C26   S    
C40   H28   S    
C2    O16   A    
C39   H31   S    
O2    C6    A    
O14   V2    S    
C29   C33   S    
C11   C15   S    
C8    C26   S    
C30   C38   S    
O11   C7    A    
C29   C37   S    
O12   C8    A    
C13   H45   S    
C5    C27   S    
C15   H47   S    
O10   V2    S    
C1    O15   A    
H16   C36   S    
O5    V1    S    
C34   H38   S    
C23   C27   S    
O7    V3    S    
C22   C26   S    
H10   C18   S    
C12   H4    S    
C9    H41   S    
C38   H26   S    
C37   H25   S    
O18   V4    S    
C21   H21   S    
C9    H1    S    
C1    C32   S    
O8    V4    S    
C11   H3    S    
O5    C1    A    
C3    C30   S    
C30   C34   S    
C16   C32   S    
O8    C4    A    
C17   H33   S    
C4    C29   S    
C24   H24   S    
O9    C5    A    
C6    C28   S    
C21   C37   S    
C16   H48   S    
O6    V2    S    
C23   H19   S    
C14   C30   S    
C36   H40   S    
C17   C33   S    
C12   C16   S    
H11   C19   S    
H15   C35   S    
H14   C34   S    
O16   V4    S    
O9    V1    S    
C3    O13   A    
C23   C39   S    
C10   H2    S    
C17   C25   S    
C20   H36   S    
O6    C2    A    
C2    C31   S    
C12   C28   S    
O11   V3    S    
C18   H34   S    
O12   V4    S    
C21   H17   S    
O10   C6    A    
O20   V2    S    
C14   H46   S    
C9    C13   S    
C32   C40   S    
O13   V1    S    
C31   C35   S    
C20   C36   S    
C7    C25   S    
C23   H23   S    
C10   H42   S    
C24   H20   S    
C11   H43   S    
C11   C27   S    
C21   C25   S    
C20   C28   S    
H12   C20   S    
C4    O14   A    
C13   H5    S    
C22   H22   S    
C15   H7    S    
C24   C40   S    
O4    V2    S    
C16   H8    S    
