data_mof_unit_34990.cif
_audit_creation_date              2012-10-26T19:02:58-0400
_audit_creation_method            fapswitch 2.2
_symmetry_space_group_name_H-M    P1
_symmetry_Int_Tables_number       1
_space_group_crystal_system       triclinic
_cell_length_a                    15.094713
_cell_length_b                    10.816423
_cell_length_c                    9.787952
_cell_angle_alpha                 110.06788
_cell_angle_beta                  98.512626
_cell_angle_gamma                 91.112402
_cell_volume                      1480.27908766

loop_
_atom_site_label
_atom_site_type_symbol
_atom_type_description
_atom_site_fract_x
_atom_site_fract_y
_atom_site_fract_z
_atom_type_partial_charge
C1    C     C_R   0.489509 0.252849 0.442499 0.471627
C2    C     C_2   0.491516 0.490484 0.919537 0.009514
C3    C     C_R   0.328770 0.498897 0.500579 0.552801
C4    C     C_R   0.670779 0.501349 0.499331 0.521663
C5    C     C_R   0.820897 0.619968 0.575747 0.125056
C6    C     C_R   0.173265 0.394461 0.406020 0.122933
C7    C     C_R   0.767143 0.501952 0.498736 -0.026009
C8    C     C_R   0.232123 0.501518 0.503088 -0.019841
C9    C     C_R   0.804204 0.385962 0.420914 -0.046856
C10   C     C_R   0.198199 0.608604 0.605854 0.018099
C11   C     C_R   0.898751 0.381714 0.438126 -0.032757
C12   C     C_R   0.502253 0.747084 0.557988 0.597930
C13   C     C_R   0.103907 0.618043 0.591623 0.021127
C14   C     C_R   0.953751 0.501472 0.512394 -0.040690
C15   C     C_R   0.047240 0.501573 0.512984 -0.051852
C16   C     C_R   0.915465 0.620848 0.584638 0.065449
C17   C     C_R   0.084037 0.385759 0.429829 0.050156
C18   C     C_R   0.940022 0.260772 0.387149 0.049589
C19   C     C_R   0.064957 0.738933 0.653747 0.043162
C20   C     C_3   0.753173 0.802381 0.522004 -0.248098
C21   C     C_3   0.256798 0.206218 0.277837 -0.252739
C22   C     C_2   0.742504 0.275750 0.311302 0.246483
C23   C     C_R   0.031907 0.263817 0.375070 0.165533
C24   C     C_2   0.260996 0.705718 0.729845 0.316531
C25   C     C_2   0.891027 0.133985 0.370773 0.259129
C26   C     C_2   0.116881 0.868828 0.696629 0.253604
C27   C     C_3   0.108939 0.091519 0.438948 -0.252570
C28   C     C_3   0.940766 0.878331 0.897138 -0.242491
C29   C     C_2   0.353324 0.844413 0.397309 0.326318
C30   C     C_2   0.381405 0.156476 0.615820 0.186228
C31   C     C_2   0.561175 0.985384 0.705054 0.213585
C32   C     C_2   0.518722 0.021313 0.292977 0.204312
C33   C     C_R   0.972401 0.738463 0.660251 0.116879
C34   C     C_2   0.477239 0.110801 0.416345 -0.074678
C35   C     C_2   0.495085 0.889039 0.585586 0.023011
C36   C     C_2   0.433385 0.068506 0.507186 -0.074883
C37   C     C_2   0.431621 0.929791 0.498643 0.053589
C38   C     C_2   0.507506 0.511537 0.081305 0.028724
Cu1   Cu    Cu3+1 0.515770 0.521810 0.644910 0.974669
Cu2   Cu    Cu3+1 0.484230 0.478190 0.355090 0.988869
H1    H     H_    0.438033 0.419325 0.847936 0.150966
H2    H     H_    0.224269 0.109036 0.202533 0.173344
H3    H     H_    0.272377 0.203321 0.390616 0.124152
H4    H     H_    0.319796 0.222157 0.239029 0.169173
H5    H     H_    0.680618 0.245863 0.339209 0.098546
H6    H     H_    0.324168 0.741696 0.711564 0.172291
H7    H     H_    0.845454 0.133378 0.446611 0.085303
H8    H     H_    0.108308 0.949530 0.795423 0.117647
H9    H     H_    0.044529 0.074788 0.227517 0.291015
H10   H     H_    0.149437 0.007153 0.392393 0.181628
H11   H     H_    0.052627 0.056342 0.480769 0.173299
H12   H     H_    0.560040 0.584340 0.153735 0.164917
H13   H     H_    0.152725 0.167956 0.532125 0.164807
H14   H     H_    0.954867 0.940529 0.721207 0.238571
H15   H     H_    0.906496 0.968201 0.949820 0.205590
H16   H     H_    0.011771 0.891787 0.952926 0.128034
H17   H     H_    0.906251 0.792953 0.911386 0.189374
H18   H     H_    0.320682 0.870482 0.305451 0.125948
H19   H     H_    0.366292 0.253635 0.615050 0.122382
H20   H     H_    0.560364 0.090523 0.726129 0.138336
H21   H     H_    0.555684 0.063656 0.230530 0.152724
H22   H     H_    0.589889 0.621707 0.933282 0.229681
H23   H     H_    0.411018 0.376900 0.066234 0.220185
H24   H     H_    0.729293 0.737917 0.691732 0.297896
H25   H     H_    0.731123 0.901955 0.577227 0.176636
H26   H     H_    0.697040 0.742690 0.436426 0.147776
H27   H     H_    0.811321 0.814066 0.468674 0.170790
H28   H     H_    0.210339 0.354758 0.199691 0.272319
N1    N     N_2   0.460520 0.445420 0.137370 -0.342855
N2    N     N_2   0.539480 0.554580 0.862630 -0.339854
N3    N     N_2   0.778587 0.740170 0.630071 -0.470623
N4    N     N_2   0.197576 0.308520 0.271765 -0.484572
N5    N     N_2   0.075229 0.144308 0.325507 -0.500677
N6    N     N_2   0.936483 0.857293 0.742087 -0.501498
O1    O     O_R   0.508410 0.332340 0.577400 -0.506613
O2    O     O_2   0.242976 0.744262 0.854573 -0.514904
O3    O     O_2   0.898103 0.031208 0.271203 -0.513620
O4    O     O_2   0.167607 0.887925 0.618392 -0.489508
O5    O     O_2   0.320987 0.750606 0.420089 -0.495443
O6    O     O_2   0.352806 0.119200 0.706654 -0.494283
O7    O     O_2   0.617454 0.948124 0.782480 -0.484708
O8    O     O_2   0.512296 0.901425 0.258338 -0.521846
O9    O     O_R   0.491590 0.667660 0.422600 -0.464367
O10   O     O_R   0.481780 0.295500 0.332650 -0.509610
O11   O     O_R   0.518220 0.704500 0.667350 -0.454729
O12   O     O_R   0.383570 0.518390 0.622380 -0.533858
O13   O     O_R   0.616430 0.481610 0.377620 -0.501185
O14   O     O_R   0.356940 0.481550 0.377630 -0.454770
O15   O     O_R   0.643060 0.518450 0.622370 -0.496174
O16   O     O_2   0.758954 0.221310 0.187020 -0.450741

loop_
_geom_bond_atom_site_label_1
_geom_bond_atom_site_label_2
_ccdc_geom_bond_type
C11   C18   A    
Cu2   O10   S    
C20   H27   S    
C28   N6    S    
C28   H16   S    
C4    O13   A    
C28   H17   S    
C1    O10   A    
C6    N4    S    
C26   O4    D    
C12   O11   A    
C25   O3    D    
Cu2   O13   S    
C20   H26   S    
C36   C37   S    
C35   C37   D    
C32   H21   S    
C11   C14   A    
C9    C22   S    
C38   H12   S    
C2    H1    S    
H22   N2    S    
C7    C9    A    
H24   N3    S    
C19   C26   S    
C5    C16   A    
C21   H3    S    
H23   N1    S    
C20   N3    S    
Cu1   O1    S    
C25   H7    S    
C34   C36   D    
C27   H10   S    
C26   H8    S    
C30   O6    D    
C38   N1    D    
H14   N6    S    
C3    O12   A    
Cu2   O9    S    
C18   C25   S    
C23   N5    S    
C4    C7    S    
C28   H15   S    
C27   H11   S    
C1    C34   S    
Cu2   N1    S    
C13   C19   A    
C21   N4    S    
C18   C23   A    
C1    O1    A    
C20   H25   S    
C3    C8    S    
C19   C33   A    
Cu1   Cu2   S    
C5    C7    A    
C24   O2    D    
C6    C8    A    
C10   C24   S    
C12   O9    A    
C32   C34   S    
C31   H20   S    
C16   C33   A    
C21   H4    S    
C2    C38   S    
C29   O5    D    
H28   N4    S    
C30   H19   S    
C22   O16   D    
C17   C23   A    
C12   C35   S    
C9    C11   A    
C13   C15   A    
C14   C16   A    
Cu1   O11   S    
C4    O15   A    
C15   C17   A    
C6    C17   A    
C3    O14   A    
C10   C13   A    
C27   H13   S    
C32   O8    D    
C31   O7    D    
C30   C36   S    
C24   H6    S    
Cu2   O14   S    
C5    N3    S    
C27   N5    S    
C31   C35   S    
Cu1   N2    S    
H9    N5    S    
C21   H2    S    
C33   N6    S    
C22   H5    S    
C29   H18   S    
C8    C10   A    
C29   C37   S    
C14   C15   A    
Cu1   O12   S    
C2    N2    D    
Cu1   O15   S    
