data_mof_unit_33825.cif
_audit_creation_date              2012-12-10T17:55:51-0500
_audit_creation_method            fapswitch 2.2
_symmetry_space_group_name_H-M    P1
_symmetry_Int_Tables_number       1
_space_group_crystal_system       triclinic
_cell_length_a                    11.124823
_cell_length_b                    10.78855
_cell_length_c                    9.5604
_cell_angle_alpha                 90.594706
_cell_angle_beta                  103.196947
_cell_angle_gamma                 90.849807
_cell_volume                      1116.90861145

loop_
_atom_site_label
_atom_site_type_symbol
_atom_type_description
_atom_site_fract_x
_atom_site_fract_y
_atom_site_fract_z
_atom_type_partial_charge
C1    C     C_R   0.503416 0.262551 0.500298 0.793095
C2    C     C_R   0.496584 0.737449 0.499702 0.793092
C3    C     C_R   0.263204 0.497113 0.441389 0.903762
C4    C     C_R   0.736796 0.502887 0.558611 0.903757
C5    C     C_R   0.422547 0.421977 0.050917 0.359187
C6    C     C_R   0.577452 0.578023 0.949082 0.359188
C7    C     C_R   0.423233 0.422392 0.903147 -0.095494
C8    C     C_R   0.576766 0.577609 0.096853 -0.095495
C9    C     C_2   0.129293 0.506421 0.408832 -0.306210
C10   C     C_2   0.870707 0.493581 0.591168 -0.306215
C11   C     C_2   0.062647 0.473948 0.505227 -0.055985
C12   C     C_2   0.937352 0.526049 0.494769 -0.055983
C13   C     C_R   0.583230 0.061774 0.430560 -0.029161
C14   C     C_R   0.416772 0.938226 0.569442 -0.029161
C15   C     C_R   0.575637 0.932828 0.430050 -0.077620
C16   C     C_R   0.424365 0.067171 0.569951 -0.077620
C17   C     C_R   0.494758 0.871391 0.499738 -0.137878
C18   C     C_R   0.505243 0.128609 0.500262 -0.137877
Cu1   Cu    Cu3+1 0.500000 0.500020 0.640660 1.016631
Cu2   Cu    Cu3+1 0.500000 0.499980 0.359340 1.016630
H1    H     H_    0.910182 0.442851 0.687291 0.126091
H2    H     H_    0.089820 0.557157 0.312712 0.126089
H3    H     H_    0.362241 0.360010 0.829359 0.187789
H4    H     H_    0.637759 0.639990 0.170641 0.187792
H5    H     H_    0.635831 0.879264 0.378941 0.215388
H6    H     H_    0.364171 0.120735 0.621060 0.215387
N1    N     N_R   0.500030 0.500030 0.852080 -0.211447
N2    N     N_R   0.499970 0.499970 0.147920 -0.211448
O1    O     O_R   0.499990 0.319660 0.618740 -0.575083
O2    O     O_R   0.500010 0.680340 0.381260 -0.575084
O3    O     O_R   0.499990 0.319630 0.381170 -0.557674
O4    O     O_R   0.500010 0.680370 0.618830 -0.557673
O5    O     O_R   0.320690 0.500020 0.575130 -0.592132
O6    O     O_R   0.679310 0.499980 0.424870 -0.592133
O7    O     O_R   0.320680 0.499990 0.337560 -0.544499
O8    O     O_R   0.679320 0.500010 0.662440 -0.544500
C19   C     C_2   0.886439 0.615754 0.378967 0.446510
H7    H     H_    0.894131 0.599352 0.269340 0.072593
O9    O     O_2   0.835181 0.709307 0.406336 -0.524521
C20   C     C_2   0.113558 0.384237 0.621024 0.446508
H8    H     H_    0.105863 0.400631 0.730651 0.072593
O10   O     O_2   0.164820 0.290687 0.593650 -0.524523
Br1   Br    Br    0.308996 0.308084 0.106585 -0.428884
Br2   Br    Br    0.691004 0.691916 0.893415 -0.428883
C21   C     C_2   0.677140 0.123900 0.365340 0.438577
H9    H     H_    0.700435 0.221302 0.386006 0.066479
O11   O     O_2   0.731320 0.066219 0.288627 -0.489509
C22   C     C_2   0.322864 0.876100 0.634664 0.438593
H10   H     H_    0.299561 0.778701 0.613990 0.066477
O12   O     O_2   0.268697 0.933776 0.711391 -0.489517

loop_
_geom_bond_atom_site_label_1
_geom_bond_atom_site_label_2
_ccdc_geom_bond_type
C14   C22   S    
C11   C12   S    
C4    O8    A    
C19   H7    S    
C3    C9    S    
C5    N2    A    
Cu1   N1    S    
C6    N1    A    
C3    O7    A    
C2    O2    A    
Cu2   O6    S    
C22   O12   D    
C5    Br1   S    
C5    C7    A    
C19   O9    D    
C16   C18   A    
Cu2   O2    S    
C21   H9    S    
C2    C17   S    
C13   C21   S    
C9    C11   D    
C14   C17   A    
C1    C18   S    
C10   C12   D    
C13   C18   A    
C7    H3    S    
Cu1   O4    S    
C6    C8    A    
C1    O1    A    
C20   H8    S    
C8    H4    S    
C4    O6    A    
Cu1   O8    S    
C13   C15   A    
C10   H1    S    
C16   H6    S    
C11   C20   S    
C8    N2    A    
C14   C16   A    
C9    H2    S    
C15   H5    S    
C3    O5    A    
C4    C10   S    
Cu1   O1    S    
C1    O3    A    
C7    N1    A    
C2    O4    A    
Cu1   O5    S    
C21   O11   D    
C12   C19   S    
C15   C17   A    
C22   H10   S    
C6    Br2   S    
Cu2   N2    S    
Cu2   O7    S    
Cu1   Cu2   S    
C20   O10   D    
Cu2   O3    S    
