data_mof_unit_17405.cif
_audit_creation_date              2012-12-10T17:08:46-0500
_audit_creation_method            fapswitch 2.2
_symmetry_space_group_name_H-M    P1
_symmetry_Int_Tables_number       1
_space_group_crystal_system       triclinic
_cell_length_a                    27.705776
_cell_length_b                    11.01466
_cell_length_c                    9.909443
_cell_angle_alpha                 111.245104
_cell_angle_beta                  97.923545
_cell_angle_gamma                 92.015909
_cell_volume                      2779.73892949

loop_
_atom_site_label
_atom_site_type_symbol
_atom_type_description
_atom_site_fract_x
_atom_site_fract_y
_atom_site_fract_z
_atom_type_partial_charge
C1    C     C_R   0.496434 0.254144 0.440468 0.967911
C2    C     C_R   0.503461 0.745856 0.559563 0.966266
C3    C     C_R   0.102629 0.532748 0.511641 -0.062991
C4    C     C_R   0.898719 0.547267 0.493115 -0.063689
C5    C     C_R   0.120065 0.437740 0.392683 -0.029661
C6    C     C_R   0.880099 0.588886 0.627962 -0.042681
C7    C     C_R   0.085804 0.351588 0.272880 -0.001842
C8    C     C_R   0.913287 0.645081 0.762315 -0.027277
C9    C     C_R   0.135705 0.612579 0.638011 -0.085548
C10   C     C_R   0.866337 0.495942 0.357202 -0.074297
C11   C     C_R   0.354793 0.502487 0.504448 -0.051469
C12   C     C_R   0.645431 0.504780 0.497420 -0.054307
C13   C     C_R   0.969029 0.500445 0.362911 0.023506
C14   C     C_R   0.033528 0.630393 0.627320 0.032250
C15   C     C_R   0.982413 0.614931 0.628573 0.090027
C16   C     C_R   0.019239 0.476145 0.373618 0.090261
C17   C     C_R   0.949948 0.555138 0.494645 0.044192
C18   C     C_R   0.051891 0.546683 0.504301 0.038531
C19   C     C_R   0.937206 0.468088 0.227092 -0.056084
C20   C     C_R   0.066661 0.724371 0.743818 -0.027509
C21   C     C_R   0.885911 0.460007 0.223583 -0.078351
C22   C     C_R   0.117615 0.711530 0.753033 -0.080814
C23   C     C_R   0.407729 0.501096 0.501450 0.935702
C24   C     C_R   0.592325 0.500159 0.498880 0.940577
C25   C     C_R   0.036484 0.374494 0.263299 -0.200433
C26   C     C_R   0.963468 0.651604 0.760377 -0.194108
C27   C     C_2   0.494242 0.114219 0.407125 -0.237051
C28   C     C_2   0.505619 0.885795 0.592931 -0.244599
C29   C     C_2   0.501296 0.069699 0.516053 -0.119604
C30   C     C_2   0.498779 0.930320 0.483977 -0.107572
C31   C     C_2   0.505746 0.507195 0.079409 0.040018
C32   C     C_2   0.494387 0.492048 0.920152 0.037903
C33   C     C_R   0.171087 0.436047 0.396511 0.588889
C34   C     C_R   0.829238 0.566932 0.622633 0.574909
C35   C     C_R   0.186043 0.592340 0.641906 0.539846
C36   C     C_R   0.815345 0.488863 0.361080 0.549806
C37   C     C_R   0.280545 0.615099 0.512000 -0.180605
C38   C     C_R   0.723320 0.410119 0.511845 -0.172762
C39   C     C_R   0.330482 0.614027 0.503266 -0.065314
C40   C     C_R   0.672834 0.402484 0.513868 -0.069755
C41   C     C_R   0.327730 0.393697 0.512710 -0.045907
C42   C     C_R   0.669833 0.612591 0.479679 -0.036214
C43   C     C_R   0.277719 0.398859 0.520922 -0.156857
C44   C     C_R   0.719960 0.614411 0.473985 -0.162294
C45   C     C_R   0.254205 0.508412 0.519823 0.356467
C46   C     C_R   0.746658 0.514826 0.491334 0.356927
Cu1   Cu    Cu3+1 0.508480 0.521810 0.644910 1.023740
Cu2   Cu    Cu3+1 0.491520 0.478190 0.355090 1.030476
H1    H     H_    0.010852 0.305732 0.173151 0.127132
H2    H     H_    0.987921 0.686255 0.864467 0.152625
N1    N     N_R   0.202445 0.510180 0.520548 -0.463107
N2    N     N_R   0.798483 0.522426 0.491586 -0.468096
N3    N     N_2   0.478780 0.445430 0.137360 -0.315293
N4    N     N_2   0.521220 0.554570 0.862640 -0.315929
O1    O     O_R   0.504520 0.332330 0.577400 -0.592256
O2    O     O_R   0.495480 0.667670 0.422600 -0.585010
O3    O     O_R   0.490210 0.295500 0.332650 -0.581280
O4    O     O_R   0.509790 0.704500 0.667350 -0.584907
O5    O     O_R   0.437420 0.518430 0.622370 -0.569199
O6    O     O_R   0.562580 0.481570 0.377630 -0.566873
O7    O     O_R   0.423110 0.481600 0.377610 -0.539842
O8    O     O_R   0.576890 0.518400 0.622390 -0.549054
O9    O     O_2   0.189618 0.366017 0.275771 -0.481542
O10   O     O_2   0.810248 0.586693 0.746226 -0.450607
O11   O     O_2   0.782388 0.448578 0.236536 -0.520776
O12   O     O_2   0.218700 0.653164 0.765135 -0.521582
C47   C     C_2   0.349085 0.271008 0.509802 0.396805
H3    H     H_    0.328608 0.200829 0.538950 0.087569
O13   O     O_2   0.388569 0.244196 0.471250 -0.589194
C48   C     C_2   0.645605 0.728541 0.472248 0.385170
H4    H     H_    0.662321 0.791414 0.425425 0.093143
O14   O     O_2   0.608304 0.759036 0.523546 -0.592497
H5    H     H_    0.512981 0.952718 0.706861 0.136040
H6    H     H_    0.486722 0.047284 0.293212 0.137368
C49   C     C_2   0.450486 0.406574 0.829959 0.445443
H7    H     H_    0.453750 0.312438 0.747031 0.087720
O15   O     O_2   0.409826 0.439786 0.852224 -0.546998
C50   C     C_2   0.549911 0.591578 0.168954 0.437077
H8    H     H_    0.547000 0.684851 0.253802 0.092147
O16   O     O_2   0.590373 0.558409 0.144084 -0.550338
H9    H     H_    0.550978 0.616642 0.927684 0.222760
H10   H     H_    0.448721 0.384435 0.072669 0.221503
H11   H     H_    0.256470 0.316466 0.525879 0.145780
H12   H     H_    0.739014 0.695938 0.460522 0.138982
C51   C     C_2   0.098141 0.230499 0.160184 0.461809
H13   H     H_    0.078989 0.198513 0.048165 0.066000
O17   O     O_2   0.126869 0.160417 0.193203 -0.481872
C52   C     C_2   0.898534 0.706945 0.908406 0.546227
H14   H     H_    0.917589 0.689226 0.001886 0.088195
O18   O     O_2   0.868027 0.786316 0.928142 -0.481573
C53   C     C_2   0.651251 0.284804 0.531916 0.380615
H15   H     H_    0.675187 0.217200 0.556967 0.088917
O19   O     O_2   0.607200 0.259633 0.516918 -0.566415
C54   C     C_2   0.354674 0.732811 0.493996 0.364626
H16   H     H_    0.335425 0.820376 0.514666 0.088526
O20   O     O_2   0.395205 0.734838 0.459964 -0.556395
H17   H     H_    0.744883 0.333745 0.525054 0.137935
H18   H     H_    0.261384 0.698787 0.510144 0.135924
C55   C     C_2   0.853478 0.412820 0.078980 0.429520
H19   H     H_    0.830391 0.321651 0.043172 0.114680
O21   O     O_2   0.851942 0.476553 0.000408 -0.517166
C56   C     C_2   0.151733 0.809552 0.876366 0.461053
H20   H     H_    0.180630 0.865163 0.854030 0.108891
O22   O     O_2   0.148473 0.826086 0.003324 -0.498345
C57   C     C_2   0.956889 0.455598 0.090259 0.360026
H21   H     H_    0.938642 0.387529 0.984313 0.091232
O23   O     O_2   0.993036 0.524532 0.094648 -0.532345
C58   C     C_2   0.049443 0.848894 0.839353 0.330152
H22   H     H_    0.067315 0.900241 0.951463 0.140792
O24   O     O_2   0.015689 0.897867 0.791214 -0.526564
H23   H     H_    0.491187 0.863737 0.369878 0.173798
H24   H     H_    0.509062 0.136274 0.630129 0.170265

loop_
_geom_bond_atom_site_label_1
_geom_bond_atom_site_label_2
_ccdc_geom_bond_type
C27   C29   D    
C8    C26   A    
C14   C18   A    
C29   H24   S    
C32   C49   S    
Cu2   O3    S    
C41   C47   S    
C51   H13   S    
C23   O5    A    
C57   O23   D    
C19   C21   A    
C26   H2    S    
C21   C55   S    
C50   O16   D    
C9    C22   A    
C45   N1    S    
C46   N2    S    
C42   C48   S    
C43   H11   S    
C58   H22   S    
C3    C18   A    
C15   C17   A    
C12   C42   A    
C31   C32   S    
C5    C33   A    
C10   C36   A    
C48   H4    S    
C27   H6    S    
C36   N2    A    
C33   O9    S    
C54   O20   D    
C1    C27   S    
C41   C43   A    
C56   H20   S    
C42   C44   A    
Cu1   O8    S    
C38   H17   S    
C28   H5    S    
C32   N4    D    
C37   H18   S    
C44   C46   A    
Cu2   O6    S    
C51   O17   D    
C10   C21   A    
Cu2   N3    S    
C13   C19   A    
C47   H3    S    
Cu1   Cu2   S    
C14   C20   A    
C4    C6    A    
C53   H15   S    
C5    C7    A    
C50   H8    S    
C15   C26   A    
C6    C8    A    
C35   O12   S    
C3    C5    A    
C6    C34   A    
N3    H10   S    
C47   O13   D    
C12   C40   A    
C56   O22   D    
C49   H7    S    
C39   C54   S    
C29   C30   S    
C3    C9    A    
C1    O3    A    
C53   O19   D    
C49   O15   D    
C55   H19   S    
C24   O6    A    
C34   O10   S    
C31   N3    D    
C11   C39   A    
C43   C45   A    
Cu1   N4    S    
C4    C17   A    
C19   C57   S    
C55   O21   D    
C20   C22   A    
C35   N1    A    
C37   C45   A    
C31   C50   S    
Cu1   O1    S    
C16   C25   A    
Cu2   O2    S    
C24   O8    A    
C36   O11   S    
C52   O18   D    
C44   H12   S    
C22   C56   S    
C48   O14   D    
C2    O4    A    
C33   N1    A    
C57   H21   S    
C12   C24   S    
C34   N2    A    
C7    C25   A    
C13   C17   A    
C30   H23   S    
C28   C30   D    
C1    O1    A    
C37   C39   A    
C2    O2    A    
Cu1   O4    S    
C38   C40   A    
Cu2   O7    S    
C7    C51   S    
C11   C23   S    
C58   O24   D    
C11   C41   A    
C40   C53   S    
C54   H16   S    
C25   H1    S    
C38   C46   A    
Cu1   O5    S    
C23   O7    A    
C52   H14   S    
C16   C18   A    
C13   C16   A    
C9    C35   A    
C14   C15   A    
C2    C28   S    
C8    C52   S    
C4    C10   A    
N4    H9    S    
C20   C58   S    
