data_mof_unit_40095.cif
_audit_creation_date              2012-12-10T17:08:43-0500
_audit_creation_method            fapswitch 2.2
_symmetry_space_group_name_H-M    P1
_symmetry_Int_Tables_number       1
_space_group_crystal_system       triclinic
_cell_length_a                    27.795627
_cell_length_b                    11.060399
_cell_length_c                    9.813906
_cell_angle_alpha                 111.668785
_cell_angle_beta                  97.937958
_cell_angle_gamma                 91.161591
_cell_volume                      2768.68718521

loop_
_atom_site_label
_atom_site_type_symbol
_atom_type_description
_atom_site_fract_x
_atom_site_fract_y
_atom_site_fract_z
_atom_type_partial_charge
C1    C     C_R   0.496612 0.253674 0.439568 0.797952
C2    C     C_R   0.503579 0.746327 0.560426 0.795349
C3    C     C_R   0.102562 0.505147 0.501004 -0.152208
C4    C     C_R   0.897141 0.496452 0.487745 -0.150490
C5    C     C_R   0.132360 0.464228 0.603264 -0.103976
C6    C     C_R   0.868016 0.554317 0.401195 -0.095979
C7    C     C_R   0.110390 0.425266 0.703749 0.454254
C8    C     C_R   0.890834 0.614011 0.319265 0.442619
C9    C     C_R   0.124149 0.548042 0.402035 -0.097402
C10   C     C_R   0.874896 0.436596 0.571358 -0.095600
C11   C     C_R   0.355114 0.501020 0.504905 -0.182220
C12   C     C_R   0.644942 0.499576 0.494805 -0.161601
C13   C     C_R   0.977823 0.445605 0.581884 0.019873
C14   C     C_R   0.021532 0.547764 0.398947 0.021226
C15   C     C_R   0.970560 0.553222 0.402549 0.017922
C16   C     C_R   0.029447 0.456344 0.593032 0.011642
C17   C     C_R   0.948599 0.498383 0.490664 0.082544
C18   C     C_R   0.051089 0.503162 0.497713 0.081675
C19   C     C_R   0.954439 0.381258 0.657511 -0.234906
C20   C     C_R   0.043810 0.584082 0.297757 -0.238559
C21   C     C_R   0.904330 0.376854 0.654149 0.430644
C22   C     C_R   0.093824 0.586055 0.299117 0.432374
C23   C     C_R   0.407732 0.500453 0.501671 0.859397
C24   C     C_R   0.592311 0.499744 0.498353 0.858614
C25   C     C_R   0.060206 0.423340 0.698653 -0.220419
C26   C     C_R   0.940900 0.613705 0.321925 -0.222987
C27   C     C_2   0.495177 0.113460 0.402975 0.222411
C28   C     C_2   0.505543 0.886558 0.597021 0.220099
C29   C     C_2   0.502765 0.069469 0.513547 -0.186853
C30   C     C_2   0.501856 0.930789 0.486501 -0.178141
C31   C     C_2   0.504275 0.510395 0.081481 -0.056312
C32   C     C_2   0.495864 0.489232 0.918434 -0.044879
C33   C     C_R   0.183013 0.464298 0.600882 0.584494
C34   C     C_R   0.817279 0.551975 0.402297 0.587369
C35   C     C_R   0.175210 0.549273 0.408745 0.592652
C36   C     C_R   0.824012 0.438621 0.568194 0.592928
C37   C     C_R   0.284792 0.610172 0.596301 -0.095723
C38   C     C_R   0.714551 0.396660 0.389826 -0.127819
C39   C     C_R   0.335420 0.612918 0.598988 0.031119
C40   C     C_R   0.664372 0.393296 0.391027 0.034278
C41   C     C_R   0.324463 0.389817 0.410426 0.305756
C42   C     C_R   0.676168 0.607056 0.595927 0.297159
C43   C     C_R   0.273625 0.389413 0.407939 0.107711
C44   C     C_R   0.726942 0.607985 0.595374 0.104623
C45   C     C_R   0.254263 0.500921 0.502384 0.225398
C46   C     C_R   0.745654 0.501566 0.490487 0.238315
Cu1   Cu    Cu3+1 0.508480 0.521810 0.644910 1.022665
Cu2   Cu    Cu3+1 0.491520 0.478190 0.355090 1.021755
H1    H     H_    0.467504 0.416536 0.844911 0.171567
H2    H     H_    0.532729 0.582820 0.154945 0.167589
H3    H     H_    0.547896 0.623009 0.935045 0.231470
H4    H     H_    0.452036 0.377187 0.065004 0.231066
H5    H     H_    0.729968 0.315751 0.311365 0.169076
H6    H     H_    0.267932 0.692701 0.666285 0.167508
H7    H     H_    0.974191 0.329037 0.717784 0.180697
H8    H     H_    0.022990 0.608311 0.211640 0.179863
H9    H     H_    0.046348 0.398515 0.783002 0.185135
H10   H     H_    0.955806 0.666167 0.262268 0.180728
H11   H     H_    0.497917 0.861963 0.372479 0.205568
H12   H     H_    0.509738 0.138486 0.627664 0.205487
N1    N     N_R   0.202768 0.504998 0.504045 -0.477884
N2    N     N_R   0.797037 0.497227 0.486816 -0.476588
N3    N     N_2   0.478780 0.445430 0.137360 -0.266531
N4    N     N_2   0.521220 0.554570 0.862640 -0.268704
O1    O     O_R   0.504520 0.332330 0.577400 -0.616735
O2    O     O_R   0.495480 0.667670 0.422600 -0.615712
O3    O     O_R   0.490210 0.295500 0.332650 -0.505590
O4    O     O_R   0.509790 0.704500 0.667350 -0.504152
O5    O     O_R   0.437420 0.518430 0.622370 -0.595104
O6    O     O_R   0.562580 0.481570 0.377630 -0.590670
O7    O     O_R   0.423110 0.481600 0.377610 -0.528281
O8    O     O_R   0.576890 0.518400 0.622390 -0.531412
O9    O     O_2   0.212769 0.423207 0.692788 -0.449882
O10   O     O_2   0.787910 0.604317 0.321141 -0.449299
O11   O     O_2   0.801120 0.383543 0.645757 -0.453211
O12   O     O_2   0.197730 0.594189 0.321746 -0.445493
Cl1   Cl    Cl    0.350394 0.248433 0.300046 -0.593973
Cl2   Cl    Cl    0.651197 0.743893 0.718506 -0.591727
Cl3   Cl    Cl    0.512092 0.991353 0.786477 -0.557742
Cl4   Cl    Cl    0.483355 0.008316 0.213389 -0.531627
C47   C     C_3   0.240275 0.270619 0.306152 -0.378290
C48   C     C_3   0.231351 0.265386 0.146906 -0.632081
H13   H     H_    0.213122 0.352403 0.142225 0.295051
H14   H     H_    0.266104 0.261405 0.102271 0.281041
H15   H     H_    0.207371 0.176860 0.075319 0.246020
H16   H     H_    0.256092 0.179911 0.308580 0.254405
H17   H     H_    0.204450 0.270132 0.343732 0.206029
C49   C     C_3   0.760935 0.721577 0.705801 -0.379003
C50   C     C_3   0.770450 0.711604 0.858196 -0.620413
H18   H     H_    0.735961 0.711242 0.903131 0.282359
H19   H     H_    0.788330 0.621035 0.850703 0.283388
H20   H     H_    0.794958 0.796490 0.936526 0.259198
H21   H     H_    0.796539 0.726045 0.668246 0.208985
H22   H     H_    0.745443 0.815646 0.715607 0.258045
Cl5   Cl    Cl    0.142708 0.377398 0.841550 -0.486559
Cl6   Cl    Cl    0.859894 0.693672 0.210411 -0.518787
C51   C     C_3   0.633323 0.272481 0.284114 -0.370754
C52   C     C_3   0.622286 0.276695 0.129254 -0.664469
H23   H     H_    0.602671 0.364000 0.132753 0.252465
H24   H     H_    0.656596 0.279503 0.083982 0.247644
H25   H     H_    0.599011 0.188088 0.053859 0.282559
H26   H     H_    0.652816 0.184109 0.277280 0.221538
H27   H     H_    0.598635 0.260013 0.323142 0.205768
C53   C     C_3   0.369036 0.733371 0.697907 -0.351075
C54   C     C_3   0.344005 0.854694 0.781553 -0.714944
H28   H     H_    0.319077 0.884111 0.702562 0.251338
H29   H     H_    0.323603 0.836400 0.862585 0.257752
H30   H     H_    0.372031 0.936642 0.844153 0.282575
H31   H     H_    0.393537 0.708308 0.781428 0.243512
H32   H     H_    0.392006 0.760771 0.628020 0.198526
Cl7   Cl    Cl    0.881885 0.292899 0.757515 -0.491972
Cl8   Cl    Cl    0.114865 0.635837 0.164567 -0.484032

loop_
_geom_bond_atom_site_label_1
_geom_bond_atom_site_label_2
_ccdc_geom_bond_type
C38   C40   A    
C27   C29   D    
C8    C26   A    
C14   C18   A    
C8    Cl6   S    
C20   H8    S    
C51   C52   S    
C24   O6    A    
C39   C53   S    
C54   H29   S    
C25   H9    S    
C46   N2    S    
C19   C21   A    
C2    O4    A    
C41   Cl1   S    
C53   H31   S    
C3    C18   A    
C9    C22   A    
C52   H23   S    
C34   N2    A    
C14   C20   A    
C45   N1    S    
C28   Cl3   S    
C23   O5    A    
Cu1   O5    S    
C12   C42   A    
C31   C32   S    
C5    C33   A    
C1    O1    A    
C50   H19   S    
C51   H26   S    
C41   C43   A    
C42   C44   A    
C36   N2    A    
C53   C54   S    
C21   Cl7   S    
C44   C46   A    
C47   C48   S    
C10   C21   A    
C32   H1    S    
C54   H30   S    
C49   H22   S    
C35   O12   S    
C13   C19   A    
C31   N3    D    
C32   N4    D    
C4    C6    A    
C27   Cl4   S    
Cu1   N4    S    
C5    C7    A    
Cu2   N3    S    
C6    C8    A    
C3    C5    A    
C6    C34   A    
C12   C40   A    
C29   C30   S    
C3    C9    A    
C36   O11   S    
C23   O7    A    
C43   C45   A    
Cu1   Cu2   S    
C29   H12   S    
C30   H11   S    
C35   N1    A    
C16   C18   A    
C51   H27   S    
C50   H20   S    
C11   C39   A    
C26   H10   S    
C47   H17   S    
C34   O10   S    
C37   H6    S    
C33   O9    S    
C20   C22   A    
C42   Cl2   S    
C48   H14   S    
C43   C47   S    
C4    C17   A    
C31   H2    S    
C37   C45   A    
C48   H15   S    
Cu1   O4    S    
C40   C51   S    
C24   O8    A    
C1    C27   S    
C19   H7    S    
C16   C25   A    
C15   C17   A    
C49   H21   S    
H3    N4    S    
C47   H16   S    
Cu2   O6    S    
C2    O2    A    
H4    N3    S    
C10   C36   A    
C15   C26   A    
C52   H25   S    
C7    Cl5   S    
C54   H28   S    
C12   C24   S    
C22   Cl8   S    
C7    C25   A    
C13   C17   A    
C28   C30   D    
C37   C39   A    
C53   H32   S    
C38   H5    S    
C11   C23   S    
C1    O3    A    
C11   C41   A    
Cu2   O3    S    
C52   H24   S    
Cu1   O8    S    
C38   C46   A    
C49   C50   S    
C33   N1    A    
C48   H13   S    
C13   C16   A    
C9    C35   A    
C14   C15   A    
C2    C28   S    
Cu2   O7    S    
Cu2   O2    S    
C50   H18   S    
C44   C49   S    
C4    C10   A    
Cu1   O1    S    
