data_mof_unit_30367.cif
_audit_creation_date              2012-12-11T15:50:21-0500
_audit_creation_method            fapswitch 2.2
_symmetry_space_group_name_H-M    P1
_symmetry_Int_Tables_number       1
_space_group_crystal_system       triclinic
_cell_length_a                    19.078509
_cell_length_b                    11.24639
_cell_length_c                    18.823385
_cell_angle_alpha                 89.812107
_cell_angle_beta                  90.980666
_cell_angle_gamma                 90.007392
_cell_volume                      4038.21411851

loop_
_atom_site_label
_atom_site_type_symbol
_atom_type_description
_atom_site_fract_x
_atom_site_fract_y
_atom_site_fract_z
_atom_type_partial_charge
C1    C     C_R   0.274076 0.040508 0.854169 0.519759
C2    C     C_R   0.726360 0.041447 0.146181 0.513447
C3    C     C_R   0.774079 0.540504 0.854171 0.519760
C4    C     C_R   0.226365 0.541453 0.146185 0.513428
C5    C     C_3   0.544070 0.728724 0.960399 -0.129172
C6    C     C_3   0.496219 0.718785 0.025639 -0.114799
C7    C     C_3   0.044024 0.228698 0.960413 -0.129209
C8    C     C_3   0.996172 0.218806 0.025655 -0.114761
C9    C     C_R   0.240243 0.590489 0.075647 -0.007208
C10   C     C_R   0.761009 0.588032 0.925081 -0.009524
C11   C     C_R   0.740231 0.090485 0.075643 -0.007196
C12   C     C_R   0.261001 0.088035 0.925078 -0.009550
C13   C     C_R   0.306336 0.595763 0.047442 -0.046257
C14   C     C_R   0.695597 0.588442 0.954518 -0.074658
C15   C     C_R   0.806323 0.095752 0.047438 -0.046309
C16   C     C_R   0.195588 0.088450 0.954515 -0.074640
C17   C     C_R   0.314212 0.621438 0.975803 -0.063384
C18   C     C_R   0.687470 0.614073 0.026175 -0.058921
C19   C     C_R   0.814202 0.121433 0.975800 -0.063388
C20   C     C_R   0.187462 0.114083 0.026172 -0.058909
C21   C     C_R   0.190332 0.676138 0.965666 0.081738
C22   C     C_R   0.810841 0.669953 0.035366 0.072909
C23   C     C_R   0.690322 0.176137 0.965661 0.081699
C24   C     C_R   0.310833 0.169966 0.035359 0.072910
C25   C     C_R   0.182278 0.626208 0.032671 0.245215
C26   C     C_R   0.819129 0.620534 0.968436 0.267985
C27   C     C_R   0.682265 0.126222 0.032671 0.245159
C28   C     C_R   0.319121 0.120529 0.968434 0.268147
C29   C     C_3   0.353164 0.492857 0.043579 -0.238333
C30   C     C_3   0.654515 0.479778 0.961322 -0.231915
C31   C     C_3   0.853145 0.992841 0.043575 -0.238305
C32   C     C_3   0.154502 0.979788 0.961322 -0.231918
C33   C     C_3   0.363043 0.519392 0.965416 -0.048017
C34   C     C_3   0.642734 0.507382 0.038374 -0.040295
C35   C     C_3   0.863032 0.019384 0.965415 -0.047995
C36   C     C_3   0.142711 0.007410 0.038370 -0.040321
C37   C     C_R   0.258062 0.659286 0.932999 -0.021681
C38   C     C_R   0.743208 0.654419 0.067912 -0.030473
C39   C     C_R   0.758053 0.159280 0.932996 -0.021674
C40   C     C_R   0.243202 0.154427 0.067909 -0.030521
C41   C     C_R   0.499724 0.837413 0.422090 -0.002876
C42   C     C_R   0.482108 0.829067 0.570307 0.041975
C43   C     C_R   0.999722 0.337413 0.422089 -0.002884
C44   C     C_R   0.982108 0.329066 0.570307 0.041989
C45   C     C_R   0.467253 0.819794 0.856231 0.538292
C46   C     C_R   0.559676 0.816683 0.137703 0.512541
C47   C     C_R   0.967241 0.319792 0.856236 0.538293
C48   C     C_R   0.059668 0.316684 0.137702 0.512587
C49   C     C_R   0.463378 0.744424 0.453252 0.026688
C50   C     C_R   0.454899 0.740483 0.525467 0.050640
C51   C     C_R   0.963377 0.244423 0.453252 0.026534
C52   C     C_R   0.954900 0.240481 0.525467 0.050653
C53   C     C_R   0.508619 0.932473 0.538676 -0.183696
C54   C     C_R   0.517276 0.936766 0.464804 -0.167925
C55   C     C_R   0.008616 0.432474 0.538675 -0.183689
C56   C     C_R   0.017272 0.436767 0.464803 -0.167903
C57   C     C_3   0.468718 0.612285 0.447086 0.109358
C58   C     C_3   0.459255 0.607638 0.527255 0.153750
C59   C     C_3   0.968720 0.112283 0.447086 0.109350
C60   C     C_3   0.959258 0.107636 0.527255 0.153767
C61   C     C_R   0.249062 0.581267 0.423889 0.061078
C62   C     C_R   0.749386 0.607750 0.582524 0.019427
C63   C     C_R   0.749063 0.081268 0.423888 0.061027
C64   C     C_R   0.249386 0.107749 0.582524 0.019427
C65   C     C_R   0.222217 0.684427 0.453477 0.021863
C66   C     C_R   0.798576 0.677713 0.547128 0.026414
C67   C     C_R   0.722218 0.184428 0.453477 0.021854
C68   C     C_R   0.298576 0.177711 0.547128 0.026413
C69   C     C_R   0.222898 0.696830 0.525771 0.032420
C70   C     C_R   0.789866 0.703298 0.476613 -0.005737
C71   C     C_R   0.722899 0.196832 0.525771 0.032421
C72   C     C_R   0.289867 0.203296 0.476613 -0.005737
C73   C     C_R   0.283506 0.510424 0.541630 -0.183687
C74   C     C_R   0.675756 0.612908 0.476826 -0.144069
C75   C     C_R   0.783508 0.010426 0.541630 -0.183682
C76   C     C_R   0.175757 0.112908 0.476826 -0.144066
C77   C     C_R   0.283676 0.498192 0.468279 -0.102725
C78   C     C_R   0.684965 0.584836 0.548967 -0.139341
C79   C     C_R   0.783678 0.998194 0.468279 -0.102732
C80   C     C_R   0.184966 0.084834 0.548967 -0.139338
C81   C     C_3   0.152123 0.743584 0.445539 -0.271401
C82   C     C_3   0.876118 0.661087 0.539381 -0.263327
C83   C     C_3   0.652124 0.243586 0.445539 -0.271398
C84   C     C_3   0.376118 0.161083 0.539381 -0.263326
C85   C     C_3   0.152164 0.753615 0.525577 -0.268161
C86   C     C_3   0.866073 0.687932 0.461353 -0.266486
C87   C     C_3   0.652165 0.253617 0.525577 -0.268159
C88   C     C_3   0.366073 0.187928 0.461352 -0.266483
C89   C     C_R   0.271983 0.684104 0.858541 0.547487
C90   C     C_R   0.728537 0.682567 0.141363 0.525513
C91   C     C_R   0.771982 0.184103 0.858540 0.547481
C92   C     C_R   0.228536 0.182568 0.141363 0.525476
C93   C     C_R   0.250308 0.608324 0.570710 0.016986
C94   C     C_R   0.730798 0.664934 0.438973 0.008015
C95   C     C_R   0.750309 0.108325 0.570710 0.016988
C96   C     C_R   0.230798 0.164933 0.438973 0.008015
C97   C     C_R   0.271463 0.046796 0.646838 0.544782
C98   C     C_R   0.728319 0.043628 0.354012 0.547874
C99   C     C_R   0.771463 0.546797 0.646838 0.544781
C100  C     C_R   0.228319 0.543628 0.354012 0.547894
C101  C     C_R   0.466269 0.822743 0.645481 0.559621
C102  C     C_R   0.531190 0.823796 0.352863 0.543297
C103  C     C_R   0.966269 0.322743 0.645481 0.559616
C104  C     C_R   0.031189 0.323796 0.352863 0.543272
C105  C     C_R   0.259564 0.638987 0.643823 0.559273
C106  C     C_R   0.726238 0.686943 0.363197 0.555040
C107  C     C_R   0.759564 0.138988 0.643822 0.559274
C108  C     C_R   0.226238 0.186943 0.363197 0.555037
C109  C     C_3   0.487494 0.912232 0.028472 0.056112
C110  C     C_3   0.536079 0.922511 0.963754 0.050210
C111  C     C_3   0.987489 0.412261 0.028470 0.056083
C112  C     C_3   0.036078 0.422491 0.963753 0.050235
C113  C     C_3   0.445840 0.811591 0.993106 -0.152581
C114  C     C_3   0.586680 0.829193 0.996367 -0.186965
C115  C     C_3   0.945810 0.311636 0.993116 -0.152623
C116  C     C_3   0.086658 0.329148 0.996370 -0.186976
C117  C     C_3   0.494488 0.822317 0.929283 -0.006059
C118  C     C_3   0.537836 0.820023 0.061265 -0.022982
C119  C     C_3   0.994463 0.322316 0.929290 -0.006075
C120  C     C_3   0.037814 0.320026 0.061268 -0.022901
Cr1   Cr    Cr6+3 0.229640 0.835880 0.747370 1.066933
Cr2   Cr    Cr6+3 0.770360 0.835880 0.252630 1.053003
Cr3   Cr    Cr6+3 0.729640 0.335880 0.747370 1.066935
Cr4   Cr    Cr6+3 0.270360 0.335880 0.252630 1.052998
Cr5   Cr    Cr6+3 0.387390 0.989720 0.750850 1.058325
Cr6   Cr    Cr6+3 0.612610 0.989720 0.249150 1.088401
Cr7   Cr    Cr6+3 0.887390 0.489720 0.750850 1.058332
Cr8   Cr    Cr6+3 0.112610 0.489720 0.249150 1.088348
Cr9   Cr    Cr6+3 0.385770 0.677220 0.749340 1.068825
Cr10  Cr    Cr6+3 0.614230 0.677220 0.250660 1.042895
Cr11  Cr    Cr6+3 0.885770 0.177220 0.749340 1.068829
Cr12  Cr    Cr6+3 0.114230 0.177220 0.250660 1.042928
H1    H     H_    0.387928 0.810351 0.989830 0.135245
H2    H     H_    0.644506 0.838937 0.999228 0.145150
H3    H     H_    0.887897 0.310420 0.989847 0.135180
H4    H     H_    0.144485 0.338868 0.999226 0.145142
H5    H     H_    0.524960 0.007424 0.570935 0.127430
H6    H     H_    0.543322 0.013173 0.442443 0.138956
H7    H     H_    0.024956 0.507425 0.570934 0.127422
H8    H     H_    0.043316 0.513175 0.442442 0.138953
H9    H     H_    0.019317 0.076992 0.428967 0.150994
H10   H     H_    0.910918 0.065143 0.545872 0.160496
H11   H     H_    0.519315 0.576990 0.428970 0.150903
H12   H     H_    0.410913 0.565148 0.545872 0.160497
H13   H     H_    0.309250 0.444630 0.575184 0.128400
H14   H     H_    0.628719 0.585481 0.449587 0.136490
H15   H     H_    0.809252 0.944633 0.575183 0.128401
H16   H     H_    0.128720 0.085482 0.449587 0.136491
H17   H     H_    0.307909 0.420942 0.446112 0.171667
H18   H     H_    0.645141 0.536338 0.576729 0.176634
H19   H     H_    0.807911 0.920944 0.446112 0.171688
H20   H     H_    0.145143 0.036335 0.576729 0.176634
H21   H     H_    0.109573 0.685062 0.425297 0.156958
H22   H     H_    0.892919 0.568059 0.549507 0.165096
H23   H     H_    0.609573 0.185066 0.425297 0.156957
H24   H     H_    0.392919 0.068054 0.549506 0.165097
H25   H     H_    0.155787 0.831245 0.418354 0.154783
H26   H     H_    0.906956 0.730209 0.568201 0.139813
H27   H     H_    0.655789 0.331248 0.418353 0.154779
H28   H     H_    0.406957 0.230204 0.568200 0.139810
H29   H     H_    0.154280 0.846216 0.544605 0.147682
H30   H     H_    0.892075 0.771741 0.444866 0.154995
H31   H     H_    0.654282 0.346220 0.544605 0.147681
H32   H     H_    0.392076 0.271737 0.444866 0.154965
H33   H     H_    0.111854 0.696950 0.551045 0.137755
H34   H     H_    0.876686 0.609798 0.427065 0.170904
H35   H     H_    0.611854 0.196954 0.551045 0.137756
H36   H     H_    0.376686 0.109795 0.427064 0.170912
H37   H     H_    0.562704 0.657628 0.925517 0.145976
H38   H     H_    0.481635 0.635506 0.052712 0.132451
H39   H     H_    0.062643 0.157574 0.925542 0.145967
H40   H     H_    0.981578 0.135542 0.052739 0.132479
H41   H     H_    0.820152 0.914818 0.054211 0.161255
H42   H     H_    0.192430 0.907213 0.953290 0.156527
H43   H     H_    0.320177 0.414833 0.054223 0.161268
H44   H     H_    0.692440 0.407202 0.953278 0.156500
H45   H     H_    0.400323 0.502872 0.078192 0.133912
H46   H     H_    0.607051 0.480479 0.926616 0.144109
H47   H     H_    0.900300 0.002845 0.078194 0.133919
H48   H     H_    0.107043 0.980477 0.926610 0.144124
H49   H     H_    0.417104 0.547963 0.952602 0.118007
H50   H     H_    0.587533 0.529995 0.049708 0.114873
H51   H     H_    0.917095 0.047954 0.952607 0.118001
H52   H     H_    0.087510 0.030046 0.049693 0.114850
O1    O     O_R   0.214300 0.709080 0.827500 -0.434454
O2    O     O_R   0.785700 0.709080 0.172500 -0.466198
O3    O     O_R   0.714300 0.209080 0.827500 -0.434453
O4    O     O_R   0.285700 0.209080 0.172500 -0.466226
O5    O     O_R   0.445900 0.919370 0.676500 -0.518575
O6    O     O_R   0.554100 0.919370 0.323500 -0.500407
O7    O     O_R   0.945900 0.419370 0.676500 -0.518578
O8    O     O_R   0.054100 0.419370 0.323500 -0.500416
O9    O     O_R   0.456660 0.717710 0.669820 -0.471076
O10   O     O_R   0.543340 0.717710 0.330180 -0.542025
O11   O     O_R   0.956660 0.217710 0.669820 -0.471077
O12   O     O_R   0.043340 0.217710 0.330180 -0.542021
O13   O     O_R   0.320590 0.625770 0.672930 -0.505702
O14   O     O_R   0.679410 0.625770 0.327070 -0.496558
O15   O     O_R   0.820590 0.125770 0.672930 -0.505703
O16   O     O_R   0.179410 0.125770 0.327070 -0.496555
O17   O     O_3   0.334270 0.834280 0.749190 -0.317160
O18   O     O_3   0.665730 0.834280 0.250810 -0.343306
O19   O     O_3   0.834270 0.334280 0.749190 -0.317166
O20   O     O_3   0.165730 0.334280 0.250810 -0.343292
O21   O     O_R   0.236190 0.958390 0.823150 -0.514744
O22   O     O_R   0.763810 0.958390 0.176850 -0.522440
O23   O     O_R   0.736190 0.458390 0.823150 -0.514758
O24   O     O_R   0.263810 0.458390 0.176850 -0.522434
O25   O     O_R   0.332090 0.075280 0.831290 -0.452662
O26   O     O_R   0.667910 0.075280 0.168710 -0.446837
O27   O     O_R   0.832090 0.575280 0.831290 -0.452647
O28   O     O_R   0.167910 0.575280 0.168710 -0.446850
O29   O     O_R   0.446280 0.918040 0.826620 -0.488827
O30   O     O_R   0.553720 0.918040 0.173380 -0.460897
O31   O     O_R   0.946280 0.418040 0.826620 -0.488827
O32   O     O_R   0.053720 0.418040 0.173380 -0.460934
O33   O     O_R   0.457080 0.716270 0.831760 -0.524173
O34   O     O_R   0.542920 0.716270 0.168240 -0.505667
O35   O     O_R   0.957080 0.216270 0.831760 -0.524165
O36   O     O_R   0.042920 0.216270 0.168240 -0.505644
O37   O     O_R   0.320980 0.624440 0.823040 -0.473939
O38   O     O_R   0.679020 0.624440 0.176960 -0.475737
O39   O     O_R   0.820980 0.124440 0.823040 -0.473945
O40   O     O_R   0.179020 0.124440 0.176960 -0.475739
O41   O     O_R   0.213880 0.710510 0.665560 -0.509660
O42   O     O_R   0.786120 0.710510 0.334440 -0.503520
O43   O     O_R   0.713880 0.210510 0.665560 -0.509652
O44   O     O_R   0.286120 0.210510 0.334440 -0.503517
O45   O     O_R   0.235800 0.959720 0.673040 -0.508926
O46   O     O_R   0.764200 0.959720 0.326960 -0.513536
O47   O     O_R   0.735800 0.459720 0.673040 -0.508926
O48   O     O_R   0.264200 0.459720 0.326960 -0.513542
O49   O     O_R   0.331670 0.076720 0.669350 -0.517610
O50   O     O_R   0.668330 0.076720 0.330650 -0.524060
O51   O     O_R   0.831670 0.576720 0.669350 -0.517607
O52   O     O_R   0.168330 0.576720 0.330650 -0.524074
O53   O     O_3   0.411573 0.565307 0.409341 -0.741421
H53   H     H_    0.421864 0.576959 0.358297 0.347826
O54   O     O_3   0.519422 0.568015 0.563419 -0.728467
H54   H     H_    0.518227 0.479963 0.560351 0.306786
O55   O     O_3   0.911579 0.065293 0.409341 -0.741434
H55   H     H_    0.921809 0.077138 0.358299 0.347853
O56   O     O_3   0.019426 0.068016 0.563419 -0.728469
H56   H     H_    0.018233 0.979965 0.560351 0.306791
C121  C     C_2   0.454791 0.996664 0.078162 0.654658
O57   O     O_2   0.487976 0.082794 0.098824 -0.369692
O58   O     O_R   0.391277 0.965650 0.109195 -0.687909
H57   H     H_    0.379140 0.017561 0.151053 0.370047
C122  C     C_2   0.555191 0.014175 0.910296 0.634639
O59   O     O_2   0.608783 0.001465 0.876411 -0.497086
O60   O     O_R   0.506336 0.101091 0.890625 -0.565910
H58   H     H_    0.515466 0.136799 0.842171 0.362298
C123  C     C_2   0.954840 0.496738 0.078170 0.654623
O61   O     O_2   0.988035 0.582933 0.098715 -0.369578
O62   O     O_R   0.891417 0.465656 0.109395 -0.687779
H59   H     H_    0.879347 0.517644 0.151241 0.370067
C124  C     C_2   0.055213 0.514142 0.910294 0.634652
O63   O     O_2   0.108820 0.501427 0.876434 -0.497104
O64   O     O_R   0.006367 0.601057 0.890597 -0.565960
H60   H     H_    0.015519 0.636756 0.842145 0.362287
C125  C     C_2   0.123326 0.737435 0.937196 0.623032
O65   O     O_2   0.112165 0.764839 0.875370 -0.498236
O66   O     O_R   0.072456 0.773407 0.984936 -0.601380
H61   H     H_    0.035073 0.822786 0.959922 0.350656
C126  C     C_2   0.877248 0.729756 0.064087 0.626809
O67   O     O_2   0.893813 0.737073 0.126788 -0.464227
O68   O     O_R   0.923627 0.779209 0.015959 -0.612454
H62   H     H_    0.960796 0.827750 0.041766 0.346268
C127  C     C_2   0.623319 0.237442 0.937186 0.623031
O69   O     O_2   0.612154 0.264818 0.875356 -0.498195
O70   O     O_R   0.572453 0.273440 0.984924 -0.601461
H63   H     H_    0.535072 0.322818 0.959906 0.350634
C128  C     C_2   0.377248 0.229752 0.064079 0.626800
O71   O     O_2   0.393809 0.237079 0.126783 -0.464140
O72   O     O_R   0.423633 0.279180 0.015950 -0.612430
H64   H     H_    0.460803 0.327723 0.041756 0.346267
O73   O     O_3   0.115134 0.600634 0.052295 -0.568214
H65   H     H_    0.115136 0.516428 0.066487 0.311864
O74   O     O_3   0.886041 0.590340 0.950033 -0.568003
H66   H     H_    0.884621 0.505408 0.936685 0.316394
O75   O     O_3   0.615117 0.100698 0.052308 -0.568214
H67   H     H_    0.615097 0.016493 0.066497 0.311920
O76   O     O_3   0.386029 0.090286 0.950046 -0.567970
H68   H     H_    0.384591 0.005351 0.936692 0.316389
C129  C     C_2   0.334306 0.423445 0.916992 0.645633
O77   O     O_2   0.372576 0.377601 0.873444 -0.449442
O78   O     O_R   0.264062 0.388790 0.921073 -0.711853
H69   H     H_    0.250355 0.328769 0.883302 0.346995
C130  C     C_2   0.673771 0.415527 0.088551 0.634001
O79   O     O_2   0.636543 0.368638 0.132816 -0.440327
O80   O     O_R   0.744736 0.385344 0.085022 -0.698174
H70   H     H_    0.759691 0.327291 0.123666 0.351603
C131  C     C_2   0.834300 0.923443 0.916983 0.645657
O81   O     O_2   0.872574 0.877604 0.873437 -0.449412
O82   O     O_R   0.764055 0.888786 0.921057 -0.711868
H71   H     H_    0.750354 0.828763 0.883284 0.346992
C132  C     C_2   0.173722 0.915546 0.088557 0.634030
O83   O     O_2   0.136478 0.868681 0.132816 -0.440353
O84   O     O_R   0.244682 0.885327 0.085042 -0.698108
H72   H     H_    0.259620 0.827276 0.123693 0.351571

loop_
_geom_bond_atom_site_label_1
_geom_bond_atom_site_label_2
_ccdc_geom_bond_type
Cr8   O52   S    
Cr2   O22   S    
O80   H70   S    
C73   C93   A    
C75   C95   A    
C48   C120  S    
Cr6   O18   S    
C53   H5    S    
C63   C98   S    
C101  O5    A    
C5    C6    S    
C20   C40   A    
Cr3   O43   S    
C35   H51   S    
O70   H63   S    
C104  O8    A    
C29   C33   S    
C55   H7    S    
C9    C13   A    
C72   C88   S    
Cr5   O29   S    
C87   H35   S    
C12   C16   A    
C88   H36   S    
C45   O29   A    
Cr10  O18   S    
C105  O13   A    
C96   C108  S    
C59   C60   S    
C29   H45   S    
C121  O57   D    
Cr4   O24   S    
C29   H43   S    
C102  O10   A    
C30   H44   S    
C109  C118  S    
C4    O24   A    
C110  C122  S    
C122  O60   S    
C51   C52   A    
C7    C119  S    
C92   O40   A    
C62   C66   A    
C108  O44   A    
C66   C82   S    
C11   C27   A    
C68   C72   A    
Cr4   O48   S    
C25   O73   S    
C64   C97   S    
C35   C131  S    
C33   C129  S    
C127  O70   S    
C100  O52   A    
C123  O62   S    
C60   O56   S    
Cr7   O51   S    
Cr11  O11   S    
C84   C88   S    
C99   O47   A    
C38   C90   S    
C69   C93   A    
Cr3   O19   S    
C85   H33   S    
C18   C38   A    
C3    O23   A    
C129  O78   S    
C19   C35   S    
C76   C96   A    
C84   H24   S    
C44   C55   A    
Cr7   O31   S    
C66   C70   A    
C56   H8    S    
Cr1   O17   S    
C62   C99   S    
C72   C96   A    
C61   C65   A    
C71   C95   A    
C76   H16   S    
C73   C77   A    
C32   H48   S    
Cr8   O8    S    
C75   C79   A    
C57   O53   S    
C22   C38   A    
C111  C123  S    
C67   C83   S    
C111  C112  S    
Cr1   O41   S    
C7    C8    S    
C53   C54   A    
C122  O59   D    
C21   C25   A    
C24   C40   A    
C64   C68   A    
C42   C53   A    
C89   O37   A    
C125  O65   D    
C82   H26   S    
Cr2   O2    S    
C83   H23   S    
Cr12  O16   S    
C49   C57   S    
C41   C102  S    
C124  O63   D    
Cr6   O6    S    
C43   C104  S    
C52   C60   S    
C98   O46   A    
C61   C77   A    
C107  O43   A    
C2    O22   A    
C105  O41   A    
C110  C114  S    
Cr9   O17   S    
C44   C52   A    
C109  C121  S    
O73   H65   S    
C132  O84   S    
C1    C12   S    
C11   C15   A    
C2    C11   S    
C44   C103  S    
C3    O27   A    
Cr1   O45   S    
C30   C34   S    
C1    O25   A    
C10   C14   A    
Cr4   O4    S    
Cr5   O25   S    
C88   H32   S    
Cr7   O7    S    
C116  C120  S    
C73   H13   S    
Cr12  O36   S    
C7    C116  S    
C131  O81   D    
C98   O50   A    
C130  O79   D    
C30   H46   S    
C21   C37   A    
C126  O68   S    
C42   C50   A    
C113  C117  S    
Cr8   O32   S    
C115  C119  S    
Cr5   O5    S    
C74   C78   A    
C61   C100  S    
C103  O7    A    
C58   O54   S    
C42   C101  S    
C112  C116  S    
C69   C85   S    
C6    H38   S    
Cr7   O27   S    
C91   O3    A    
C89   O1    A    
C62   C78   A    
C76   C80   A    
O68   H62   S    
C92   O4    A    
C15   C31   S    
C16   C32   S    
C13   C17   A    
C107  O15   A    
C57   C58   S    
C115  H3    S    
C114  H2    S    
Cr6   O50   S    
Cr9   O13   S    
C58   H12   S    
C59   H9    S    
C49   C50   A    
O76   H68   S    
Cr11  O39   S    
C4    C9    S    
C81   C85   S    
O62   H59   S    
C83   C87   S    
C55   C56   A    
C46   O34   A    
C7    H39   S    
C85   H29   S    
C74   C94   A    
O54   H54   S    
C86   H34   S    
Cr1   O21   S    
C113  H1    S    
C84   H28   S    
C9    C25   A    
O60   H58   S    
C15   C19   A    
Cr5   O17   S    
C17   C33   S    
C12   C28   A    
C13   C29   S    
C70   C94   A    
C45   C117  S    
O56   H56   S    
Cr2   O42   S    
C46   C118  S    
C128  O72   S    
Cr8   O20   S    
C41   C49   A    
Cr9   O33   S    
Cr6   O30   S    
C60   H10   S    
C47   O31   A    
O74   H66   S    
Cr11  O19   S    
C106  O14   A    
C34   C130  S    
C127  O69   D    
C64   C80   A    
C103  O11   A    
C110  C117  S    
C26   O74   S    
C101  O9    A    
Cr12  O20   S    
C81   H25   S    
C50   C58   S    
C24   C28   A    
Cr10  O38   S    
C77   H17   S    
O82   H71   S    
C75   H15   S    
C82   C86   S    
C32   H42   S    
C31   H47   S    
C68   C84   S    
O84   H72   S    
C129  O77   D    
C65   C81   S    
O78   H69   S    
C104  O12   A    
C95   C107  S    
C71   C87   S    
C121  O58   S    
C33   H49   S    
C31   C35   S    
C91   O39   A    
C32   C36   S    
C48   O36   A    
C23   C127  S    
Cr12  O40   S    
C74   H14   S    
Cr10  O10   S    
C112  C119  S    
C116  H4    S    
C90   O2    A    
C37   C89   S    
Cr2   O18   S    
C109  C110  S    
Cr8   O28   S    
C22   C126  S    
C43   C51   A    
C123  O61   D    
C65   C69   A    
C102  O6    A    
C67   C71   A    
C20   C36   S    
Cr3   O47   S    
C22   C26   A    
C5    H37   S    
Cr7   O19   S    
C8    H40   S    
C28   O76   S    
C87   H31   S    
C48   O32   A    
C5    C114  S    
C45   O33   A    
C132  O83   D    
C14   C18   A    
C81   H21   S    
C63   C79   A    
Cr4   O20   S    
Cr11  O35   S    
C90   O38   A    
O55   H55   S    
Cr10  O34   S    
C8    C115  S    
C93   C105  S    
C97   O45   A    
C46   O30   A    
C106  O42   A    
C36   H52   S    
C23   C27   A    
C1    O21   A    
C126  O67   D    
C16   C20   A    
C10   C26   A    
C47   C119  S    
C14   C30   S    
Cr4   O44   S    
C24   C128  S    
Cr2   O46   S    
C63   C67   A    
C2    O26   A    
C57   H11   S    
C100  O48   A    
Cr9   O37   S    
Cr6   O26   S    
C125  O66   S    
O75   H67   S    
C47   O35   A    
C5    C117  S    
C111  C120  S    
C124  O64   S    
C108  O16   A    
Cr11  O15   S    
C6    C113  S    
C112  C124  S    
C99   O51   A    
C97   O49   A    
C128  O71   D    
Cr3   O23   S    
C17   C37   A    
C40   C92   S    
C18   C34   S    
C114  C118  S    
C19   C39   A    
C86   H30   S    
C21   C125  S    
O72   H64   S    
C51   C59   S    
O64   H60   S    
C70   C86   S    
C78   H18   S    
C79   H19   S    
C31   H41   S    
C80   H20   S    
C8    C120  S    
C94   C106  S    
C39   C91   S    
C27   O75   S    
Cr9   O9    S    
O58   H57   S    
C109  C113  S    
C4    O28   A    
C59   O55   S    
O66   H61   S    
C131  O82   S    
C3    C10   S    
Cr10  O14   S    
C36   C132  S    
C54   H6    S    
C23   C39   A    
C130  O80   S    
C34   H50   S    
Cr3   O3    S    
C41   C54   A    
Cr5   O49   S    
Cr1   O1    S    
C82   H22   S    
C43   C56   A    
C83   H27   S    
Cr12  O12   S    
C111  C115  S    
O53   H53   S    
C6    C118  S    
