data_mof_unit_56834.cif
_audit_creation_date              2012-12-10T17:03:26-0500
_audit_creation_method            fapswitch 2.2
_symmetry_space_group_name_H-M    P1
_symmetry_Int_Tables_number       1
_space_group_crystal_system       triclinic
_cell_length_a                    15.078805
_cell_length_b                    10.861855
_cell_length_c                    9.780778
_cell_angle_alpha                 109.402454
_cell_angle_beta                  98.827239
_cell_angle_gamma                 90.802977
_cell_volume                      1489.42575714

loop_
_atom_site_label
_atom_site_type_symbol
_atom_type_description
_atom_site_fract_x
_atom_site_fract_y
_atom_site_fract_z
_atom_type_partial_charge
C1    C     C_R   0.489175 0.253699 0.443301 0.889359
C2    C     C_R   0.501079 0.746070 0.556701 0.877792
C3    C     C_R   0.072166 0.527465 0.761129 -0.198435
C4    C     C_R   0.928130 0.478534 0.240296 -0.207448
C5    C     C_2   0.475594 0.113780 0.418561 -0.357277
C6    C     C_2   0.491149 0.885246 0.580988 -0.374731
C7    C     C_2   0.437137 0.068339 0.510191 -0.042764
C8    C     C_2   0.435009 0.927822 0.486745 -0.058866
C9    C     C_2   0.507436 0.511143 0.081108 -0.061101
C10   C     C_2   0.492020 0.490118 0.919488 -0.055208
C11   C     C_R   0.328628 0.500894 0.500809 0.909162
C12   C     C_R   0.671412 0.500108 0.499392 0.804785
C13   C     C_R   0.801723 0.488964 0.369462 -0.245194
C14   C     C_R   0.198481 0.515965 0.631671 -0.236271
C15   C     C_R   0.768275 0.500537 0.498977 -0.072209
C16   C     C_R   0.231876 0.502649 0.501718 -0.047029
C17   C     C_R   0.827669 0.513107 0.629087 -0.239218
C18   C     C_R   0.172548 0.490736 0.371770 -0.191309
C19   C     C_R   0.920153 0.514127 0.630690 0.105801
C20   C     C_R   0.080113 0.491053 0.370511 0.097552
C21   C     C_R   0.953622 0.502453 0.500317 0.067141
C22   C     C_R   0.046645 0.503150 0.500992 0.062847
C23   C     C_R   0.894162 0.489907 0.369241 0.109748
C24   C     C_R   0.106098 0.515742 0.632081 0.110091
C25   C     C_R   0.979639 0.526564 0.760419 -0.205979
C26   C     C_R   0.020652 0.479082 0.240914 -0.197543
Cu1   Cu    Cu3+1 0.515770 0.521810 0.644910 0.969012
Cu2   Cu    Cu3+1 0.484230 0.478190 0.355090 0.986809
H1    H     H_    0.755988 0.479546 0.268933 0.154971
H2    H     H_    0.244196 0.525702 0.732310 0.151473
H3    H     H_    0.802092 0.521943 0.729427 0.157344
H4    H     H_    0.198131 0.481176 0.271256 0.166075
H5    H     H_    0.954606 0.535517 0.861189 0.140593
H6    H     H_    0.045692 0.469979 0.140112 0.142043
H7    H     H_    0.117135 0.537066 0.862380 0.142520
H8    H     H_    0.883179 0.469057 0.139072 0.140050
H9    H     H_    0.533182 0.955527 0.675952 0.166794
H10   H     H_    0.500660 0.045686 0.325689 0.166675
H11   H     H_    0.439442 0.418669 0.847858 0.176822
H12   H     H_    0.559522 0.583545 0.153300 0.154525
H13   H     H_    0.589146 0.621912 0.933160 0.192491
H14   H     H_    0.411421 0.377287 0.066481 0.215635
N1    N     N_2   0.460520 0.445420 0.137370 -0.278929
N2    N     N_2   0.539480 0.554580 0.862630 -0.289490
O1    O     O_R   0.508410 0.332340 0.577400 -0.567215
O2    O     O_R   0.491590 0.667660 0.422600 -0.564874
O3    O     O_R   0.481780 0.295500 0.332650 -0.559092
O4    O     O_R   0.518220 0.704500 0.667350 -0.565414
O5    O     O_R   0.383570 0.518390 0.622380 -0.579161
O6    O     O_R   0.616430 0.481610 0.377620 -0.589949
O7    O     O_R   0.356940 0.481550 0.377630 -0.561722
O8    O     O_R   0.643060 0.518450 0.622370 -0.585406
C27   C     C_2   0.364643 0.842854 0.367156 0.894925
O9    O     O_2   0.325160 0.750892 0.383329 -0.602413
O10   O     O_R   0.339937 0.873378 0.239048 -0.757246
H15   H     H_    0.290561 0.810106 0.166713 0.330289
C28   C     C_2   0.387265 0.150132 0.623863 0.872842
O11   O     O_2   0.388185 0.127889 0.738699 -0.608147
O12   O     O_R   0.334742 0.246764 0.595871 -0.770291
H16   H     H_    0.301058 0.291552 0.679064 0.313763

loop_
_geom_bond_atom_site_label_1
_geom_bond_atom_site_label_2
_ccdc_geom_bond_type
C8    C27   S    
Cu1   O4    S    
C4    C26   A    
O10   H15   S    
C4    H8    S    
Cu2   O3    S    
C15   C17   A    
C11   O5    A    
C11   C16   S    
Cu2   N1    S    
C12   O6    A    
C12   C15   S    
C3    H7    S    
C1    O1    A    
H13   N2    S    
Cu1   O1    S    
C13   C15   A    
C28   O11   D    
C6    H9    S    
O12   H16   S    
C27   O9    D    
C2    O2    A    
C7    C28   S    
Cu2   O2    S    
C3    C24   A    
C2    C6    S    
C20   C26   A    
C14   H2    S    
C1    C5    S    
C22   C24   A    
C13   H1    S    
C12   O8    A    
C11   O7    A    
C20   C22   A    
C5    H10   S    
C18   C20   A    
C27   O10   S    
C21   C23   A    
C17   H3    S    
Cu2   O7    S    
C14   C16   A    
C9    N1    D    
C28   O12   S    
H14   N1    S    
C19   C25   A    
C10   N2    D    
C17   C19   A    
C7    C8    S    
C3    C25   A    
C18   H4    S    
Cu1   O8    S    
C13   C23   A    
C16   C18   A    
C9    C10   S    
C14   C24   A    
Cu1   Cu2   S    
C5    C7    D    
C4    C23   A    
C1    O3    A    
C6    C8    D    
C2    O4    A    
C21   C22   A    
Cu2   O6    S    
Cu1   N2    S    
C26   H6    S    
C9    H12   S    
Cu1   O5    S    
C25   H5    S    
C10   H11   S    
C19   C21   A    
