data_mof_unit_20793.cif
_audit_creation_date              2012-12-11T15:35:59-0500
_audit_creation_method            fapswitch 2.2
_symmetry_space_group_name_H-M    P1
_symmetry_Int_Tables_number       1
_space_group_crystal_system       triclinic
_cell_length_a                    7.067631
_cell_length_b                    11.855712
_cell_length_c                    35.768646
_cell_angle_alpha                 90.029886
_cell_angle_beta                  91.891735
_cell_angle_gamma                 90.018526
_cell_volume                      2995.48510152

loop_
_atom_site_label
_atom_site_type_symbol
_atom_type_description
_atom_site_fract_x
_atom_site_fract_y
_atom_site_fract_z
_atom_type_partial_charge
O1    O     O_R   0.379730 0.148600 0.662710 -0.544776
O2    O     O_R   0.620270 0.851400 0.337290 -0.536290
O3    O     O_R   0.120270 0.648600 0.337290 -0.536361
O4    O     O_R   0.879730 0.351400 0.662710 -0.544753
O5    O     O_R   0.722480 0.134490 0.741330 -0.525584
O6    O     O_R   0.277520 0.865510 0.258670 -0.533049
O7    O     O_R   0.777520 0.634490 0.258670 -0.534286
O8    O     O_R   0.222480 0.365510 0.741330 -0.525337
O9    O     O_R   0.892880 0.345890 0.741600 -0.530186
O10   O     O_R   0.107120 0.654110 0.258400 -0.536512
O11   O     O_R   0.607120 0.845890 0.258400 -0.536574
O12   O     O_R   0.392880 0.154110 0.741600 -0.529636
C1    C     C_R   0.554031 0.107843 0.753094 0.683368
C2    C     C_R   0.444941 0.884853 0.245027 0.698431
C3    C     C_R   0.944773 0.615160 0.244999 0.699237
C4    C     C_R   0.053914 0.392197 0.753108 0.684319
O13   O     O_R   0.709490 0.135560 0.662990 -0.535774
O14   O     O_R   0.290510 0.864440 0.337010 -0.540919
O15   O     O_R   0.790510 0.635560 0.337010 -0.540796
O16   O     O_R   0.209490 0.364440 0.662990 -0.535809
C5    C     C_R   0.538528 0.106807 0.651388 0.694851
C6    C     C_R   0.461258 0.892967 0.348679 0.702760
C7    C     C_R   0.961233 0.607082 0.348687 0.702725
C8    C     C_R   0.038568 0.393132 0.651376 0.694536
O17   O     O_3   0.552800 0.316610 0.702160 -0.363144
O18   O     O_3   0.447200 0.683390 0.297840 -0.366341
O19   O     O_3   0.947200 0.816610 0.297840 -0.365954
O20   O     O_3   0.052800 0.183390 0.702160 -0.362882
V1    V     V_3+5 0.827630 0.234380 0.702160 1.508495
V2    V     V_3+5 0.172370 0.765620 0.297840 1.477439
V3    V     V_3+5 0.672370 0.734380 0.297840 1.475838
V4    V     V_3+5 0.327630 0.265620 0.702160 1.508707
C9    C     C_R   0.117208 0.728631 0.894711 0.549630
C10   C     C_R   0.001173 0.372563 0.081245 0.607873
C11   C     C_R   0.508389 0.128457 0.081325 0.581022
C12   C     C_R   0.621154 0.771107 0.894564 0.559070
O21   O     O_2   0.157888 0.619186 0.900951 -0.554779
O22   O     O_2   0.026982 0.485050 0.079625 -0.526284
O23   O     O_2   0.539908 0.016793 0.079518 -0.569430
O24   O     O_2   0.669866 0.879650 0.900473 -0.539731
N1    N     N_R   0.054595 0.764374 0.859698 -0.555293
N2    N     N_R   0.964436 0.320383 0.114880 -0.547110
N3    N     N_R   0.468148 0.179177 0.115007 -0.535472
N4    N     N_R   0.556009 0.735801 0.859657 -0.558690
C13   C     C_R   0.011054 0.877436 0.855022 0.625363
C14   C     C_R   0.936513 0.205342 0.114588 0.575584
C15   C     C_R   0.432733 0.293275 0.114942 0.565371
C16   C     C_R   0.505837 0.623566 0.855151 0.614227
C17   C     C_R   0.096952 0.693013 0.792334 -0.056702
C18   C     C_R   0.032328 0.354780 0.185551 0.004813
C19   C     C_R   0.535303 0.144787 0.185639 0.006286
C20   C     C_R   0.597980 0.807184 0.792275 -0.055688
C21   C     C_R   0.110883 0.598240 0.768050 -0.046283
C22   C     C_R   0.041766 0.432066 0.215863 -0.108335
C23   C     C_R   0.542569 0.067982 0.216061 -0.106883
C24   C     C_R   0.611212 0.901857 0.767960 -0.048315
C25   C     C_R   0.958510 0.480732 0.813304 -0.152112
C26   C     C_R   0.860484 0.566871 0.178960 -0.196562
C27   C     C_R   0.365639 0.932035 0.178726 -0.188082
C28   C     C_R   0.463048 0.020039 0.813616 -0.148588
C29   C     C_R   0.951553 0.572532 0.837882 -0.053325
C30   C     C_R   0.863134 0.494787 0.148058 -0.081315
C31   C     C_R   0.370974 0.003672 0.147778 -0.073874
C32   C     C_R   0.457291 0.928427 0.838230 -0.058154
C33   C     C_R   0.029264 0.679452 0.829433 0.290936
C34   C     C_R   0.951287 0.387901 0.149641 0.350216
C35   C     C_R   0.456714 0.111057 0.149611 0.349082
C36   C     C_R   0.532208 0.821034 0.829502 0.291137
C37   C     C_R   0.094828 0.918519 0.920358 -0.080850
C38   C     C_R   0.017372 0.192237 0.049069 -0.116871
C39   C     C_R   0.511731 0.309272 0.049492 -0.104342
C40   C     C_R   0.584096 0.583028 0.920726 -0.090762
C41   C     C_R   0.136841 0.803629 0.925088 -0.072007
C42   C     C_R   0.016656 0.309946 0.047821 -0.062445
C43   C     C_R   0.520433 0.191701 0.048029 -0.081438
C44   C     C_R   0.634458 0.696867 0.925175 -0.054303
C45   C     C_R   0.201213 0.765060 0.960213 -0.119409
C46   C     C_R   0.035173 0.363614 0.013348 -0.176123
C47   C     C_R   0.546107 0.139043 0.013510 -0.113665
C48   C     C_R   0.695823 0.735762 0.960496 -0.161463
C49   C     C_R   0.040566 0.957512 0.884526 0.029064
C50   C     C_R   0.978362 0.138341 0.083117 -0.020166
C51   C     C_R   0.469578 0.361823 0.083604 -0.037990
C52   C     C_R   0.526663 0.543987 0.885012 0.021598
C53   C     C_R   0.044342 0.490968 0.778848 -0.027331
C54   C     C_R   0.951725 0.537265 0.212762 -0.059293
C55   C     C_R   0.452881 0.962635 0.212825 -0.062903
C56   C     C_R   0.545323 0.009227 0.778849 -0.028011
H1    H     H_    0.900246 0.400440 0.821695 0.102164
H2    H     H_    0.788602 0.647326 0.176252 0.114010
H3    H     H_    0.295639 0.851022 0.175804 0.112269
H4    H     H_    0.406830 0.100629 0.822216 0.100304
H5    H     H_    0.888527 0.558401 0.864524 0.127180
H6    H     H_    0.792433 0.523269 0.122650 0.146868
H7    H     H_    0.305520 0.974574 0.122017 0.144549
H8    H     H_    0.397751 0.943058 0.865156 0.126440
H9    H     H_    0.250677 0.679188 0.963913 0.170158
H10   H     H_    0.034294 0.454951 0.011878 0.168263
H11   H     H_    0.557958 0.047995 0.011978 0.178869
H12   H     H_    0.748734 0.820972 0.964203 0.175429
C57   C     C_R   0.075357 0.010570 0.019378 0.020438
C58   C     C_R   0.061593 0.109979 0.947495 0.048473
C59   C     C_R   0.541206 0.393540 0.948286 0.000373
C60   C     C_R   0.558163 0.492185 0.020002 0.036713
C61   C     C_R   0.057527 0.181670 0.980335 0.072674
C62   C     C_R   0.129379 0.946620 0.988071 0.002280
C63   C     C_R   0.610011 0.556735 0.988653 0.044175
C64   C     C_R   0.545984 0.321545 0.980842 0.023118
C65   C     C_R   0.051111 0.128352 0.016115 0.033244
C66   C     C_R   0.097494 0.992488 0.951940 0.038405
C67   C     C_R   0.581431 0.510321 0.952506 -0.009078
C68   C     C_R   0.539230 0.374203 0.016646 0.019763
C69   C     C_R   0.026799 0.957910 0.052965 -0.255916
C70   C     C_R   0.022768 0.148183 0.910512 -0.256499
C71   C     C_R   0.483283 0.356420 0.912211 -0.240361
C72   C     C_R   0.508977 0.543662 0.053771 -0.160613
C73   C     C_R   0.973402 0.019048 0.084132 0.263608
C74   C     C_R   0.008837 0.074523 0.879745 0.211860
C75   C     C_R   0.477706 0.428476 0.881011 0.249685
C76   C     C_R   0.456220 0.481036 0.084784 0.231560
O25   O     O_2   0.859972 0.155029 0.143864 -0.521329
O26   O     O_2   0.928085 0.912934 0.822997 -0.508660
O27   O     O_2   0.425722 0.588551 0.822809 -0.509584
O28   O     O_2   0.354005 0.340791 0.144430 -0.535095
C77   C     C_R   0.206235 0.836092 0.991178 0.166537
C78   C     C_R   0.051294 0.302646 0.979909 0.167763
C79   C     C_R   0.554490 0.200538 0.980188 0.180590
C80   C     C_R   0.686002 0.666833 0.991966 0.202813
H13   H     H_    0.020201 0.867641 0.055132 0.134888
H14   H     H_    0.984290 0.233524 0.904191 0.175328
H15   H     H_    0.425041 0.273625 0.907749 0.142587
H16   H     H_    0.498779 0.633886 0.055838 0.175128
C81   C     C_R   0.975992 0.528422 0.379829 -0.040638
C82   C     C_R   0.021996 0.472567 0.620457 -0.034332
C83   C     C_R   0.521869 0.027340 0.620457 -0.034389
C84   C     C_R   0.475974 0.971603 0.379851 -0.040537
C85   C     C_R   0.035702 0.341627 0.403983 -0.165916
C86   C     C_R   0.934504 0.655700 0.596280 -0.167929
C87   C     C_R   0.434138 0.844204 0.596216 -0.167947
C88   C     C_R   0.533475 0.158663 0.404068 -0.166113
C89   C     C_R   0.010028 0.414166 0.373676 -0.161934
C90   C     C_R   0.964117 0.583397 0.626524 -0.139434
C91   C     C_R   0.463583 0.916554 0.626481 -0.139275
C92   C     C_R   0.508172 0.086076 0.373735 -0.162311
C93   C     C_R   0.965191 0.570393 0.416102 -0.221028
C94   C     C_R   0.046352 0.432943 0.584240 -0.226231
C95   C     C_R   0.546529 0.066923 0.584261 -0.226406
C96   C     C_R   0.466282 0.929483 0.416106 -0.220927
C97   C     C_R   0.989285 0.498802 0.447419 0.082446
C98   C     C_R   0.007399 0.502498 0.552893 0.081862
C99   C     C_R   0.507361 0.997402 0.552894 0.081864
C100  C     C_R   0.489376 0.001176 0.447442 0.082553
C101  C     C_R   0.027480 0.383032 0.440678 0.123309
C102  C     C_R   0.954611 0.616172 0.559622 0.118614
C103  C     C_R   0.454557 0.883700 0.559576 0.118663
C104  C     C_R   0.526236 0.117130 0.440747 0.123224
C105  C     C_R   0.979070 0.538621 0.485001 0.051659
C106  C     C_R   0.015529 0.462372 0.515309 0.053738
C107  C     C_R   0.515280 0.037601 0.515335 0.053820
C108  C     C_R   0.479291 0.961294 0.484998 0.051662
C109  C     C_R   0.054045 0.348013 0.507040 -0.194753
C110  C     C_R   0.930608 0.651578 0.493265 -0.195485
C111  C     C_R   0.431019 0.848268 0.493207 -0.195584
C112  C     C_R   0.552805 0.152119 0.507121 -0.194851
C113  C     C_R   0.058516 0.309453 0.470500 -0.195513
C114  C     C_R   0.918188 0.689022 0.529806 -0.195088
C115  C     C_R   0.418367 0.810814 0.529730 -0.195054
C116  C     C_R   0.556732 0.190778 0.470598 -0.195588
H17   H     H_    0.087601 0.220958 0.465559 0.140619
H18   H     H_    0.877734 0.775879 0.534746 0.141449
H19   H     H_    0.377899 0.723934 0.534632 0.141429
H20   H     H_    0.584838 0.279413 0.465696 0.140549
H21   H     H_    0.091435 0.346596 0.581734 0.098097
H22   H     H_    0.942892 0.659878 0.418662 0.096232
H23   H     H_    0.445526 0.839845 0.418643 0.096160
H24   H     H_    0.592122 0.153199 0.581782 0.098221
H25   H     H_    0.940632 0.613546 0.654579 0.142059
H26   H     H_    0.018546 0.381561 0.345510 0.147904
H27   H     H_    0.515556 0.118824 0.345580 0.148419
H28   H     H_    0.439729 0.886458 0.654518 0.142319
H29   H     H_    0.063952 0.253231 0.398762 0.134806
H30   H     H_    0.891315 0.741887 0.601482 0.139830
H31   H     H_    0.390794 0.758022 0.601384 0.139774
H32   H     H_    0.560460 0.247223 0.398878 0.134886
H33   H     H_    0.078479 0.284635 0.528153 0.129956
H34   H     H_    0.896425 0.713526 0.472145 0.130506
H35   H     H_    0.396843 0.786334 0.472052 0.130518
H36   H     H_    0.576480 0.215574 0.528268 0.129911
C117  C     C_1   0.136901 0.401125 0.251029 0.311794
N5    N     N_1   0.213362 0.376402 0.278936 -0.358326
C118  C     C_1   0.193077 0.611730 0.731628 0.304526
N6    N     N_1   0.259763 0.622813 0.702741 -0.361852
C119  C     C_1   0.692128 0.888190 0.731425 0.304535
N7    N     N_1   0.757892 0.876954 0.702456 -0.362543
C120  C     C_1   0.635183 0.099521 0.251429 0.315110
N8    N     N_1   0.709712 0.124731 0.279492 -0.359850
C121  C     C_1   0.088637 0.240591 0.194410 0.406945
N9    N     N_1   0.126806 0.149151 0.202928 -0.334858
C122  C     C_1   0.142452 0.801779 0.776913 0.348953
N10   N     N_1   0.173649 0.888032 0.763320 -0.322137
C123  C     C_1   0.641960 0.698291 0.776747 0.350106
N11   N     N_1   0.671971 0.611987 0.763055 -0.323430
C124  C     C_1   0.589633 0.259277 0.194523 0.395758
N12   N     N_1   0.625467 0.350995 0.203131 -0.352036
N13   N     N_3   0.914951 0.958080 0.116557 -0.576325
H37   H     H_    0.797954 0.908459 0.108866 0.265638
H38   H     H_    0.021006 0.901274 0.124795 0.199874
N14   N     N_3   0.960541 0.120655 0.843610 -0.596996
H39   H     H_    0.061854 0.181332 0.837236 0.199195
H40   H     H_    0.829491 0.161092 0.845084 0.219835
N15   N     N_3   0.418781 0.382601 0.845406 -0.598042
H41   H     H_    0.510404 0.316567 0.839059 0.196833
H42   H     H_    0.282981 0.348935 0.847778 0.223015
N16   N     N_3   0.384147 0.539348 0.116736 -0.568321
H43   H     H_    0.485267 0.536430 0.138591 0.239645
H44   H     H_    0.359957 0.624633 0.110871 0.217389
N17   N     N_3   0.312068 0.798040 0.023696 -0.697187
H45   H     H_    0.353314 0.865057 0.041026 0.272185
H46   H     H_    0.230670 0.740631 0.038359 0.223442
N18   N     N_3   0.069538 0.367229 0.946451 -0.685232
H47   H     H_    0.171574 0.429691 0.951259 0.265306
H48   H     H_    0.941601 0.409201 0.941128 0.239352
N19   N     N_3   0.593544 0.135611 0.947561 -0.652892
H49   H     H_    0.466207 0.110968 0.934342 0.238778
H50   H     H_    0.677691 0.180821 0.929569 0.243451
N20   N     N_3   0.770241 0.705373 0.026558 -0.670764
H51   H     H_    0.717190 0.785624 0.032347 0.248888
H52   H     H_    0.915294 0.711801 0.022780 0.232437

loop_
_geom_bond_atom_site_label_1
_geom_bond_atom_site_label_2
_ccdc_geom_bond_type
C26   C30   A    
C23   C120  S    
C124  N12   T    
C100  C108  A    
O1    C5    A    
C105  C106  A    
C22   C117  S    
O13   V1    S    
C123  N11   T    
O3    C7    A    
N19   H49   S    
C10   N2    A    
C40   C44   A    
O15   V3    S    
C16   O27   S    
N18   H48   S    
C28   C56   A    
C87   H31   S    
C71   H15   S    
N13   H37   S    
C62   C77   A    
C11   C43   A    
C18   C22   A    
C43   C47   A    
C17   C33   A    
C61   C78   A    
C109  C113  A    
C32   C36   A    
C47   H11   S    
O20   V1    S    
O9    C4    A    
C17   C122  S    
C63   C80   A    
C73   N13   S    
O10   C3    A    
C52   C75   A    
C62   C66   A    
O4    C8    A    
O11   C2    A    
N16   H44   S    
C24   C56   A    
C90   H25   S    
C82   C90   A    
C104  C116  A    
C76   N16   S    
C94   H21   S    
C31   H7    S    
C57   C62   A    
C57   C69   A    
C75   N15   S    
C58   C61   A    
C59   C67   A    
C20   C123  S    
N2    C14   A    
C10   C42   A    
C97   C101  A    
C109  H33   S    
C12   C44   A    
C106  C109  A    
C14   C50   A    
C87   C91   A    
C100  C104  A    
C103  C115  A    
N14   H39   S    
C46   H10   S    
C14   O25   S    
C45   H9    S    
C59   C64   A    
O14   V2    S    
C15   C51   A    
C11   N3    A    
C72   C76   A    
O5    C1    A    
O4    V1    S    
C20   C36   A    
C12   N4    A    
C79   N19   S    
C74   N14   S    
C85   H29   S    
C101  C113  A    
C86   C102  A    
O17   V4    S    
C83   C91   A    
C40   C67   A    
O11   V3    S    
O18   V3    S    
O8    C4    A    
C60   C72   A    
O12   V4    S    
O19   V2    S    
O17   V1    S    
C70   H14   S    
C121  N9    T    
C86   H30   S    
C26   C54   A    
N18   H47   S    
C18   C121  S    
C78   N18   S    
C39   C51   A    
C28   H4    S    
C113  H17   S    
C82   C94   A    
C31   C35   A    
C19   C124  S    
C96   H23   S    
O7    V3    S    
N20   H51   S    
C30   C34   A    
O19   V3    S    
C89   H26   S    
O8    V4    S    
C108  C111  A    
C44   C48   A    
C12   O24   S    
N4    C16   A    
C32   H8    S    
C86   C90   A    
C60   C68   A    
C29   H5    S    
C22   C54   A    
C7    C81   S    
N16   H43   S    
C27   H3    S    
C120  N8    T    
C48   C80   A    
N17   H45   S    
C49   C74   A    
O1    V4    S    
O13   C5    A    
C64   C68   A    
C40   C52   A    
C6    C84   S    
O2    V3    S    
C5    C83   S    
C10   O22   S    
C51   C76   A    
O3    V2    S    
C11   O23   S    
N15   H41   S    
C38   C42   A    
C59   C71   A    
C58   C70   A    
C38   C65   A    
C29   C33   A    
O6    C2    A    
C18   C34   A    
C37   C66   A    
O10   V2    S    
C107  C108  A    
C72   H16   S    
C92   H27   S    
O20   V4    S    
C111  C115  A    
C39   C68   A    
C85   C101  A    
N3    C35   S    
C70   C74   A    
C91   H28   S    
C93   H22   S    
C37   C41   A    
C21   C118  S    
C84   C96   A    
C25   H1    S    
C26   H2    S    
C3    C54   S    
C69   C73   A    
C112  C116  A    
C9    C41   A    
O6    V2    S    
C88   C104  A    
O18   V2    S    
N20   H52   S    
C30   H6    S    
C98   C102  A    
C4    C53   S    
C27   C31   A    
N4    C36   S    
C81   C93   A    
C46   C78   A    
O5    V1    S    
C45   C77   A    
O15   C7    A    
C110  H34   S    
O16   V4    S    
C116  H20   S    
C8    C82   S    
C118  N6    T    
C94   C98   A    
C85   C89   A    
N1    C13   A    
C98   C106  A    
N15   H42   S    
C95   H24   S    
C63   C67   A    
C84   C92   A    
C13   C49   A    
C96   C100  A    
N3    C15   A    
C112  H36   S    
C2    C55   S    
N1    C33   S    
N19   H50   S    
C25   C29   A    
O9    V1    S    
C13   O26   S    
N17   H46   S    
C87   C103  A    
C71   C75   A    
C99   C103  A    
C115  H19   S    
C28   C32   A    
C111  H35   S    
C9    N1    A    
O14   C6    A    
C47   C79   A    
C88   H32   S    
N14   H40   S    
O2    C6    A    
C39   C43   A    
C15   O28   S    
C19   C35   A    
C61   C65   A    
C58   C66   A    
C17   C21   A    
C95   C99   A    
C1    C56   S    
O7    C3    A    
C114  H18   S    
C25   C53   A    
C9    O21   S    
C83   C95   A    
C19   C23   A    
C64   C79   A    
C23   C55   A    
C117  N5    T    
C38   C50   A    
C27   C55   A    
C37   C49   A    
C24   C119  S    
C16   C52   A    
C122  N10   T    
C110  C114  A    
C93   C97   A    
O12   C1    A    
C80   N20   S    
C119  N7    T    
C42   C46   A    
N2    C34   S    
C41   C45   A    
C107  C112  A    
C102  C114  A    
C21   C53   A    
C81   C89   A    
C50   C73   A    
C97   C105  A    
C88   C92   A    
C69   H13   S    
N13   H38   S    
C57   C65   A    
C105  C110  A    
O16   C8    A    
C60   C63   A    
C48   H12   S    
C20   C24   A    
C99   C107  A    
C77   N17   S    
