data_mof_unit_45737.cif
_audit_creation_date              2013-03-05T15:46:52-0500
_audit_creation_method            fapswitch 2.2
_symmetry_space_group_name_H-M    P1
_symmetry_Int_Tables_number       1
_space_group_crystal_system       triclinic
_cell_length_a                    15.111361
_cell_length_b                    15.107038
_cell_length_c                    15.066749
_cell_angle_alpha                 108.728244
_cell_angle_beta                  110.697336
_cell_angle_gamma                 109.960647
_cell_volume                      2614.92084125

loop_
_atom_site_label
_atom_site_type_symbol
_atom_site_description
_atom_site_fract_x
_atom_site_fract_y
_atom_site_fract_z
_atom_type_partial_charge
C1    C     C_R   0.238950 0.052750 0.963322 0.775741
C2    C     C_R   0.802976 0.005005 0.097228 0.685179
N1    N     N_R   0.293810 0.002730 0.945950 -0.134082
N2    N     N_R   0.706190 0.997270 0.054050 -0.127652
C3    C     C_R   0.771264 0.226029 0.316043 0.797941
C4    C     C_R   0.193111 0.794738 0.703361 0.726923
N3    N     N_R   0.706160 0.152130 0.208910 -0.133182
N4    N     N_R   0.293840 0.847870 0.791090 -0.119561
C5    C     C_R   0.409414 0.916526 0.212752 0.748873
C6    C     C_R   0.588494 0.027016 0.776226 0.758989
N5    N     N_R   0.443140 0.945920 0.152090 -0.128552
N6    N     N_R   0.556860 0.054080 0.847910 -0.126066
C7    C     C_R   0.590581 0.299106 0.997214 -0.049084
C8    C     C_R   0.407959 0.685430 0.941279 -0.062682
H1    H     H_    0.674727 0.354902 0.024748 0.154184
H2    H     H_    0.323380 0.619489 0.896089 0.155561
N7    N     N_R   0.556830 0.208940 0.002760 -0.063457
N8    N     N_R   0.443170 0.791060 0.997240 -0.061214
C9    C     C_R   0.592592 0.014750 0.309126 -0.110869
C10   C     C_R   0.405330 0.927845 0.688069 -0.229262
H3    H     H_    0.676695 0.044594 0.368170 0.221587
H4    H     H_    0.319547 0.870719 0.626101 0.210824
N9    N     N_R   0.556790 0.002750 0.208910 -0.098245
N10   N     N_R   0.443210 0.997250 0.791090 -0.086154
C11   C     C_R   0.407357 0.209369 0.909321 0.013079
C12   C     C_R   0.592235 0.781186 0.025805 -0.106708
H5    H     H_    0.322646 0.181424 0.854513 0.186081
H6    H     H_    0.677023 0.803739 0.055911 0.173473
N11   N     N_R   0.443180 0.152110 0.945950 -0.069566
N12   N     N_R   0.556820 0.847890 0.054050 -0.065122
C13   C     C_R   0.759716 0.315097 0.223222 -0.105890
C14   C     C_R   0.192173 0.703692 0.792710 -0.141917
H7    H     H_    0.766245 0.376849 0.200600 0.197781
H8    H     H_    0.165986 0.652757 0.825299 0.203868
N13   N     N_R   0.706170 0.208950 0.152090 -0.106258
N14   N     N_R   0.293830 0.791050 0.847910 -0.090939
C15   C     C_R   0.246170 0.965780 0.058990 -0.052173
C16   C     C_R   0.804194 0.093907 0.005159 -0.046730
H9    H     H_    0.234677 0.932158 0.109909 0.253360
H10   H     H_    0.833619 0.150230 0.978688 0.249522
N15   N     N_R   0.293800 0.945910 0.002760 -0.106363
N16   N     N_R   0.706200 0.054090 0.997240 -0.109622
C17   C     C_R   0.209224 0.031006 0.034228 -0.076827
C18   C     C_R   0.865211 0.063291 0.067072 -0.021907
C19   C     C_R   0.802638 0.329379 0.328233 0.000995
C20   C     C_R   0.124928 0.706102 0.703627 -0.052761
C21   C     C_R   0.500514 0.964916 0.314386 -0.096879
C22   C     C_R   0.494310 0.946139 0.674630 -0.052159
C23   C     C_R   0.498488 0.302016 0.941822 0.033015
C24   C     C_R   0.501515 0.678453 0.960140 0.139437
Ni1   Ni    Ni4+2 0.369690 0.999990 0.869700 0.291949
Ni2   Ni    Ni4+2 0.630310 0.000010 0.130300 0.283038
Ni3   Ni    Ni4+2 0.369670 0.869670 0.000000 0.293091
Ni4   Ni    Ni4+2 0.630330 0.130330 0.000000 0.261466
H11   H     H_    0.206447 0.013622 0.465313 0.206765
H12   H     H_    0.791870 0.906328 0.466502 0.200949
C25   C     C_R   0.365778 0.154760 0.592328 -0.075427
C26   C     C_R   0.635111 0.772089 0.326021 -0.098387
H13   H     H_    0.409635 0.128380 0.557470 0.166861
H14   H     H_    0.591298 0.773818 0.369112 0.157027
C27   C     C_R   0.424097 0.253489 0.689704 -0.137633
C28   C     C_R   0.578370 0.694029 0.215753 -0.104802
H15   H     H_    0.512772 0.302259 0.728938 0.174097
H16   H     H_    0.490856 0.637267 0.174888 0.170702
C29   C     C_R   0.369181 0.288863 0.737384 -0.019051
C30   C     C_R   0.634609 0.684307 0.159819 -0.050663
C31   C     C_R   0.252900 0.223034 0.685965 0.354382
C32   C     C_R   0.750722 0.756403 0.215980 0.380412
C33   C     C_R   0.195625 0.124335 0.586706 -0.139298
C34   C     C_R   0.805068 0.838313 0.326150 -0.046480
H17   H     H_    0.107233 0.072078 0.545547 0.185315
H18   H     H_    0.892875 0.895509 0.371376 0.178935
C35   C     C_R   0.251750 0.090408 0.540742 -0.075286
C36   C     C_R   0.747923 0.845182 0.380842 -0.096024
C37   C     C_R   0.443451 0.488459 0.848335 0.342970
C38   C     C_R   0.564967 0.492445 0.043215 0.356844
C39   C     C_R   0.508530 0.584240 0.951145 -0.112634
C40   C     C_R   0.500068 0.396702 0.941302 -0.106209
C41   C     C_R   0.571535 0.587244 0.048554 -0.065710
C42   C     C_R   0.437037 0.392387 0.843590 -0.068227
C43   C     C_R   0.921477 0.532609 0.432206 0.192208
C44   C     C_R   0.945439 0.539173 0.627972 0.167358
C45   C     C_R   0.963952 0.630008 0.525387 0.243736
C46   C     C_R   0.866423 0.440718 0.527261 0.257317
C47   C     C_R   0.005070 0.631975 0.625128 -0.136220
C48   C     C_R   0.866277 0.434592 0.430890 -0.187482
C49   C     C_R   0.574732 0.926292 0.556802 0.413916
C50   C     C_R   0.404080 0.937824 0.412917 0.400128
C51   C     C_R   0.581758 0.947876 0.475818 -0.322562
C52   C     C_R   0.396778 0.915584 0.492096 -0.319216
H19   H     H_    0.652577 0.959404 0.467995 0.173078
H20   H     H_    0.327788 0.911387 0.501013 0.182381
C53   C     C_R   0.496793 0.952484 0.403775 0.004152
C54   C     C_R   0.484989 0.918553 0.569396 -0.009560
C55   C     C_R   0.048256 0.961556 0.049577 0.841606
C56   C     C_R   0.047574 0.155621 0.088369 0.829465
C57   C     C_R   0.967159 0.972637 0.062155 -0.264346
C58   C     C_R   0.131721 0.145616 0.078121 -0.254843
H21   H     H_    0.901242 0.902538 0.050123 0.231257
H22   H     H_    0.195741 0.212184 0.083948 0.228733
C59   C     C_R   0.964537 0.067719 0.078200 -0.178587
C60   C     C_R   0.130350 0.047762 0.056625 -0.180486
F1    F     F_    0.202949 0.099263 0.906862 -0.667402
F2    F     F_    0.841901 0.984557 0.179772 -0.695181
N17   N     N_R   0.192215 0.253173 0.732963 0.267403
O1    O     O_R   0.240281 0.319743 0.837419 -0.348025
O2    O     O_R   0.086000 0.208297 0.672037 -0.279662
N18   N     N_R   0.814684 0.747195 0.164864 0.262450
O3    O     O_R   0.768013 0.679072 0.061117 -0.354596
O4    O     O_R   0.921600 0.809261 0.222255 -0.281554
N19   N     N_R   0.388261 0.490723 0.749949 0.237772
O5    O     O_R   0.442482 0.563939 0.732153 -0.335096
O6    O     O_R   0.282464 0.425873 0.682444 -0.344318
N20   N     N_R   0.617442 0.491651 0.143235 0.226296
O7    O     O_R   0.724281 0.540725 0.201542 -0.350219
O8    O     O_R   0.558178 0.439471 0.174278 -0.362959
N21   N     N_R   0.956338 0.535156 0.354871 0.256335
O9    O     O_R   0.987368 0.467716 0.319597 -0.330614
O10   O     O_R   0.983249 0.619027 0.341035 -0.246782
N22   N     N_R   0.957790 0.548575 0.730085 0.263243
O11   O     O_R   0.980336 0.484234 0.761465 -0.271425
O12   O     O_R   0.966542 0.633395 0.800312 -0.269301
N23   N     N_R   0.942697 0.714313 0.518072 0.302699
O13   O     O_R   0.885077 0.702594 0.423066 -0.293441
O14   O     O_R   0.959925 0.791161 0.604569 -0.274321
N24   N     N_R   0.782092 0.352946 0.520849 0.273577
O15   O     O_R   0.807120 0.310656 0.581792 -0.233541
O16   O     O_R   0.678906 0.312093 0.450169 -0.365281
N25   N     N_R   0.657821 0.912635 0.624949 0.266254
O17   O     O_R   0.633685 0.851906 0.667312 -0.342335
O18   O     O_R   0.755417 0.953368 0.637778 -0.311848
N26   N     N_R   0.322463 0.956520 0.350721 0.231307
O19   O     O_R   0.218331 0.890192 0.308810 -0.283754
O20   O     O_R   0.352379 0.045711 0.345932 -0.419828
F3    F     F_    0.039701 0.862711 0.020443 -0.606653
F4    F     F_    0.045690 0.248641 0.105417 -0.630714
F5    F     F_    0.812547 0.203465 0.395843 -0.660040
F6    F     F_    0.160451 0.840468 0.644241 -0.676445
F7    F     F_    0.309875 0.828741 0.170123 -0.652286
F8    F     F_    0.691230 0.084463 0.796444 -0.675251

loop_
_geom_bond_atom_site_label_1
_geom_bond_atom_site_label_2
_geom_bond_distance
_ccdc_geom_bond_type
C26   C28   1.389470 A    
C30   C32   1.426501 A    
C4    F6    1.353307 S    
N24   O15   1.300196 A    
N7    N11   1.378963 A    
C8    N8    1.334028 A    
C2    N2    1.318308 A    
N19   O5    1.301380 A    
C38   C41   1.375022 A    
C44   N22   1.435488 S    
N21   O10   1.300758 A    
N20   O7    1.299986 A    
N23   O13   1.299815 A    
C56   F4    1.357285 S    
C23   C40   1.425044 S    
C30   C41   1.485499 S    
N17   O2    1.301701 A    
C22   C54   1.444017 S    
N2    Ni2   1.889281 S    
C15   N15   1.319531 A    
C14   N14   1.342058 A    
C9    H3    1.077917 S    
C46   C48   1.424142 A    
N3    Ni2   1.868659 S    
C16   N16   1.337826 A    
C12   C24   1.367298 A    
C40   C42   1.408417 A    
C25   H13   1.079739 S    
C26   H14   1.079472 S    
C49   C54   1.405943 A    
C43   N21   1.444129 S    
N18   O3    1.300797 A    
C33   H17   1.082639 S    
N4    N14   1.393417 A    
C25   C35   1.393823 A    
N5    N9    1.378960 A    
C27   H15   1.083615 S    
C44   C46   1.413471 A    
C28   H16   1.083722 S    
N14   Ni3   1.855171 S    
N8    Ni3   1.883385 S    
C57   H21   1.084157 S    
C1    C17   1.383767 A    
C10   N10   1.324161 A    
C2    C18   1.363743 A    
N26   O19   1.301429 A    
C29   C31   1.423629 A    
C56   C58   1.385140 A    
C34   C36   1.394533 A    
C38   N20   1.439910 S    
C13   H7    1.077634 S    
C33   C35   1.394858 A    
N8    N12   1.378964 A    
C51   H19   1.079149 S    
C37   C42   1.397638 A    
C1    F1    1.353184 S    
C43   C48   1.419493 A    
N5    Ni3   1.855789 S    
C55   C60   1.400459 A    
C20   C47   1.477783 S    
C14   C20   1.388502 A    
N10   Ni1   1.889139 S    
C29   C42   1.481926 S    
N6    Ni4   1.855791 S    
C56   C59   1.399012 A    
N13   Ni4   1.855168 S    
C46   N24   1.438243 S    
C6    F8    1.353590 S    
C43   C45   1.392739 A    
N22   O12   1.301432 A    
C52   C54   1.401269 A    
C39   C41   1.415098 A    
C11   N11   1.327008 A    
H12   C36   1.081549 S    
C28   C30   1.402141 A    
C38   C40   1.397310 A    
C3    N3    1.337949 A    
N1    Ni1   1.889280 S    
C31   N17   1.444554 S    
C4    N4    1.330679 A    
C58   C60   1.399118 A    
C3    C19   1.394669 A    
C1    N1    1.334484 A    
C14   H8    1.077905 S    
C15   C17   1.373423 A    
C9    N9    1.336141 A    
C16   C18   1.376401 A    
C37   C39   1.404508 A    
C52   H20   1.080872 S    
C2    F2    1.357125 S    
C55   F3    1.358816 S    
C21   C53   1.435644 S    
N19   O6    1.300613 A    
C3    F5    1.352466 S    
C5    N5    1.314401 A    
N4    Ni1   1.868659 S    
N15   Ni3   1.883415 S    
C10   C22   1.378419 A    
C6    N6    1.333042 A    
C7    C23   1.370950 A    
N26   O20   1.301810 A    
C45   C47   1.394273 A    
C50   C52   1.368719 A    
C5    C21   1.370534 A    
C58   H22   1.083500 S    
C7    H1    1.081785 S    
C6    C22   1.390438 A    
C8    H2    1.081450 S    
C50   N26   1.438703 S    
C24   C39   1.429911 S    
N22   O11   1.300670 A    
C26   C36   1.393375 A    
N25   O17   1.301630 A    
N11   Ni1   1.869397 S    
C31   C33   1.407447 A    
N12   Ni2   1.869397 S    
C50   C53   1.405353 A    
N1    N15   1.393296 A    
N24   O16   1.301339 A    
C4    C20   1.385286 A    
C12   H6    1.074883 S    
C10   H4    1.077101 S    
N20   O8    1.301152 A    
C18   C59   1.425416 S    
C55   C57   1.359999 A    
C25   C27   1.391821 A    
C11   H5    1.076442 S    
C44   C47   1.408065 A    
N17   O1    1.301047 A    
N6    N10   1.378960 A    
C37   N19   1.439533 S    
C7    N7    1.323416 A    
C49   N25   1.440447 S    
C49   C51   1.389180 A    
C19   C48   1.473014 S    
C17   C60   1.426183 S    
C15   H9    1.077455 S    
N21   O9    1.301898 A    
N16   Ni4   1.883414 S    
C16   H10   1.079691 S    
C5    F7    1.357192 S    
N9    Ni2   1.889137 S    
C8    C24   1.388360 A    
N2    N16   1.393296 A    
N3    N13   1.393417 A    
N18   O4    1.301825 A    
C13   N13   1.331275 A    
C51   C53   1.398575 A    
C11   C23   1.364708 A    
N23   O14   1.302395 A    
H11   C35   1.080340 S    
C27   C29   1.402840 A    
C32   C34   1.408731 A    
C13   C19   1.389373 A    
C9    C21   1.382095 A    
C34   H18   1.082392 S    
C32   N18   1.447717 S    
C45   N23   1.442829 S    
N7    Ni4   1.883386 S    
C57   C59   1.394967 A    
N25   O18   1.301375 A    
C12   N12   1.317858 A    
