data_mof_unit_63336.cif
_audit_creation_date              2012-12-10T17:20:38-0500
_audit_creation_method            fapswitch 2.2
_symmetry_space_group_name_H-M    P1
_symmetry_Int_Tables_number       1
_space_group_crystal_system       triclinic
_cell_length_a                    10.24241
_cell_length_b                    10.454805
_cell_length_c                    13.641459
_cell_angle_alpha                 91.358951
_cell_angle_beta                  74.897124
_cell_angle_gamma                 93.840804
_cell_volume                      1407.10759023

loop_
_atom_site_label
_atom_site_type_symbol
_atom_type_description
_atom_site_fract_x
_atom_site_fract_y
_atom_site_fract_z
_atom_type_partial_charge
Br1   Br    Br    0.611646 0.154170 0.293532 -0.520044
Br2   Br    Br    0.408398 0.834709 0.329743 -0.474671
C1    C     C_R   0.555256 0.734709 0.488528 0.939708
C2    C     C_2   0.073258 0.486298 0.494511 -0.005621
C3    C     C_1   0.448093 0.508355 0.882709 0.017808
C4    C     C_1   0.552085 0.492493 0.117317 0.051352
C5    C     C_2   0.582515 0.871455 0.467681 -0.075018
C6    C     C_2   0.421734 0.127327 0.491810 -0.064103
C7    C     C_2   0.510172 0.927989 0.412125 0.269530
C8    C     C_2   0.503274 0.066639 0.412654 0.249114
C9    C     C_3   0.101914 0.654550 0.609624 -0.608540
C10   C     C_3   0.902314 0.355349 0.382435 -0.583075
C11   C     C_3   0.316078 0.055797 0.573719 -0.936254
C12   C     C_R   0.445772 0.265070 0.502696 0.947421
C13   C     C_3   0.681311 0.947239 0.515128 -0.924528
C14   C     C_R   0.476858 0.503500 0.688253 0.884008
C15   C     C_R   0.523168 0.496628 0.311746 0.939706
C16   C     C_1   0.540231 0.494189 0.206272 -0.101886
C17   C     C_1   0.459873 0.506324 0.793746 -0.171942
C18   C     C_2   0.556867 0.491848 0.013005 -0.148608
C19   C     C_2   0.443383 0.509308 0.987027 -0.141204
C20   C     C_2   0.924559 0.508038 0.510359 -0.026038
H1    H     H_    0.348370 0.523962 0.043134 0.169329
H2    H     H_    0.936612 0.272467 0.416495 0.185926
H3    H     H_    0.260081 0.123059 0.631316 0.249811
H4    H     H_    0.242101 0.000947 0.539566 0.275990
H5    H     H_    0.364522 0.988570 0.613072 0.249281
H6    H     H_    0.730547 0.883585 0.556853 0.245831
H7    H     H_    0.761480 0.997353 0.455011 0.278003
H8    H     H_    0.628115 0.019034 0.569725 0.252214
H9    H     H_    0.651874 0.477155 0.956907 0.161706
H10   H     H_    0.118371 0.411876 0.442513 0.143001
H11   H     H_    0.877627 0.577333 0.566639 0.140854
H12   H     H_    0.185509 0.698896 0.639211 0.237433
H13   H     H_    0.064180 0.730089 0.569985 0.194878
H14   H     H_    0.021020 0.616600 0.675419 0.177618
H15   H     H_    0.822240 0.319211 0.346184 0.269805
H16   H     H_    0.986520 0.400689 0.322364 0.188289
N1    N     N_2   0.847200 0.448220 0.460120 -0.059533
N2    N     N_2   0.152800 0.551780 0.539880 -0.046201
O1    O     O_R   0.430150 0.692610 0.508030 -0.589039
O2    O     O_R   0.569850 0.307390 0.491970 -0.590564
O3    O     O_R   0.653100 0.659360 0.482430 -0.602402
O4    O     O_R   0.346900 0.340640 0.517570 -0.608051
O5    O     O_R   0.372470 0.518990 0.654990 -0.604005
O6    O     O_R   0.627530 0.481010 0.345010 -0.591827
O7    O     O_R   0.595430 0.485740 0.629390 -0.611500
O8    O     O_R   0.404570 0.514260 0.370610 -0.588228
Zn1   Zn    Zn3+2 0.351130 0.522200 0.517090 0.980065
Zn2   Zn    Zn3+2 0.648870 0.477800 0.482910 0.974200

loop_
_geom_bond_atom_site_label_1
_geom_bond_atom_site_label_2
_ccdc_geom_bond_type
C14   O5    A    
O4    Zn1   S    
O3    Zn2   S    
C6    C11   S    
C3    C17   T    
C4    C18   S    
C7    C8    S    
C10   H2    S    
C12   O4    A    
C11   H5    S    
C15   O8    A    
O5    Zn1   S    
C12   O2    A    
C11   H3    S    
C10   N1    S    
C5    C13   S    
C15   C16   S    
C15   O6    A    
C1    O3    A    
C13   H6    S    
C2    H10   S    
O2    Zn2   S    
C14   C17   S    
C20   N1    D    
C14   O7    A    
O1    Zn1   S    
O8    Zn1   S    
O6    Zn2   S    
C13   H7    S    
O7    Zn2   S    
C1    C5    S    
C19   H1    S    
C10   H16   S    
C9    N2    S    
C4    C16   T    
C11   H4    S    
N2    Zn1   S    
N1    Zn2   S    
C3    C19   S    
C18   C19   D    
C13   H8    S    
C6    C8    D    
C10   H15   S    
C5    C7    D    
C20   H11   S    
C2    C20   S    
C9    H14   S    
C6    C12   S    
Br2   C7    S    
C9    H13   S    
C9    H12   S    
C1    O1    A    
Br1   C8    S    
C2    N2    D    
C18   H9    S    
