data_mof_unit_19900.cif
_audit_creation_date              2013-03-05T15:43:51-0500
_audit_creation_method            fapswitch 2.2
_symmetry_space_group_name_H-M    P1
_symmetry_Int_Tables_number       1
_space_group_crystal_system       triclinic
_cell_length_a                    13.531787
_cell_length_b                    13.408941
_cell_length_c                    27.438537
_cell_angle_alpha                 91.116424
_cell_angle_beta                  90.207069
_cell_angle_gamma                 59.725456
_cell_volume                      4298.72246791

loop_
_atom_site_label
_atom_site_type_symbol
_atom_site_description
_atom_site_fract_x
_atom_site_fract_y
_atom_site_fract_z
_atom_type_partial_charge
O1    O     O_R   0.301710 0.195650 0.554160 -0.489465
O2    O     O_R   0.522390 0.158990 0.550460 -0.512560
C1    C     C_R   0.620788 0.102959 0.569680 0.545058
O3    O     O_R   0.694390 0.003530 0.554040 -0.494432
O4    O     O_R   0.657700 0.819660 0.549320 -0.494944
C2    C     C_R   0.599727 0.779246 0.568579 0.543158
O5    O     O_R   0.501930 0.803280 0.552920 -0.505293
O6    O     O_R   0.318170 0.023580 0.549580 -0.477204
C3    C     C_R   0.327844 0.100308 0.575303 0.557587
O7    O     O_R   0.303010 0.193990 0.446760 -0.496695
O8    O     O_R   0.523600 0.157450 0.450900 -0.521740
C4    C     C_R   0.622583 0.099886 0.431364 0.544091
O9    O     O_R   0.695690 0.001860 0.446640 -0.513331
O10   O     O_R   0.658900 0.818120 0.449760 -0.508863
C5    C     C_R   0.602811 0.773385 0.430756 0.547184
O11   O     O_R   0.503220 0.801620 0.445520 -0.482927
O12   O     O_R   0.319370 0.022040 0.450020 -0.482440
C6    C     C_R   0.334723 0.094965 0.425419 0.563855
Cr1   Cr    Cr6+3 0.417550 0.169090 0.500530 1.023550
Cr2   Cr    Cr6+3 0.669180 0.913420 0.499920 1.024761
Cr3   Cr    Cr6+3 0.413260 0.917540 0.499520 1.066408
O13   O     O_3   0.499990 0.000010 0.499990 -0.298225
C7    C     C_3   0.705930 0.560954 0.733698 -0.077799
C8    C     C_3   0.780512 0.588239 0.768206 -0.113240
H1    H     H_    0.870708 0.527002 0.778069 0.108389
H2    H     H_    0.734965 0.479078 0.712860 0.163027
H3    H     H_    0.792076 0.738859 0.730253 0.095113
C9    C     C_1   0.697730 0.604498 0.899457 -0.005993
C10   C     C_1   0.631533 0.730136 0.615832 -0.002662
C11   C     C_3   0.605272 0.619290 0.770720 -0.073575
C12   C     C_3   0.679545 0.647363 0.804378 0.041144
C13   C     C_3   0.561609 0.736820 0.745922 -0.101104
C14   C     C_3   0.662514 0.678008 0.709783 0.052862
C15   C     C_3   0.636062 0.764417 0.780270 -0.112745
C16   C     C_3   0.736833 0.705740 0.743317 -0.108024
C17   C     C_1   0.688766 0.628074 0.856940 -0.050422
C18   C     C_1   0.649292 0.701175 0.657645 -0.041350
H4    H     H_    0.606381 0.847851 0.800028 0.105117
H5    H     H_    0.471405 0.797960 0.736023 0.109532
H6    H     H_    0.551176 0.583661 0.782711 0.154106
C19   C     C_3   0.129813 0.231344 0.742276 -0.101396
C20   C     C_3   0.107390 0.146502 0.771025 -0.077499
H7    H     H_    0.022775 0.153731 0.776495 0.141287
H8    H     H_    0.064168 0.307516 0.722385 0.123661
H9    H     H_    0.218485 0.963893 0.731270 0.145230
C21   C     C_1   0.108056 0.193469 0.904194 -0.006580
C22   C     C_1   0.292267 0.111417 0.625177 -0.009739
C23   C     C_3   0.204891 0.234191 0.784295 -0.079086
C24   C     C_3   0.183012 0.149091 0.812367 0.035443
C25   C     C_3   0.312083 0.130429 0.760615 -0.082240
C26   C     C_3   0.236389 0.127900 0.719272 0.039679
C27   C     C_3   0.289634 0.045422 0.789506 -0.114910
C28   C     C_3   0.214493 0.042586 0.747235 -0.087026
C29   C     C_1   0.146612 0.168447 0.863454 -0.046257
C30   C     C_1   0.266034 0.118734 0.667526 -0.051549
H10   H     H_    0.355047 0.969298 0.809486 0.113732
H11   H     H_    0.396658 0.123564 0.755652 0.133900
H12   H     H_    0.200334 0.313140 0.800257 0.157885
C31   C     C_3   0.626376 0.309884 0.732486 0.268855
C32   C     C_3   0.586980 0.264739 0.775191 0.049107
H13   H     H_    0.592413 0.094977 0.744066 0.100804
C33   C     C_1   0.735864 0.238820 0.894884 0.034578
C34   C     C_1   0.642135 0.143025 0.615054 0.001374
C35   C     C_3   0.743131 0.270097 0.757754 -0.141746
C36   C     C_3   0.703454 0.223162 0.799895 -0.007612
C37   C     C_3   0.792465 0.151499 0.730981 0.061086
C38   C     C_3   0.676534 0.192371 0.705836 -0.017865
C39   C     C_3   0.752891 0.106131 0.773163 0.262873
C40   C     C_3   0.636219 0.145710 0.748463 -0.189591
C41   C     C_1   0.721215 0.232661 0.851956 0.040343
C42   C     C_1   0.658901 0.169085 0.655170 -0.011620
H14   H     H_    0.787592 0.319940 0.762865 0.105437
C43   C     C_R   0.732628 0.706056 0.359283 -0.153636
C44   C     C_R   0.742576 0.691346 0.308822 0.009406
C45   C     C_R   0.754455 0.676007 0.206661 0.016166
C46   C     C_R   0.842635 0.676514 0.233362 -0.136629
C47   C     C_R   0.836193 0.685127 0.284164 -0.126924
C48   C     C_R   0.764553 0.656064 0.156204 -0.142244
H15   H     H_    0.841961 0.638890 0.137417 0.103790
H16   H     H_    0.793348 0.721315 0.379151 0.131255
H17   H     H_    0.916942 0.669028 0.215044 0.087940
H18   H     H_    0.905064 0.685527 0.304257 0.102761
C49   C     C_R   0.679676 0.645683 0.131090 -0.004406
C50   C     C_R   0.564043 0.684184 0.358013 0.054302
C51   C     C_R   0.564187 0.685301 0.306823 -0.010901
C52   C     C_R   0.654400 0.688687 0.282379 0.043918
C53   C     C_R   0.476221 0.684902 0.279329 -0.129161
C54   C     C_R   0.476396 0.690190 0.228956 -0.142944
C55   C     C_R   0.568252 0.687565 0.204838 0.016679
C56   C     C_R   0.658382 0.685669 0.231308 0.071062
C57   C     C_R   0.576451 0.675069 0.154636 -0.125326
C58   C     C_R   0.639309 0.710939 0.383608 -0.012407
H19   H     H_    0.508192 0.672207 0.134971 0.132490
H20   H     H_    0.407370 0.690266 0.208737 0.099551
H21   H     H_    0.405561 0.682140 0.295970 0.150566
C59   C     C_R   0.278375 0.026390 0.350307 -0.122153
C60   C     C_R   0.251166 0.037362 0.300699 0.018190
C61   C     C_R   0.174047 0.079132 0.203874 0.000430
C62   C     C_R   0.168684 0.993670 0.230562 -0.120832
C63   C     C_R   0.207006 0.972916 0.278678 -0.121044
C64   C     C_R   0.124673 0.109045 0.157734 -0.183879
H22   H     H_    0.082954 0.064557 0.142578 0.137157
H23   H     H_    0.266613 0.966023 0.371709 0.168926
H24   H     H_    0.131182 0.945717 0.214810 0.106519
H25   H     H_    0.198582 0.909260 0.299148 0.126734
C65   C     C_R   0.120486 0.201848 0.132882 -0.001728
C66   C     C_R   0.334091 0.171973 0.344378 -0.131275
C67   C     C_R   0.308873 0.182595 0.294790 0.015613
C68   C     C_R   0.263462 0.118236 0.273142 0.067566
C69   C     C_R   0.324270 0.259850 0.266934 -0.146065
C70   C     C_R   0.288080 0.279265 0.218762 -0.119720
C71   C     C_R   0.231369 0.225017 0.198214 0.021690
C72   C     C_R   0.224710 0.139360 0.224701 0.020488
C73   C     C_R   0.175473 0.259542 0.153066 0.264754
C74   C     C_R   0.314514 0.097824 0.372724 -0.013440
H26   H     H_    0.300490 0.340598 0.198480 0.153878
H27   H     H_    0.360191 0.308593 0.282979 0.123774
H28   H     H_    0.366279 0.223683 0.361286 0.126271
C75   C     C_R   0.576661 0.242593 0.365181 -0.134408
C76   C     C_R   0.584403 0.262029 0.315687 0.011017
C77   C     C_R   0.592136 0.294307 0.215030 0.011135
C78   C     C_R   0.521696 0.388223 0.246022 -0.139057
C79   C     C_R   0.517730 0.372214 0.296071 -0.138047
C80   C     C_R   0.601993 0.309873 0.165392 -0.131135
H29   H     H_    0.557080 0.396185 0.150812 0.128738
H30   H     H_    0.515520 0.312201 0.388743 0.127021
H31   H     H_    0.469713 0.473832 0.231541 0.109309
H32   H     H_    0.461668 0.445501 0.319282 0.129065
C81   C     C_R   0.678614 0.215543 0.135793 -0.001485
C82   C     C_R   0.724634 0.041356 0.353306 -0.122706
C83   C     C_R   0.729228 0.057925 0.304008 0.011052
C84   C     C_R   0.657570 0.167969 0.284764 0.063364
C85   C     C_R   0.801762 0.964601 0.273505 -0.124878
C86   C     C_R   0.801168 0.978968 0.223559 -0.126814
C87   C     C_R   0.730864 0.087967 0.203947 0.013602
C88   C     C_R   0.659437 0.183417 0.234526 0.064125
C89   C     C_R   0.736777 0.104210 0.154598 -0.127597
C90   C     C_R   0.644587 0.131262 0.383610 -0.000712
H33   H     H_    0.794865 0.031272 0.131582 0.128402
H34   H     H_    0.857645 0.905616 0.200443 0.103138
H35   H     H_    0.858602 0.880548 0.288325 0.106454
H36   H     H_    0.777715 0.955026 0.367147 0.134296
O14   O     O_R   0.818720 0.150820 0.967160 -0.494265
O15   O     O_R   0.006410 0.181720 0.970200 -0.511864
C91   C     C_R   0.050843 0.234735 0.950199 0.541836
O16   O     O_R   0.027890 0.334070 0.964920 -0.499401
O17   O     O_R   0.809600 0.521790 0.967960 -0.498524
C92   C     C_R   0.711705 0.562182 0.947999 0.535033
O18   O     O_R   0.635520 0.542770 0.964420 -0.507136
O19   O     O_R   0.665950 0.325030 0.970100 -0.474654
C93   C     C_R   0.754533 0.247642 0.945680 0.557372
O20   O     O_R   0.816620 0.158530 0.074540 -0.517447
O21   O     O_R   0.004460 0.188870 0.069750 -0.512130
C94   C     C_R   0.049051 0.244789 0.088656 0.565868
O22   O     O_R   0.025800 0.341780 0.072300 -0.464569
O23   O     O_R   0.807650 0.528950 0.067500 -0.503992
C95   C     C_R   0.706445 0.577569 0.085765 0.543641
O24   O     O_R   0.633420 0.550490 0.071810 -0.521390
O25   O     O_R   0.664000 0.332180 0.069640 -0.493034
C96   C     C_R   0.718248 0.234390 0.089394 0.560209
Cr4   Cr    Cr6+3 0.909170 0.177380 0.020380 1.025271
Cr5   Cr    Cr6+3 0.912710 0.429210 0.018220 1.034105
Cr6   Cr    Cr6+3 0.657170 0.432570 0.019030 1.038116
O26   O     O_3   0.826350 0.346390 0.019210 -0.276412
C97   C     C_2   0.472711 0.324859 0.800445 0.563400
O27   O     O_2   0.388261 0.336501 0.779098 -0.576699
O28   O     O_R   0.463346 0.366112 0.848333 -0.689903
H37   H     H_    0.382042 0.404420 0.861355 0.341785
O29   O     O_3   0.568839 0.418089 0.709739 -0.579463
C98   C     C_3   0.458359 0.444647 0.695309 -0.085272
H38   H     H_    0.396724 0.490390 0.725565 0.164352
H39   H     H_    0.453307 0.367945 0.682659 0.136511
H40   H     H_    0.431951 0.504783 0.664420 0.143768
O30   O     O_3   0.824049 0.002600 0.797691 -0.527345
C99   C     C_3   0.821431 0.910483 0.773668 -0.080925
H41   H     H_    0.839379 0.907186 0.733916 0.140151
H42   H     H_    0.737613 0.916500 0.779895 0.099003
H43   H     H_    0.888484 0.828324 0.789366 0.153319
C100  C     C_2   0.906492 0.091606 0.705683 0.562552
O31   O     O_2   0.979884 0.994981 0.717814 -0.517506
O32   O     O_R   0.928591 0.147840 0.668635 -0.695105
H44   H     H_    0.008954 0.100009 0.654809 0.341294
C101  C     C_2   0.488116 0.653811 0.385118 0.583728
O33   O     O_2   0.384047 0.713238 0.382014 -0.555122
O34   O     O_R   0.536971 0.559901 0.416286 -0.687478
H45   H     H_    0.477485 0.547894 0.433290 0.334730
O35   O     O_3   0.172580 0.351014 0.129083 -0.547697
C102  C     C_3   0.083615 0.455864 0.149352 -0.098388
H46   H     H_    0.109516 0.477819 0.184513 0.092638
H47   H     H_    0.003001 0.454058 0.154845 0.126880
H48   H     H_    0.064770 0.526371 0.123842 0.138648

loop_
_geom_bond_atom_site_label_1
_geom_bond_atom_site_label_2
_geom_bond_distance
_ccdc_geom_bond_type
C37   C39   1.535204 S    
C53   C54   1.385449 A    
O20   C96   1.263045 A    
C97   O27   1.221569 D    
O15   Cr4   1.929761 S    
C19   C20   1.547043 S    
Cr6   O26   1.977133 S    
O17   C92   1.277106 A    
C45   C46   1.400818 A    
C49   C95   1.462016 S    
C71   C73   1.408372 A    
C91   O16   1.263562 A    
C79   H32   1.083630 S    
C87   C88   1.411751 A    
C99   H42   1.109377 S    
O4    Cr2   1.925324 S    
C4    C90   1.460539 S    
O32   H44   1.013945 S    
O19   Cr6   1.910220 S    
O16   Cr5   2.033342 S    
O8    Cr1   1.928251 S    
C63   H25   1.083637 S    
C64   H22   1.084293 S    
C65   C73   1.421120 A    
C102  H48   1.109138 S    
C47   H18   1.083392 S    
O23   C95   1.282056 A    
C101  O34   1.397341 S    
C20   C28   1.550263 S    
C86   H34   1.083993 S    
C11   C12   1.538157 S    
O14   Cr4   2.040496 S    
C7    H2    1.108525 S    
C21   C91   1.430680 S    
C98   H38   1.109222 S    
C24   C29   1.461778 S    
C67   C68   1.409698 A    
C33   C41   1.201906 T    
C102  H47   1.114120 S    
C15   C16   1.550370 S    
O29   C98   1.408188 S    
C13   H5    1.110446 S    
C78   H31   1.082598 S    
C69   C70   1.390987 A    
C77   C80   1.398861 A    
C45   C56   1.413290 A    
C31   C38   1.535785 S    
C5    C58   1.471080 S    
O30   C99   1.404862 S    
C48   C49   1.401819 A    
C19   C23   1.546546 S    
C95   O24   1.268290 A    
O25   C96   1.267414 A    
O6    C3    1.296396 A    
C65   C94   1.481911 S    
C44   C47   1.402487 A    
C53   H21   1.078701 S    
C25   C27   1.551141 S    
C66   C67   1.393985 A    
C59   C74   1.407890 A    
C70   H26   1.082590 S    
O18   Cr6   2.039903 S    
C55   C57   1.382439 A    
C66   H28   1.084549 S    
C26   C30   1.462714 S    
O20   Cr4   2.046456 S    
O9    Cr2   2.042678 S    
C76   C79   1.403577 A    
C68   C72   1.407743 A    
C36   C39   1.532419 S    
C23   C25   1.548752 S    
C62   H24   1.083679 S    
H9    C28   1.110377 S    
C31   C32   1.543108 S    
C97   O28   1.396689 S    
C15   H4    1.109833 S    
Cr3   O13   1.976945 S    
C75   C90   1.404148 A    
C69   H27   1.079283 S    
C71   C72   1.411677 A    
C25   C26   1.536980 S    
C99   H43   1.109173 S    
Cr5   O26   1.977266 S    
C46   C47   1.395868 A    
C51   C53   1.409184 A    
C43   C44   1.392125 A    
C54   H20   1.084218 S    
C9    C92   1.432210 S    
C8    C16   1.548601 S    
O1    Cr1   2.045170 S    
C33   C93   1.428834 S    
C7    C11   1.550424 S    
O10   Cr2   1.912033 S    
Cr1   O13   1.957930 S    
O1    C3    1.291337 A    
C50   C51   1.404972 A    
C52   C56   1.401556 A    
C55   C56   1.406658 A    
O28   H37   1.013800 S    
C39   O30   1.411120 S    
C48   H15   1.082588 S    
C39   C40   1.547573 S    
C61   C72   1.409334 A    
C20   C24   1.536565 S    
C7    C14   1.531950 S    
O5    Cr3   2.038406 S    
C14   C18   1.461003 S    
C73   O35   1.386303 S    
C26   C28   1.537131 S    
O21   Cr4   1.923801 S    
C102  H46   1.109410 S    
C38   C40   1.560247 S    
C1    O3    1.263156 A    
C13   C15   1.547794 S    
C46   H17   1.083356 S    
C101  O33   1.222988 D    
C57   H19   1.084948 S    
C60   C68   1.410739 A    
C82   C83   1.381725 A    
C99   H41   1.113503 S    
O10   C5    1.285213 A    
C51   C52   1.416008 A    
O7    Cr1   2.042392 S    
C84   C88   1.400115 A    
C24   C27   1.535505 S    
C59   C60   1.399824 A    
C21   C29   1.203109 T    
O12   C6    1.298683 A    
C31   C35   1.555002 S    
C12   C15   1.534208 S    
C11   H6    1.110330 S    
C8    H1    1.110357 S    
C89   H33   1.085156 S    
C66   C74   1.400312 A    
C94   O22   1.265296 A    
C2    O5    1.269263 A    
O24   Cr6   2.025456 S    
C23   C24   1.536113 S    
C34   C42   1.203469 T    
C32   C36   1.541240 S    
C3    C22   1.432208 S    
O22   Cr5   2.039749 S    
C85   C86   1.387070 A    
C19   H8    1.110665 S    
O25   Cr6   1.922354 S    
C20   H7    1.109812 S    
C83   C84   1.407247 A    
C82   C90   1.403146 A    
C60   C63   1.402375 A    
C27   C28   1.552208 S    
Cr4   O26   1.958216 S    
C22   C30   1.203866 T    
H13   C40   1.109776 S    
C64   C65   1.406564 A    
C87   C89   1.384615 A    
C70   C71   1.407004 A    
O2    Cr1   1.925448 S    
C76   C84   1.412865 A    
C25   H11   1.109604 S    
C50   C101  1.487912 S    
C43   C58   1.401928 A    
Cr2   O13   1.977207 S    
O15   C91   1.271454 A    
C83   C85   1.398757 A    
O17   Cr5   1.922501 S    
O6    Cr3   1.912084 S    
C6    C74   1.468160 S    
C75   C76   1.401974 A    
C77   C78   1.404071 A    
O11   Cr3   2.027006 S    
C23   H12   1.110217 S    
C86   C87   1.398480 A    
C1    C34   1.431758 S    
C44   C52   1.409600 A    
C61   C64   1.397660 A    
C49   C57   1.401939 A    
C37   C100  1.498071 S    
C85   H35   1.081085 S    
C32   C97   1.500036 S    
O19   C93   1.298897 A    
C62   C63   1.397591 A    
H3    C16   1.107878 S    
C35   C36   1.547539 S    
O2    C1    1.271679 A    
C78   C79   1.399439 A    
C8    C12   1.538580 S    
O35   C102  1.415271 S    
C13   C14   1.537256 S    
C11   C13   1.547816 S    
O34   H45   1.013846 S    
O4    C2    1.277153 A    
C98   H39   1.113434 S    
C32   C40   1.553961 S    
O7    C6    1.298898 A    
C5    O11   1.267723 A    
O14   C93   1.294772 A    
C14   C16   1.534063 S    
C43   H16   1.084486 S    
C67   C69   1.396548 A    
C80   C81   1.406487 A    
C37   C38   1.541871 S    
C38   C42   1.463855 S    
C92   O18   1.269671 A    
C35   H14   1.108811 S    
C77   C88   1.410178 A    
C82   H36   1.084889 S    
C45   C48   1.398935 A    
O12   Cr3   1.920684 S    
C7    C8    1.549475 S    
O23   Cr5   1.914275 S    
C100  O31   1.221798 D    
O3    Cr2   2.030635 S    
C75   H30   1.084151 S    
C27   H10   1.110521 S    
C2    C10   1.429470 S    
C81   C89   1.398818 A    
C54   C55   1.394657 A    
C9    C17   1.204284 T    
C61   C62   1.404157 A    
C59   H23   1.083744 S    
C10   C18   1.202535 T    
C12   C17   1.463958 S    
C50   C58   1.418673 A    
C4    O9    1.260727 A    
O21   C94   1.278352 A    
C31   O29   1.411963 S    
C19   C26   1.535477 S    
C81   C96   1.458249 S    
C36   C41   1.461446 S    
O8    C4    1.274279 A    
C35   C37   1.549805 S    
C80   H29   1.084411 S    
C100  O32   1.396706 S    
C98   H40   1.109121 S    
