data_mof_unit_68146.cif
_audit_creation_date              2013-03-05T15:59:43-0500
_audit_creation_method            fapswitch 2.2
_symmetry_space_group_name_H-M    P1
_symmetry_Int_Tables_number       1
_space_group_crystal_system       triclinic
_cell_length_a                    6.962756
_cell_length_b                    14.573738
_cell_length_c                    15.683836
_cell_angle_alpha                 89.962746
_cell_angle_beta                  90.319201
_cell_angle_gamma                 91.013428
_cell_volume                      1591.21799579

loop_
_atom_site_label
_atom_site_type_symbol
_atom_site_description
_atom_site_fract_x
_atom_site_fract_y
_atom_site_fract_z
_atom_type_partial_charge
O1    O     O_R   0.638960 0.835150 0.161940 -0.565787
O2    O     O_R   0.361040 0.164850 0.838060 -0.570769
O3    O     O_R   0.309170 0.846340 0.337470 -0.620394
O4    O     O_R   0.690830 0.153660 0.662530 -0.620790
O5    O     O_R   0.138810 0.664830 0.338070 -0.608792
O6    O     O_R   0.861190 0.335170 0.661930 -0.610928
C1    C     C_R   0.479376 0.868383 0.366464 0.906290
C2    C     C_R   0.520681 0.131861 0.633343 0.906260
O7    O     O_R   0.309250 0.846350 0.162570 -0.552377
O8    O     O_R   0.690750 0.153650 0.837430 -0.552830
O9    O     O_R   0.138880 0.664840 0.161920 -0.596240
O10   O     O_R   0.861120 0.335160 0.838080 -0.586206
C3    C     C_R   0.478989 0.869847 0.135136 1.140672
C4    C     C_R   0.521232 0.130967 0.865525 1.139323
O11   O     O_R   0.638880 0.835150 0.338090 -0.608216
O12   O     O_R   0.361120 0.164850 0.661910 -0.608661
O13   O     O_3   0.472380 0.690440 0.250000 -0.291146
O14   O     O_3   0.527620 0.309560 0.750000 -0.280560
V1    V     V_3+5 0.197550 0.761040 0.250010 1.236613
V2    V     V_3+5 0.802450 0.238960 0.749990 1.239671
O15   O     O_R   0.809160 0.653640 0.162540 -0.579107
O16   O     O_R   0.190840 0.346360 0.837460 -0.573645
C5    C     C_R   0.976067 0.633034 0.132244 1.124618
C6    C     C_R   0.023797 0.365735 0.868544 1.097348
O17   O     O_R   0.809090 0.653640 0.337440 -0.605129
O18   O     O_R   0.190910 0.346360 0.662560 -0.600144
C7    C     C_R   0.977364 0.632487 0.366979 1.023869
C8    C     C_R   0.022808 0.367860 0.633258 1.008270
V3    V     V_3+5 0.697540 0.738950 0.250000 1.234422
V4    V     V_3+5 0.302460 0.261050 0.750000 1.241144
O19   O     O_3   0.972580 0.809550 0.250010 -0.266128
O20   O     O_3   0.027420 0.190450 0.749990 -0.267413
C9    C     C_3   0.173803 0.543798 0.489632 -0.314368
C10   C     C_3   0.827331 0.456989 0.510726 -0.333484
C11   C     C_3   0.052236 0.541994 0.571917 0.385853
C12   C     C_3   0.949288 0.458748 0.428475 0.390713
H1    H     H_    0.315118 0.578909 0.481863 0.163347
H2    H     H_    0.686436 0.421736 0.519378 0.166384
C13   C     C_3   0.013669 0.437839 0.563180 -0.331900
C14   C     C_3   0.987581 0.562786 0.437188 -0.338125
C15   C     C_3   0.131423 0.439510 0.480257 0.117480
C16   C     C_3   0.869947 0.561335 0.520153 0.111835
C17   C     C_3   0.938774 0.418520 0.031249 0.380740
C18   C     C_3   0.058408 0.579075 0.969803 0.353674
C19   C     C_3   0.105577 0.477395 0.067222 0.054948
C20   C     C_3   0.892235 0.519934 0.934054 0.053655
C21   C     C_3   0.981851 0.563560 0.061100 -0.337275
C22   C     C_3   0.016489 0.434151 0.940279 -0.335742
C23   C     C_3   0.810575 0.503904 0.024927 -0.223241
C24   C     C_3   0.186988 0.493703 0.976292 -0.286218
H3    H     H_    0.657655 0.507386 0.044053 0.160310
H4    H     H_    0.339774 0.487921 0.957956 0.175622
C25   C     C_3   0.677981 0.989869 0.466743 -0.173420
C26   C     C_3   0.322234 0.010703 0.532795 -0.175289
C27   C     C_3   0.566088 0.081622 0.468515 -0.182309
C28   C     C_3   0.434196 0.918957 0.531070 -0.182478
H5    H     H_    0.617555 0.148504 0.442568 0.154926
H6    H     H_    0.382955 0.852068 0.557089 0.153718
H7    H     H_    0.824651 0.980437 0.441155 0.131159
H8    H     H_    0.175535 0.020184 0.558338 0.131483
C29   C     C_3   0.507816 0.062397 0.562286 -0.174637
C30   C     C_3   0.492374 0.938143 0.437290 -0.175077
C31   C     C_3   0.617023 0.972102 0.559670 0.226623
C32   C     C_3   0.383260 0.028495 0.439867 0.227344
C33   C     C_3   0.519078 0.917524 0.970002 0.324802
C34   C     C_3   0.481961 0.084260 0.031219 0.321147
C35   C     C_3   0.357172 0.982735 0.943143 -0.263828
C36   C     C_3   0.643636 0.018838 0.058113 -0.256837
H9    H     H_    0.249761 0.963519 0.893859 0.254004
H10   H     H_    0.751062 0.037970 0.107416 0.252877
C37   C     C_3   0.510079 0.061725 0.936203 -0.500538
C38   C     C_3   0.490689 0.939897 0.065014 -0.500480
C39   C     C_3   0.668576 0.995155 0.962435 0.343662
C40   C     C_3   0.332253 0.006566 0.038836 0.342904
N1    N     N_R   0.111353 0.589948 0.649368 0.223626
O21   O     O_R   0.124999 0.679016 0.649381 -0.396061
O22   O     O_R   0.176622 0.544164 0.714197 -0.429973
N2    N     N_R   0.893983 0.410420 0.350651 0.226288
O23   O     O_R   0.868917 0.321829 0.351899 -0.408548
O24   O     O_R   0.863195 0.455540 0.280512 -0.420707
N3    N     N_R   0.536694 0.826185 0.934943 0.278687
O25   O     O_R   0.523233 0.814202 0.852951 -0.342721
O26   O     O_R   0.540127 0.755798 0.985746 -0.416075
N4    N     N_R   0.467003 0.175554 0.066915 0.275313
O27   O     O_R   0.470289 0.185670 0.149277 -0.347679
O28   O     O_R   0.482844 0.247020 0.017604 -0.401510
N5    N     N_R   0.851870 0.989378 0.919097 0.255417
O29   O     O_R   0.966103 0.060851 0.917087 -0.361239
O30   O     O_R   0.896783 0.915419 0.877975 -0.351369
N6    N     N_R   0.148934 0.012264 0.082163 0.255611
O31   O     O_R   0.103652 0.086273 0.123117 -0.354946
O32   O     O_R   0.034789 0.940759 0.084141 -0.360615
N7    N     N_2   0.274001 0.373226 0.456998 -0.118492
H11   H     H_    0.357409 0.352502 0.507690 0.165337
C41   C     C_3   0.386135 0.398346 0.383018 -0.807772
H12   H     H_    0.472804 0.339214 0.362626 0.277886
H13   H     H_    0.484209 0.457080 0.398027 0.242363
H14   H     H_    0.290601 0.418448 0.329792 0.262538
N8    N     N_2   0.727390 0.628351 0.541562 -0.119568
H15   H     H_    0.638676 0.644124 0.491063 0.164003
C42   C     C_3   0.623174 0.609017 0.619060 -0.803198
H16   H     H_    0.523945 0.665855 0.632570 0.276411
H17   H     H_    0.724712 0.603078 0.673281 0.260201
H18   H     H_    0.537616 0.544293 0.612561 0.250262
N9    N     N_2   0.222949 0.459626 0.141723 -0.126323
H19   H     H_    0.343073 0.501799 0.146111 0.184085
C43   C     C_3   0.256258 0.364708 0.161875 -0.581315
H20   H     H_    0.399495 0.357647 0.192410 0.264404
H21   H     H_    0.249613 0.322228 0.103708 0.285476
H22   H     H_    0.144972 0.339304 0.206756 0.278898
N10   N     N_2   0.781089 0.537124 0.857716 -0.133850
H23   H     H_    0.861739 0.536555 0.802922 0.197331
C44   C     C_3   0.653704 0.613250 0.862226 -0.575669
H24   H     H_    0.561526 0.614820 0.804425 0.261267
H25   H     H_    0.739630 0.677891 0.866270 0.293055
H26   H     H_    0.558111 0.605293 0.917986 0.250734
N11   N     N_R   0.874426 0.330507 0.065841 0.249212
O33   O     O_R   0.790905 0.327084 0.139707 -0.292659
O34   O     O_R   0.905808 0.254854 0.024675 -0.347890
N12   N     N_R   0.117702 0.667306 0.933931 0.247117
O35   O     O_R   0.179532 0.671886 0.856005 -0.294775
O36   O     O_R   0.099036 0.742382 0.977631 -0.341708
N13   N     N_2   0.746622 0.943514 0.626712 -0.115172
H27   H     H_    0.846354 0.993561 0.643254 0.181788
C45   C     C_3   0.832549 0.855269 0.613749 -0.736884
H28   H     H_    0.916581 0.836551 0.671340 0.302395
H29   H     H_    0.930108 0.857692 0.557903 0.212095
H30   H     H_    0.719368 0.802088 0.603448 0.250968
N14   N     N_2   0.253820 0.057137 0.372776 -0.113959
H31   H     H_    0.151768 0.007731 0.357367 0.181002
C46   C     C_3   0.172338 0.146626 0.384383 -0.743006
H32   H     H_    0.085680 0.164450 0.327293 0.298056
H33   H     H_    0.288200 0.199087 0.391888 0.249662
H34   H     H_    0.078128 0.146866 0.441363 0.214989

loop_
_geom_bond_atom_site_label_1
_geom_bond_atom_site_label_2
_geom_bond_distance
_ccdc_geom_bond_type
C34   C36   1.544775 S    
N5    O29   1.299829 A    
C42   H16   1.109274 S    
O6    C8    1.296884 A    
O13   V3    1.708329 S    
C4    C37   1.499954 S    
C41   H12   1.109059 S    
C10   C16   1.551235 S    
O4    C2    1.301857 A    
C46   H34   1.111558 S    
V1    O19   1.729922 S    
N3    O25   1.300498 A    
C25   H7    1.110160 S    
C41   H14   1.107043 S    
N13   H27   1.030452 S    
C13   C15   1.541231 S    
C26   H8    1.110191 S    
N9    C43   1.441256 S    
C20   C23   1.553405 S    
O9    V1    2.004302 S    
N7    H11   1.030204 S    
O16   C6    1.299336 A    
N4    O28   1.300349 A    
N14   H31   1.030521 S    
O3    C1    1.301989 A    
N11   O34   1.300482 A    
N2    O24   1.299939 A    
N13   C45   1.442966 S    
C18   N12   1.457150 S    
O12   V4    2.017487 S    
C34   C40   1.530474 S    
C33   C39   1.528772 S    
O14   V2    2.188621 S    
O9    C5    1.300925 A    
C29   C31   1.532109 S    
C11   C16   1.533107 S    
O7    C3    1.300121 A    
C39   N5    1.453067 S    
C30   C32   1.532495 S    
C9    C11   1.547260 S    
O5    C7    1.295387 A    
C33   N3    1.448049 S    
O7    V1    2.001706 S    
C15   N7    1.445739 S    
N8    H15   1.030064 S    
O8    V2    2.001705 S    
C23   H3    1.109832 S    
C45   H30   1.106780 S    
C24   H4    1.108200 S    
C43   H20   1.110334 S    
O3    V1    1.996786 S    
O14   V4    1.708331 S    
C17   C22   1.544058 S    
C10   C12   1.548307 S    
C18   C21   1.545754 S    
C2    C29   1.507317 S    
C44   H26   1.106743 S    
C19   C21   1.538002 S    
C2    O12   1.300344 A    
C20   N10   1.446128 S    
C43   H21   1.103138 S    
C12   C15   1.532060 S    
N3    O26   1.298960 A    
C19   N9    1.447994 S    
O11   V3    2.017487 S    
C20   C22   1.535624 S    
C25   C27   1.559791 S    
O17   V3    2.012414 S    
C26   C28   1.559946 S    
C9    C14   1.560398 S    
C5    C21   1.508393 S    
C10   C13   1.561601 S    
C6    C22   1.505472 S    
C12   C14   1.540853 S    
N4    O27   1.300265 A    
C38   C40   1.536852 S    
O8    C4    1.299378 A    
C37   C39   1.536445 S    
N2    O23   1.299933 A    
C17   C23   1.546986 S    
C1    O11   1.300328 A    
C18   C20   1.534295 S    
C8    C13   1.500737 S    
C33   C35   1.543879 S    
C36   C39   1.551374 S    
O15   V3    2.019810 S    
C9    H1    1.108265 S    
C35   H9    1.105286 S    
C11   C13   1.542858 S    
N1    O21   1.299846 A    
C1    C30   1.507576 S    
C17   C19   1.536708 S    
C25   C30   1.552779 S    
N6    O32   1.299820 A    
C34   C37   1.540478 S    
C7    C14   1.499898 S    
C36   C38   1.557930 S    
C11   N1    1.455608 S    
C27   C32   1.543075 S    
O10   V2    2.004301 S    
O1    V3    2.012679 S    
C28   C31   1.542979 S    
N10   C44   1.434623 S    
C35   C40   1.552065 S    
N1    O22   1.300098 A    
C17   N11   1.456655 S    
C36   H10   1.105262 S    
N8    C42   1.444107 S    
O18   V4    2.012415 S    
C42   H18   1.111127 S    
O15   C5    1.298151 A    
C45   H28   1.109968 S    
C43   H22   1.108400 S    
C28   C30   1.551673 S    
O1    C3    1.299034 A    
C46   H32   1.110173 S    
N12   O35   1.299333 A    
N12   O36   1.300288 A    
C44   H24   1.108275 S    
V2    O20   1.729921 S    
C18   C24   1.548580 S    
O16   V4    2.019811 S    
N10   H23   1.029313 S    
C10   H2    1.108300 S    
C14   C16   1.541315 S    
C46   H33   1.107437 S    
C26   C29   1.552592 S    
C31   N13   1.447623 S    
C41   H13   1.110049 S    
O5    V1    2.006054 S    
C3    C38   1.501659 S    
C21   C23   1.567272 S    
C33   C38   1.540173 S    
O6    V2    2.006052 S    
N9    H19   1.031150 S    
O10   C6    1.298536 A    
O18   C8    1.298515 A    
O2    V4    2.012677 S    
C9    C15   1.550042 S    
C40   N6    1.453057 S    
C27   H5    1.110345 S    
V3    O19   2.157849 S    
C12   N2    1.456187 S    
N11   O33   1.299690 A    
V4    O20   2.157848 S    
C25   C31   1.540742 S    
N6    O31   1.300187 A    
N7    C41   1.445454 S    
C26   C32   1.540945 S    
C19   C24   1.554181 S    
C27   C29   1.551820 S    
C22   C24   1.561502 S    
O13   V1    2.188621 S    
C28   H6    1.110360 S    
C35   C37   1.558320 S    
O2    C4    1.298964 A    
C34   N4    1.449484 S    
O4    V2    1.996787 S    
C32   N14   1.447712 S    
C42   H17   1.107175 S    
C45   H29   1.111565 S    
N5    O30   1.300240 A    
N14   C46   1.443449 S    
C16   N8    1.445787 S    
C44   H25   1.108672 S    
O17   C7    1.299608 A    
