data_mof_unit_17238.cif
_audit_creation_date              2012-12-10T17:11:28-0500
_audit_creation_method            fapswitch 2.2
_symmetry_space_group_name_H-M    P1
_symmetry_Int_Tables_number       1
_space_group_crystal_system       triclinic
_cell_length_a                    15.090567
_cell_length_b                    13.013141
_cell_length_c                    11.66167
_cell_angle_alpha                 100.006353
_cell_angle_beta                  93.741356
_cell_angle_gamma                 90.235213
_cell_volume                      2250.14862545

loop_
_atom_site_label
_atom_site_type_symbol
_atom_type_description
_atom_site_fract_x
_atom_site_fract_y
_atom_site_fract_z
_atom_type_partial_charge
C1    C     C_R   0.497256 0.299420 0.478489 0.839168
C2    C     C_R   0.502744 0.700580 0.521511 0.839169
C3    C     C_R   0.055428 0.496022 0.711050 0.176579
C4    C     C_R   0.944572 0.503994 0.288948 0.176580
C5    C     C_R   0.502328 0.813706 0.534227 -0.133711
C6    C     C_R   0.497669 0.186294 0.465772 -0.133706
C7    C     C_R   0.559186 0.024786 0.369778 0.530759
C8    C     C_R   0.440804 0.975212 0.630216 0.530766
C9    C     C_R   0.545228 0.131427 0.377682 -0.332246
C10   C     C_R   0.454766 0.868571 0.622314 -0.332243
C11   C     C_R   0.454031 0.134282 0.542355 0.132247
C12   C     C_R   0.545964 0.865718 0.457644 0.132251
C13   C     C_R   0.473320 0.027750 0.543857 -0.055682
C14   C     C_R   0.526673 0.972250 0.456140 -0.055680
C15   C     C_R   0.412174 0.407324 0.022009 -0.328290
C16   C     C_R   0.587826 0.592676 0.977991 -0.328289
C17   C     C_R   0.421036 0.415509 0.144177 0.090649
C18   C     C_R   0.578964 0.584491 0.855823 0.090649
C19   C     C_R   0.538632 0.538980 0.156881 0.031729
C20   C     C_R   0.461368 0.461020 0.843119 0.031729
C21   C     C_R   0.532093 0.533369 0.034117 0.066032
C22   C     C_R   0.467907 0.466631 0.965883 0.066031
C23   C     C_R   0.328542 0.499772 0.500376 0.805440
C24   C     C_R   0.671458 0.500228 0.499623 0.805441
C25   C     C_R   0.809163 0.502261 0.395125 -0.249076
C26   C     C_R   0.190837 0.497742 0.604875 -0.249076
C27   C     C_R   0.768227 0.500453 0.499123 -0.078474
C28   C     C_R   0.231773 0.499549 0.500877 -0.078476
C29   C     C_R   0.819707 0.498818 0.602948 -0.228740
C30   C     C_R   0.180292 0.501187 0.397051 -0.228736
C31   C     C_R   0.911899 0.498535 0.603741 0.070589
C32   C     C_R   0.088100 0.501472 0.396258 0.070586
C33   C     C_R   0.953481 0.500179 0.499206 0.014438
C34   C     C_R   0.046519 0.499827 0.500793 0.014434
C35   C     C_R   0.901957 0.502182 0.393361 0.102632
C36   C     C_R   0.098043 0.497825 0.606638 0.102647
C37   C     C_R   0.962617 0.496467 0.708069 -0.211692
C38   C     C_R   0.037383 0.503547 0.291930 -0.211692
Cu1   Cu    Cu3+1 0.506660 0.507730 0.615930 0.937765
Cu2   Cu    Cu3+1 0.493340 0.492270 0.384070 0.937766
H1    H     H_    0.768019 0.503953 0.315970 0.167968
H2    H     H_    0.231981 0.496048 0.684029 0.167968
H3    H     H_    0.362100 0.355104 0.971978 0.140536
H4    H     H_    0.637900 0.644896 0.028022 0.140534
H5    H     H_    0.788053 0.497341 0.683546 0.154789
H6    H     H_    0.211947 0.502666 0.316454 0.154789
H7    H     H_    0.929522 0.495154 0.787655 0.143418
H8    H     H_    0.070479 0.504865 0.212343 0.143419
H9    H     H_    0.428537 0.827521 0.686186 0.174190
H10   H     H_    0.571456 0.172477 0.313809 0.174187
H11   H     H_    0.412167 0.409968 0.789823 0.115602
H12   H     H_    0.587833 0.590032 0.210177 0.115602
H13   H     H_    0.622304 0.630390 0.813460 0.127055
H14   H     H_    0.377696 0.369610 0.186540 0.127056
N1    N     N_R   0.516670 0.519360 0.790130 -0.182169
N2    N     N_R   0.483330 0.480640 0.209870 -0.182170
O1    O     O_R   0.504720 0.354460 0.582000 -0.574149
O2    O     O_R   0.495280 0.645540 0.418000 -0.574149
O3    O     O_R   0.493480 0.341410 0.386200 -0.589537
O4    O     O_R   0.506520 0.658590 0.613800 -0.589537
O5    O     O_R   0.375880 0.506510 0.597910 -0.596861
O6    O     O_R   0.624120 0.493490 0.402090 -0.596860
O7    O     O_R   0.364640 0.493450 0.402110 -0.591576
O8    O     O_R   0.635360 0.506550 0.597890 -0.591576
C39   C     C_3   0.106922 0.493620 0.826004 -0.897633
H15   H     H_    0.062380 0.492358 0.897971 0.229787
H16   H     H_    0.148059 0.422509 0.818979 0.229523
H17   H     H_    0.150422 0.564141 0.849956 0.234747
C40   C     C_3   0.893079 0.506414 0.173994 -0.897585
H18   H     H_    0.937621 0.507696 0.102025 0.229776
H19   H     H_    0.849581 0.435888 0.150024 0.234740
H20   H     H_    0.851938 0.577527 0.181037 0.229516
C41   C     C_3   0.618992 0.809690 0.388487 -0.735876
H21   H     H_    0.642694 0.739572 0.422719 0.188802
H22   H     H_    0.595154 0.784987 0.295672 0.257829
H23   H     H_    0.678809 0.860893 0.396314 0.228952
C42   C     C_3   0.381005 0.190313 0.611512 -0.735872
H24   H     H_    0.357307 0.260433 0.577284 0.188802
H25   H     H_    0.321186 0.139112 0.603681 0.228957
H26   H     H_    0.404842 0.215010 0.704329 0.257827
O9    O     O_3   0.594879 0.969400 0.270970 -0.572909
C43   C     C_3   0.677627 0.012527 0.251627 -0.354569
H27   H     H_    0.718340 0.041570 0.334261 0.150362
H28   H     H_    0.667873 0.075497 0.199065 0.180562
H29   H     H_    0.716049 0.950469 0.200058 0.191017
O10   O     O_3   0.405102 0.030593 0.729017 -0.572914
C44   C     C_3   0.322351 0.987464 0.748340 -0.354585
H30   H     H_    0.332097 0.924497 0.800909 0.180566
H31   H     H_    0.281649 0.958413 0.665699 0.150364
H32   H     H_    0.283921 0.049522 0.799892 0.191024

loop_
_geom_bond_atom_site_label_1
_geom_bond_atom_site_label_2
_ccdc_geom_bond_type
C19   N2    A    
C44   H30   S    
C8    C13   A    
C27   C29   A    
C41   H21   S    
C24   C27   S    
C6    C9    A    
O9    C43   S    
C42   H24   S    
Cu1   O8    S    
C16   C21   A    
Cu2   O7    S    
C21   C22   A    
C19   C21   A    
C20   H11   S    
C1    O3    A    
C2    O4    A    
Cu1   O1    S    
Cu2   O6    S    
C7    C9    A    
C40   H19   S    
C11   C42   S    
C18   H13   S    
C19   H12   S    
C15   C22   A    
Cu1   N1    S    
Cu2   N2    S    
C31   C33   A    
C32   C38   A    
C37   H7    S    
C16   H4    S    
C38   H8    S    
C23   O7    A    
C4    C35   A    
C24   O8    A    
Cu2   O3    S    
C12   C41   S    
C41   H22   S    
C3    C39   S    
C20   N1    A    
C4    C40   S    
C42   H25   S    
Cu1   O5    S    
Cu2   O2    S    
C1    C6    S    
C5    C12   A    
C25   H1    S    
C6    C11   A    
O10   C44   S    
C39   H16   S    
C7    C14   A    
C31   C37   A    
C29   H5    S    
C32   C34   A    
C40   H20   S    
C1    O1    A    
C39   H17   S    
C33   C34   A    
C16   C18   A    
C23   C28   S    
C17   N2    A    
C18   N1    A    
C25   C35   A    
C26   C36   A    
C7    O9    S    
C12   C14   A    
C39   H15   S    
C43   H28   S    
C44   H31   S    
C41   H23   S    
C2    C5    S    
Cu1   Cu2   S    
C26   H2    S    
C42   H26   S    
C15   C17   A    
C24   O6    A    
C30   H6    S    
C9    H10   S    
C20   C22   A    
C13   C14   A    
C2    O2    A    
C25   C27   A    
C43   H29   S    
C26   C28   A    
C28   C30   A    
C15   H3    S    
C5    C10   A    
C29   C31   A    
C30   C32   A    
C11   C13   A    
C8    O10   S    
C3    C36   A    
Cu1   O4    S    
C33   C35   A    
C34   C36   A    
C40   H18   S    
C23   O5    A    
C3    C37   A    
C8    C10   A    
C43   H27   S    
C44   H32   S    
C4    C38   A    
C10   H9    S    
C17   H14   S    
