data_mof_unit_32456.cif
_audit_creation_date              2013-03-05T15:52:05-0500
_audit_creation_method            fapswitch 2.2
_symmetry_space_group_name_H-M    P1
_symmetry_Int_Tables_number       1
_space_group_crystal_system       triclinic
_cell_length_a                    19.351745
_cell_length_b                    10.839473
_cell_length_c                    9.663032
_cell_angle_alpha                 86.998612
_cell_angle_beta                  89.109682
_cell_angle_gamma                 95.609335
_cell_volume                      2014.03553791

loop_
_atom_site_label
_atom_site_type_symbol
_atom_site_description
_atom_site_fract_x
_atom_site_fract_y
_atom_site_fract_z
_atom_type_partial_charge
O1    O     O_R   0.499990 0.319640 0.618810 -0.550830
O2    O     O_R   0.500000 0.319660 0.381240 -0.547747
C1    C     C_R   0.505312 0.262906 0.503887 0.819795
O3    O     O_R   0.400140 0.499970 0.618820 -0.577403
O4    O     O_R   0.400150 0.500000 0.381250 -0.586458
C2    C     C_R   0.367566 0.504354 0.500952 0.764317
Cu1   Cu    Cu3+1 0.500000 0.499990 0.640660 0.992737
Cu2   Cu    Cu3+1 0.500000 0.500010 0.359340 1.022142
O5    O     O_R   0.500000 0.680340 0.618760 -0.602578
O6    O     O_R   0.500010 0.680360 0.381190 -0.519592
O7    O     O_R   0.599850 0.500000 0.618750 -0.598340
O8    O     O_R   0.599860 0.500030 0.381180 -0.516110
C3    C     C_R   0.494171 0.736501 0.496475 0.833887
C4    C     C_R   0.632388 0.496318 0.498702 0.841382
C5    C     C_R   0.248359 0.505529 0.620894 -0.035897
C6    C     C_R   0.177059 0.512865 0.608394 -0.183691
H1    H     H_    0.143628 0.499338 0.700326 0.177615
C7    C     C_R   0.147623 0.535185 0.479707 -0.037102
C8    C     C_R   0.190109 0.554340 0.359069 -0.020049
C9    C     C_R   0.261806 0.547555 0.371823 -0.168285
H2    H     H_    0.294704 0.566455 0.280185 0.220587
C10   C     C_R   0.291839 0.519112 0.500157 -0.139555
N1    N     N_R   0.034682 0.431608 0.423907 -0.182205
N2    N     N_R   0.965651 0.422910 0.428267 -0.193141
C11   C     C_R   0.931760 0.512642 0.484667 0.518331
N3    N     N_R   0.969280 0.611548 0.536453 -0.170401
N4    N     N_R   0.038350 0.619692 0.533236 -0.186940
C12   C     C_R   0.072021 0.530251 0.476040 0.483863
C13   C     C_R   0.818766 0.513020 0.615829 -0.009967
C14   C     C_R   0.746231 0.510259 0.615576 -0.207786
H3    H     H_    0.718659 0.521940 0.711685 0.213254
C15   C     C_R   0.708698 0.490231 0.494642 -0.157593
C16   C     C_R   0.745015 0.468419 0.370849 0.422459
C17   C     C_R   0.817954 0.480896 0.366420 -0.042083
C18   C     C_R   0.855259 0.502678 0.489237 -0.171701
C19   C     C_R   0.488112 0.089227 0.767872 0.336570
C20   C     C_R   0.446049 0.019144 0.871854 0.354622
C21   C     C_R   0.411648 0.905472 0.841187 -0.146586
H4    H     H_    0.378989 0.851757 0.919139 0.198194
C22   C     C_R   0.421934 0.857270 0.713084 -0.207528
H5    H     H_    0.396104 0.766653 0.694647 0.206321
C23   C     C_R   0.464209 0.925488 0.609871 -0.030055
C24   C     C_R   0.486881 0.050658 0.629564 0.021153
C25   C     C_R   0.512261 0.127839 0.512199 -0.213627
C26   C     C_R   0.531559 0.072470 0.390370 -0.011903
C27   C     C_R   0.513888 0.946580 0.375109 0.350411
C28   C     C_R   0.485815 0.870426 0.489445 -0.213256
C29   C     C_R   0.609342 0.650521 0.123607 0.412594
C30   C     C_R   0.668033 0.698362 0.040450 -0.223145
C31   C     C_R   0.659748 0.709905 0.897372 0.300645
C32   C     C_R   0.601213 0.651768 0.840178 -0.147191
H6    H     H_    0.597912 0.671890 0.732157 0.238150
C33   C     C_R   0.550982 0.573443 0.918301 0.014401
C34   C     C_R   0.552675 0.573028 0.067188 0.099772
N5    N     N_R   0.500660 0.501210 0.147910 -0.245447
C35   C     C_R   0.450862 0.430180 0.079431 0.034960
C36   C     C_R   0.451722 0.428007 0.932710 0.468206
N6    N     N_R   0.500680 0.501290 0.852040 -0.217335
C37   C     C_2   0.273011 0.481376 0.762339 0.930636
O9    O     O_2   0.314010 0.557459 0.814768 -0.564826
O10   O     O_R   0.244388 0.375645 0.839709 -0.714665
H7    H     H_    0.261946 0.371422 0.937731 0.398397
O11   O     O_3   0.538983 0.179976 0.802869 -0.707164
H8    H     H_    0.551477 0.164417 0.900607 0.342637
O12   O     O_3   0.437546 0.058582 0.003641 -0.672737
H9    H     H_    0.449863 0.149335 0.000995 0.377834
O13   O     O_3   0.524877 0.901223 0.246912 -0.700359
H10   H     H_    0.482482 0.847320 0.225326 0.356034
C38   C     C_2   0.393448 0.354493 0.155415 0.973970
O14   O     O_2   0.335314 0.389178 0.153448 -0.603813
O15   O     O_R   0.403705 0.239169 0.218567 -0.712822
H11   H     H_    0.359787 0.195635 0.264227 0.332542
O16   O     O_3   0.604564 0.693769 0.252903 -0.632683
H12   H     H_    0.628112 0.779169 0.253877 0.359818
C39   C     C_2   0.737094 0.734732 0.103901 0.933385
O17   O     O_2   0.743458 0.729012 0.229707 -0.573410
O18   O     O_R   0.796250 0.768125 0.020170 -0.678903
H13   H     H_    0.839664 0.787313 0.075682 0.365327
O19   O     O_3   0.706170 0.781306 0.809373 -0.655775
H14   H     H_    0.722467 0.857133 0.857155 0.366321
O20   O     O_3   0.401376 0.349015 0.875056 -0.742333
H15   H     H_    0.414515 0.338020 0.778720 0.377356
C40   C     C_2   0.161826 0.582832 0.219458 0.864565
O21   O     O_2   0.196051 0.568328 0.115051 -0.558992
O22   O     O_R   0.096876 0.628124 0.206245 -0.726109
H16   H     H_    0.083907 0.643579 0.106004 0.359715
C41   C     C_2   0.854304 0.522292 0.751125 0.895285
O23   O     O_2   0.828476 0.575075 0.844913 -0.518375
O24   O     O_R   0.915848 0.467162 0.773683 -0.754104
H17   H     H_    0.935412 0.482242 0.868703 0.348387
O25   O     O_3   0.710896 0.440201 0.250677 -0.680734
H18   H     H_    0.673306 0.373993 0.275647 0.346782
C42   C     C_2   0.854067 0.471315 0.230850 0.953768
O26   O     O_2   0.902403 0.547573 0.193415 -0.571355
O27   O     O_R   0.831964 0.375662 0.145298 -0.682777
H19   H     H_    0.860589 0.378252 0.056356 0.345293
C43   C     C_2   0.579180 0.140871 0.285433 0.937793
O28   O     O_2   0.641838 0.140016 0.298928 -0.592867
O29   O     O_R   0.553045 0.202793 0.170430 -0.724942
H20   H     H_    0.591161 0.249631 0.109774 0.319055

loop_
_geom_bond_atom_site_label_1
_geom_bond_atom_site_label_2
_geom_bond_distance
_ccdc_geom_bond_type
C14   C15   1.400855 A    
C41   O23   1.222545 D    
C39   O17   1.222743 D    
C42   O26   1.223154 D    
O16   H12   0.991589 S    
O27   H19   1.012892 S    
C17   C42   1.488387 S    
N5    C35   1.373852 A    
C31   O19   1.378599 S    
C43   O28   1.222431 D    
Cu1   Cu2   2.718393 S    
O18   H13   1.014073 S    
Cu1   O7    1.940550 S    
C35   C38   1.476475 S    
N3    N4    1.330673 A    
C20   C21   1.390391 A    
C19   C20   1.422337 A    
C7    C8    1.410504 A    
C16   O25   1.378215 S    
O4    C2    1.314009 A    
O7    C4    1.315602 A    
C5    C6    1.396548 A    
C2    C10   1.489718 S    
C35   C36   1.419063 A    
C17   C18   1.417045 A    
C38   O15   1.395279 S    
O5    C3    1.312187 A    
C27   C28   1.412570 A    
C5    C10   1.420597 A    
C40   O21   1.223700 D    
C6    H1    1.085871 S    
C20   O12   1.376872 S    
N1    N2    1.329830 A    
C30   C39   1.505081 S    
C19   O11   1.380932 S    
Cu1   N6    2.043596 S    
C22   C23   1.410645 A    
C37   O9    1.222542 D    
C42   O27   1.398367 S    
O10   H7    1.011545 S    
O3    Cu1   1.947194 S    
C8    C40   1.492403 S    
Cu2   N5    2.042249 S    
C43   O29   1.395338 S    
C31   C32   1.379160 A    
C1    C25   1.481384 S    
C37   O10   1.397331 S    
C32   H6    1.059311 S    
C7    C12   1.459841 S    
N2    C11   1.357314 A    
O3    C2    1.311238 A    
O25   H18   0.988329 S    
C3    C28   1.474458 S    
C11   N3    1.357299 A    
O22   H16   1.013939 S    
O20   H15   0.977554 S    
O13   H10   0.991143 S    
O1    C1    1.304745 A    
C29   C34   1.446305 A    
C24   C25   1.424892 A    
C13   C14   1.401109 A    
O29   H20   1.013686 S    
C14   H3    1.083211 S    
Cu2   O8    1.947192 S    
C16   C17   1.404507 A    
N1    C12   1.354934 A    
C39   O18   1.398468 S    
C11   C18   1.473597 S    
C6    C7    1.395262 A    
C29   C30   1.420369 A    
C40   O22   1.398639 S    
C9    C10   1.409977 A    
O12   H9    0.988184 S    
C41   O24   1.398800 S    
C36   O20   1.377124 S    
O19   H14   0.990859 S    
C23   C24   1.408119 A    
C25   C26   1.410565 A    
Cu1   O5    1.955272 S    
C34   N5    1.409423 A    
C22   H5    1.082354 S    
O1    Cu1   1.977210 S    
C5    C37   1.473578 S    
C29   O16   1.362164 S    
O2    Cu2   1.955273 S    
C4    C15   1.484640 S    
O6    C3    1.305610 A    
O4    Cu2   1.940554 S    
C33   N6    1.375563 A    
C33   C34   1.439369 A    
C13   C18   1.417977 A    
C15   C16   1.420110 A    
C8    C9    1.403558 A    
O2    C1    1.316578 A    
O8    C4    1.307619 A    
O15   H11   1.013792 S    
C26   C43   1.478462 S    
C21   C22   1.387561 A    
C36   N6    1.378886 A    
C21   H4    1.083127 S    
C23   C28   1.411238 A    
C38   O14   1.220620 D    
C13   C41   1.490124 S    
O11   H8    0.988562 S    
C26   C27   1.390040 A    
C27   O13   1.377506 S    
C9    H2    1.081371 S    
Cu2   O6    1.977210 S    
C30   C31   1.394823 A    
N4    C12   1.355858 A    
C19   C24   1.420935 A    
C32   C33   1.408664 A    
O24   H17   1.013664 S    
