data_mof_unit_34839.cif
_audit_creation_date              2012-12-10T18:29:41-0500
_audit_creation_method            fapswitch 2.2
_symmetry_space_group_name_H-M    P1
_symmetry_Int_Tables_number       1
_space_group_crystal_system       triclinic
_cell_length_a                    11.551815
_cell_length_b                    15.000154
_cell_length_c                    15.528776
_cell_angle_alpha                 81.622639
_cell_angle_beta                  89.817021
_cell_angle_gamma                 104.741724
_cell_volume                      2572.18965404

loop_
_atom_site_label
_atom_site_type_symbol
_atom_type_description
_atom_site_fract_x
_atom_site_fract_y
_atom_site_fract_z
_atom_type_partial_charge
C1    C     C_R   0.481709 0.441063 0.662011 0.906790
C2    C     C_R   0.518184 0.559027 0.338010 0.937549
C3    C     C_R   0.409669 0.351258 0.933719 -0.072749
C4    C     C_R   0.553175 0.651633 0.065140 -0.081770
C5    C     C_R   0.483122 0.515463 0.954214 -0.062659
C6    C     C_R   0.473322 0.487354 0.045702 -0.059169
C7    C     C_R   0.444561 0.389903 0.078785 0.432017
C8    C     C_R   0.513512 0.612642 0.920711 0.434167
C9    C     C_R   0.401363 0.324538 0.023665 -0.280045
C10   C     C_R   0.559699 0.677630 0.975064 -0.285049
C11   C     C_R   0.683730 0.842927 0.633284 0.377924
C12   C     C_R   0.308901 0.154771 0.372456 0.371371
C13   C     C_R   0.653208 0.754094 0.609789 -0.073790
C14   C     C_R   0.344976 0.245405 0.391648 -0.091246
C15   C     C_R   0.505020 0.792030 0.516474 -0.106909
C16   C     C_R   0.490152 0.206469 0.487399 -0.070766
C17   C     C_R   0.532972 0.883945 0.535171 -0.069997
C18   C     C_R   0.457092 0.113088 0.472819 -0.067258
C19   C     C_R   0.625072 0.908988 0.594335 0.048002
C20   C     C_R   0.364295 0.087852 0.414197 0.050456
C21   C     C_R   0.475070 0.951636 0.495659 0.118525
C22   C     C_R   0.512141 0.044597 0.514660 0.123384
C23   C     C_R   0.718064 0.501192 0.500161 0.901738
C24   C     C_R   0.281922 0.498737 0.499998 0.878269
C25   C     C_R   0.602880 0.066034 0.574866 -0.248794
C26   C     C_R   0.381828 0.929482 0.437505 -0.267066
C27   C     C_R   0.657617 0.999501 0.613871 -0.174994
C28   C     C_R   0.327895 0.996223 0.397834 -0.165778
C29   C     C_1   0.839287 0.502897 0.500758 -0.181343
C30   C     C_1   0.160658 0.496860 0.499751 -0.193695
C31   C     C_1   0.941061 0.501379 0.500626 -0.000528
C32   C     C_1   0.058851 0.498269 0.500086 -0.004354
C33   C     C_R   0.460883 0.404106 0.754754 -0.259530
C34   C     C_R   0.527967 0.596770 0.245289 -0.261048
C35   C     C_R   0.375665 0.284209 0.877167 0.373501
C36   C     C_R   0.598048 0.717998 0.121112 0.401486
C37   C     C_R   0.393591 0.312625 0.786476 0.347393
C38   C     C_R   0.596150 0.687642 0.211691 0.369714
C39   C     C_R   0.500884 0.466643 0.812376 -0.264356
C40   C     C_R   0.471762 0.536728 0.189239 -0.273392
C41   C     C_R   0.462519 0.445645 0.899538 0.019756
C42   C     C_R   0.499316 0.557525 0.100300 0.032586
H1    H     H_    0.373374 0.251513 0.051439 0.187523
H2    H     H_    0.594956 0.749423 0.945675 0.182276
H3    H     H_    0.634473 0.133858 0.593979 0.141679
H4    H     H_    0.347061 0.860758 0.421030 0.138890
H5    H     H_    0.408901 0.472115 0.216423 0.228741
H6    H     H_    0.564292 0.531968 0.788124 0.232241
H7    H     H_    0.726812 0.019859 0.659414 0.187433
H8    H     H_    0.257178 0.975380 0.353533 0.190982
H9    H     H_    0.558139 0.232708 0.530966 0.153909
H10   H     H_    0.438220 0.766206 0.471949 0.147418
H11   H     H_    0.300517 0.297573 0.363864 0.156063
H12   H     H_    0.699576 0.702697 0.636338 0.151724
N1    N     N_R   0.566020 0.731700 0.552730 -0.130624
N2    N     N_R   0.433980 0.268300 0.447270 -0.133501
O1    O     O_R   0.466720 0.383110 0.605620 -0.565287
O2    O     O_R   0.533280 0.616890 0.394380 -0.592127
O3    O     O_R   0.509090 0.531900 0.639510 -0.619645
O4    O     O_R   0.490910 0.468100 0.360490 -0.616562
O5    O     O_R   0.644370 0.425610 0.483050 -0.621520
O6    O     O_R   0.355630 0.574390 0.516950 -0.620724
O7    O     O_R   0.686740 0.574390 0.516930 -0.608223
O8    O     O_R   0.313260 0.425610 0.483070 -0.617345
Zn1   Zn    Zn3+2 0.471710 0.400660 0.477370 0.944090
Zn2   Zn    Zn3+2 0.528290 0.599340 0.522630 0.935791
O9    O     O_3   0.679419 0.736746 0.263165 -0.574054
C43   C     C_3   0.640844 0.811268 0.288805 0.132437
H13   H     H_    0.547002 0.788279 0.316412 0.116791
H14   H     H_    0.648685 0.868254 0.233558 0.167221
C44   C     C_3   0.723290 0.851676 0.357493 -0.761075
H15   H     H_    0.816103 0.880357 0.329288 0.255565
H16   H     H_    0.692487 0.908747 0.380637 0.200788
H17   H     H_    0.723822 0.796556 0.413389 0.271253
O10   O     O_3   0.352301 0.249356 0.730030 -0.594655
C45   C     C_3   0.232419 0.248718 0.712078 0.139363
H18   H     H_    0.224179 0.320001 0.685748 0.116708
H19   H     H_    0.173276 0.221117 0.771870 0.161877
C46   C     C_3   0.189620 0.185807 0.643889 -0.760311
H20   H     H_    0.094933 0.183923 0.629743 0.199762
H21   H     H_    0.245557 0.212804 0.582801 0.265219
H22   H     H_    0.196047 0.113880 0.668114 0.254977
O11   O     O_3   0.314593 0.193488 0.909863 -0.612909
C47   C     C_3   0.394497 0.136039 0.911896 0.118169
H23   H     H_    0.471995 0.160510 0.952749 0.114326
H24   H     H_    0.428202 0.134350 0.845063 0.181676
C48   C     C_3   0.328652 0.037103 0.951303 -0.839437
H25   H     H_    0.249300 0.011475 0.912938 0.269106
H26   H     H_    0.388906 0.990171 0.950501 0.199369
H27   H     H_    0.298667 0.035589 0.019671 0.250736
O12   O     O_3   0.657661 0.808744 0.087299 -0.594377
C49   C     C_3   0.572613 0.861895 0.070556 0.056205
H28   H     H_    0.513599 0.856201 0.129049 0.106310
H29   H     H_    0.514011 0.839214 0.017015 0.136616
C50   C     C_3   0.638657 0.963874 0.043610 -0.827821
H30   H     H_    0.692642 0.972195 0.982260 0.255887
H31   H     H_    0.573478 0.007055 0.032990 0.201519
H32   H     H_    0.699087 0.988770 0.095445 0.256928
O13   O     O_3   0.467155 0.356146 0.163015 -0.653443
C51   C     C_3   0.586712 0.348772 0.164390 0.087290
H33   H     H_    0.650645 0.418931 0.148508 0.161131
H34   H     H_    0.602903 0.303269 0.117354 0.132505
C52   C     C_3   0.611591 0.305430 0.254874 -0.803598
H35   H     H_    0.549513 0.235068 0.272510 0.237233
H36   H     H_    0.705096 0.298666 0.256061 0.204915
H37   H     H_    0.599937 0.350188 0.303406 0.287945
O14   O     O_3   0.497497 0.646621 0.835171 -0.652372
C53   C     C_3   0.377726 0.652148 0.827586 0.079749
H38   H     H_    0.356112 0.698184 0.872124 0.135545
H39   H     H_    0.314459 0.581588 0.842385 0.152967
C54   C     C_3   0.360094 0.693418 0.734686 -0.794266
H40   H     H_    0.421708 0.764142 0.718115 0.244430
H41   H     H_    0.378382 0.648107 0.688638 0.284358
H42   H     H_    0.266345 0.698795 0.728051 0.204962
O15   O     O_3   0.777301 0.867766 0.687757 -0.620904
C55   C     C_3   0.738564 0.827139 0.774192 0.093531
H43   H     H_    0.726884 0.750365 0.782702 0.176624
H44   H     H_    0.652788 0.842222 0.792555 0.152385
C56   C     C_3   0.832982 0.867800 0.835779 -0.816184
H45   H     H_    0.845099 0.944348 0.829836 0.250685
H46   H     H_    0.804619 0.835755 0.904080 0.234572
H47   H     H_    0.919716 0.853647 0.819686 0.260997
O16   O     O_3   0.212432 0.128866 0.320543 -0.620263
C57   C     C_3   0.244428 0.171102 0.233506 0.097514
H48   H     H_    0.332073 0.161435 0.211916 0.152623
H49   H     H_    0.248827 0.246783 0.225905 0.179021
C58   C     C_3   0.149292 0.126048 0.174452 -0.818678
H50   H     H_    0.060561 0.134545 0.193879 0.261721
H51   H     H_    0.171901 0.159415 0.105777 0.227646
H52   H     H_    0.144319 0.050538 0.179338 0.253637

loop_
_geom_bond_atom_site_label_1
_geom_bond_atom_site_label_2
_ccdc_geom_bond_type
C40   H5    S    
C14   N2    A    
C21   C26   A    
C4    C36   A    
C50   H30   S    
C47   C48   S    
C48   H25   S    
C46   H22   S    
C16   N2    A    
C50   H32   S    
C1    C33   S    
O16   C57   S    
C39   C41   A    
C55   H43   S    
C11   C19   A    
C33   C39   A    
C7    O13   S    
C34   C40   A    
C23   C29   S    
C35   C37   A    
C47   H24   S    
C1    O3    A    
O3    Zn2   S    
C5    C6    A    
C2    O4    A    
O15   C55   S    
C53   H38   S    
C15   C17   A    
C49   H28   S    
C28   H8    S    
O2    Zn2   S    
O11   C47   S    
C55   H44   S    
C43   H13   S    
C22   C25   A    
O14   C53   S    
C16   H9    S    
C54   H42   S    
C19   C27   A    
C2    C34   S    
C23   O7    A    
C37   O10   S    
O7    Zn2   S    
C24   O8    A    
C34   C38   A    
C21   C22   A    
C51   H34   S    
C24   C30   S    
C56   H46   S    
C9    H1    S    
O6    Zn2   S    
C10   H2    S    
O9    C43   S    
C55   C56   S    
C45   H18   S    
C54   H41   S    
O1    Zn1   S    
O12   C49   S    
C44   H16   S    
C35   O11   S    
C20   C28   A    
C49   C50   S    
C17   C21   A    
C15   N1    A    
O10   C45   S    
C58   H51   S    
C3    C9    A    
C1    O1    A    
C5    C8    A    
N2    Zn1   S    
C31   C32   S    
C3    C35   A    
C12   C20   A    
C49   H29   S    
C52   H36   S    
C53   C54   S    
C15   H10   S    
C47   H23   S    
C57   C58   S    
C36   O12   S    
C8    C10   A    
C12   C14   A    
O4    Zn1   S    
C48   H26   S    
C4    C10   A    
C58   H50   S    
C8    O14   S    
C25   H3    S    
N1    Zn2   S    
C11   O15   S    
C45   C46   S    
C57   H49   S    
C13   H12   S    
C56   H47   S    
C7    C9    A    
C5    C41   A    
C3    C41   A    
C24   O6    A    
C54   H40   S    
C18   C22   A    
C45   H19   S    
C44   H17   S    
C56   H45   S    
C50   H31   S    
C6    C7    A    
C25   C27   A    
C26   C28   A    
O13   C51   S    
O8    Zn1   S    
C36   C38   A    
C58   H52   S    
C44   H15   S    
C29   C31   T    
C30   C32   T    
C11   C13   A    
C12   O16   S    
C4    C42   A    
C43   C44   S    
C40   C42   A    
C51   H33   S    
C17   C19   A    
C53   H39   S    
C52   H37   S    
C18   C20   A    
C51   C52   S    
C46   H21   S    
C2    O2    A    
C33   C37   A    
C26   H4    S    
C46   H20   S    
O5    Zn1   S    
C23   O5    A    
C14   H11   S    
C38   O9    S    
C16   C18   A    
C6    C42   A    
C48   H27   S    
C52   H35   S    
C43   H14   S    
C39   H6    S    
C27   H7    S    
C57   H48   S    
C13   N1    A    
