data_mof_unit_52222.cif
_audit_creation_date              2013-03-05T15:40:16-0500
_audit_creation_method            fapswitch 2.2
_symmetry_space_group_name_H-M    P1
_symmetry_Int_Tables_number       1
_space_group_crystal_system       triclinic
_cell_length_a                    28.014116
_cell_length_b                    18.778671
_cell_length_c                    16.968232
_cell_angle_alpha                 90.047246
_cell_angle_beta                  61.719096
_cell_angle_gamma                 89.898515
_cell_volume                      7860.91335119

loop_
_atom_site_label
_atom_site_type_symbol
_atom_site_description
_atom_site_fract_x
_atom_site_fract_y
_atom_site_fract_z
_atom_type_partial_charge
O1    O     O_R   0.746490 0.236330 0.638080 -0.533065
O2    O     O_R   0.253510 0.763670 0.361920 -0.599960
O3    O     O_R   0.253510 0.236330 0.361920 -0.523542
O4    O     O_R   0.746490 0.763670 0.638080 -0.577486
O5    O     O_R   0.246490 0.736330 0.638080 -0.579113
O6    O     O_R   0.753510 0.263670 0.361920 -0.583845
O7    O     O_R   0.753510 0.736330 0.361920 -0.537219
O8    O     O_R   0.246490 0.263670 0.638080 -0.579743
O9    O     O_R   0.674170 0.186160 0.516270 -0.615314
O10   O     O_R   0.325830 0.813840 0.483730 -0.607603
O11   O     O_R   0.325830 0.186160 0.483730 -0.626108
O12   O     O_R   0.674170 0.813840 0.516270 -0.616869
O13   O     O_R   0.174170 0.686160 0.516270 -0.636170
O14   O     O_R   0.825830 0.313840 0.483730 -0.619468
O15   O     O_R   0.825830 0.686160 0.483730 -0.618002
O16   O     O_R   0.174170 0.313840 0.516270 -0.617501
O17   O     O_R   0.739960 0.127620 0.525000 -0.586876
O18   O     O_R   0.260040 0.872380 0.475000 -0.538520
O19   O     O_R   0.260040 0.127620 0.475000 -0.565572
O20   O     O_R   0.739960 0.872380 0.525000 -0.584974
O21   O     O_R   0.239960 0.627620 0.525000 -0.528017
O22   O     O_R   0.760040 0.372380 0.475000 -0.533755
O23   O     O_R   0.760040 0.627620 0.475000 -0.574913
O24   O     O_R   0.239960 0.372380 0.525000 -0.568763
O25   O     O_R   0.680700 0.294870 0.629350 -0.550493
O26   O     O_R   0.319300 0.705130 0.370650 -0.515981
O27   O     O_R   0.319300 0.294870 0.370650 -0.560600
O28   O     O_R   0.680700 0.705130 0.629350 -0.568649
O29   O     O_R   0.180700 0.794870 0.629350 -0.546125
O30   O     O_R   0.819300 0.205130 0.370650 -0.579896
O31   O     O_R   0.819300 0.794870 0.370650 -0.556228
O32   O     O_R   0.180700 0.205130 0.629350 -0.570846
C1    C     C_R   0.701708 0.267620 0.676567 1.001732
C2    C     C_R   0.298898 0.733550 0.322865 0.963942
C3    C     C_R   0.299023 0.267065 0.322340 1.034678
C4    C     C_R   0.700936 0.734194 0.677014 0.893622
C5    C     C_R   0.201609 0.767818 0.676434 0.973278
C6    C     C_R   0.799395 0.234892 0.322856 0.919414
C7    C     C_R   0.798599 0.767906 0.322880 1.043159
C8    C     C_R   0.200175 0.235523 0.676966 0.946959
C9    C     C_R   0.690933 0.129293 0.534476 0.907267
C10   C     C_R   0.308741 0.870883 0.463714 0.934780
C11   C     C_R   0.308770 0.129954 0.462375 0.933912
C12   C     C_R   0.694377 0.872610 0.523136 0.921867
C13   C     C_R   0.194379 0.628302 0.524825 0.970399
C14   C     C_R   0.806085 0.372182 0.473475 0.975325
C15   C     C_R   0.809044 0.630338 0.462424 0.951950
C16   C     C_R   0.199549 0.371161 0.508476 0.986763
Zn1   Zn    Zn3+2 0.792340 0.208750 0.507670 1.210797
Zn2   Zn    Zn3+2 0.207660 0.791250 0.492330 1.230255
Zn3   Zn    Zn3+2 0.207660 0.208750 0.492330 1.207928
Zn4   Zn    Zn3+2 0.792340 0.791250 0.507670 1.219552
Zn5   Zn    Zn3+2 0.292340 0.708750 0.507670 1.246552
Zn6   Zn    Zn3+2 0.707660 0.291250 0.492330 1.245462
Zn7   Zn    Zn3+2 0.707660 0.708750 0.492330 1.173947
Zn8   Zn    Zn3+2 0.292340 0.291250 0.507670 1.182798
H1    H     H_    0.046256 0.258386 0.479831 0.192697
H2    H     H_    0.970560 0.747173 0.466168 0.206099
H3    H     H_    0.951610 0.261689 0.508641 0.189783
H4    H     H_    0.034975 0.743964 0.525226 0.202183
H5    H     H_    0.575946 0.768685 0.414543 0.193219
H6    H     H_    0.458899 0.245961 0.479708 0.202133
H7    H     H_    0.494726 0.762571 0.400826 0.179653
H8    H     H_    0.521534 0.245224 0.540190 0.211139
C17   C     C_R   0.535262 0.130741 0.528296 -0.035997
C18   C     C_R   0.473861 0.875094 0.427532 -0.017381
C19   C     C_R   0.458882 0.131385 0.463223 -0.032281
C20   C     C_R   0.567648 0.880456 0.449857 0.007357
C21   C     C_R   0.043428 0.628903 0.519197 -0.030659
C22   C     C_R   0.949160 0.376688 0.499003 -0.010613
C23   C     C_R   0.963730 0.632185 0.460564 -0.028267
C24   C     C_R   0.054370 0.373374 0.479443 0.006185
C25   C     C_R   0.511109 0.194777 0.521751 -0.101170
C26   C     C_R   0.505177 0.813524 0.417374 -0.105997
C27   C     C_R   0.475281 0.195393 0.486001 -0.110978
C28   C     C_R   0.552076 0.816641 0.426017 -0.107603
C29   C     C_R   0.021598 0.694191 0.510229 -0.105764
C30   C     C_R   0.973293 0.311185 0.499879 -0.100327
C31   C     C_R   0.984646 0.695971 0.475953 -0.098229
C32   C     C_R   0.027068 0.309363 0.484162 -0.086578
C33   C     C_R   0.480006 0.066886 0.474692 0.030099
C34   C     C_R   0.534217 0.940568 0.469093 0.033301
C35   C     C_R   0.521400 0.067229 0.499920 0.027291
C36   C     C_R   0.488695 0.938782 0.454051 0.021313
C37   C     C_R   0.982150 0.567701 0.477529 0.030839
C38   C     C_R   0.027805 0.438021 0.487518 0.033082
C39   C     C_R   0.025819 0.566295 0.496831 0.028335
C40   C     C_R   0.978323 0.439423 0.486251 0.037230
C41   C     C_R   0.957053 0.504048 0.475716 -0.014041
C42   C     C_R   0.050712 0.501470 0.496153 -0.019615
C43   C     C_R   0.461999 0.002313 0.455705 -0.016810
C44   C     C_R   0.549286 0.004182 0.495250 -0.014531
C45   C     C_R   0.878987 0.441766 0.484279 -0.073871
C46   C     C_R   0.115675 0.562122 0.529367 -0.071913
C47   C     C_R   0.128636 0.436266 0.485402 -0.107751
C48   C     C_R   0.893391 0.567719 0.441130 -0.080510
C49   C     C_R   0.396015 0.936539 0.427851 -0.083855
C50   C     C_R   0.607092 0.067677 0.544353 -0.076497
C51   C     C_R   0.626858 0.943502 0.493772 -0.097356
C52   C     C_R   0.394146 0.066473 0.432204 -0.077940
C53   C     C_R   0.835087 0.439283 0.464023 -0.202480
C54   C     C_R   0.169238 0.562266 0.520472 -0.187529
C55   C     C_R   0.177229 0.436375 0.492858 -0.182209
C56   C     C_R   0.843052 0.566537 0.438307 -0.139525
C57   C     C_R   0.343281 0.936053 0.433547 -0.188947
C58   C     C_R   0.655008 0.066073 0.554329 -0.119219
C59   C     C_R   0.665218 0.939626 0.526728 -0.211172
C60   C     C_R   0.342899 0.065736 0.433257 -0.164427
C61   C     C_R   0.818949 0.501459 0.434876 0.320200
C62   C     C_R   0.202384 0.500366 0.492545 0.295605
C63   C     C_R   0.320018 0.000817 0.423764 0.346852
C64   C     C_R   0.673304 0.000325 0.567319 0.283524
C65   C     C_R   0.910058 0.504442 0.465557 -0.017962
C66   C     C_R   0.098461 0.499974 0.503895 -0.014762
C67   C     C_R   0.417023 0.001656 0.439144 -0.019782
C68   C     C_R   0.593883 0.004955 0.512556 -0.020444
C69   C     C_R   0.109027 0.375480 0.458830 0.369188
C70   C     C_R   0.926156 0.630268 0.426720 0.386110
C71   C     C_R   0.894765 0.382886 0.520010 0.397649
C72   C     C_R   0.080560 0.623311 0.553330 0.396928
C73   C     C_R   0.618756 0.887803 0.445061 0.376162
C74   C     C_R   0.423599 0.130112 0.425725 0.388966
C75   C     C_R   0.430214 0.875392 0.407205 0.383988
C76   C     C_R   0.572439 0.128536 0.562895 0.383749
H9    H     H_    0.640057 0.176675 0.083051 0.227897
H10   H     H_    0.329039 0.747808 0.938227 0.162747
H11   H     H_    0.361678 0.198762 0.900745 0.235419
H12   H     H_    0.668230 0.756507 0.062063 0.176697
H13   H     H_    0.134593 0.686169 0.093925 0.232740
H14   H     H_    0.827176 0.269343 0.949178 0.171276
H15   H     H_    0.863265 0.696513 0.904872 0.237783
H16   H     H_    0.167440 0.261616 0.064148 0.177118
C77   C     C_R   0.699944 0.240396 0.974594 0.141298
C78   C     C_R   0.262476 0.709242 0.060896 0.254104
C79   C     C_R   0.298990 0.245189 0.024176 0.152528
C80   C     C_R   0.734622 0.714772 0.940992 0.231769
C81   C     C_R   0.198535 0.732745 0.972349 0.165003
C82   C     C_R   0.763830 0.214091 0.061572 0.235271
C83   C     C_R   0.799302 0.745134 0.025317 0.137116
C84   C     C_R   0.232946 0.223023 0.939874 0.231131
C85   C     C_R   0.753421 0.266240 0.939116 -0.088662
C86   C     C_R   0.206860 0.693961 0.103802 -0.069004
C87   C     C_R   0.243042 0.261366 0.068661 -0.101136
C88   C     C_R   0.790250 0.699523 0.897731 -0.049184
C89   C     C_R   0.254493 0.748622 0.930362 -0.107726
C90   C     C_R   0.709791 0.191204 0.099930 -0.054928
C91   C     C_R   0.743165 0.759906 0.068419 -0.096239
C92   C     C_R   0.288505 0.207525 0.894730 -0.060948
H17   H     H_    0.770731 0.297462 0.878235 0.191484
H18   H     H_    0.187816 0.672150 0.170858 0.151328
H19   H     H_    0.224423 0.282829 0.135948 0.207432
H20   H     H_    0.808956 0.675243 0.831917 0.172046
H21   H     H_    0.273936 0.771520 0.863923 0.164809
H22   H     H_    0.692299 0.162117 0.162454 0.157968
H23   H     H_    0.723913 0.783444 0.134616 0.211026
H24   H     H_    0.306570 0.185204 0.827859 0.163090
C93   C     C_R   0.785728 0.250560 0.979701 -0.014661
C94   C     C_R   0.175823 0.703576 0.059388 -0.023650
C95   C     C_R   0.210353 0.249649 0.027618 -0.017756
C96   C     C_R   0.821904 0.713510 0.939644 -0.005154
C97   C     C_R   0.286164 0.735646 0.973023 -0.020345
C98   C     C_R   0.679184 0.201287 0.054985 -0.004998
C99   C     C_R   0.711160 0.744376 0.027259 -0.023356
C100  C     C_R   0.320662 0.216849 0.936839 -0.015405
C101  C     C_R   0.621361 0.295589 0.959417 0.268730
C102  C     C_R   0.333711 0.639236 0.079503 0.339803
C103  C     C_R   0.379670 0.298028 0.036391 0.258078
C104  C     C_R   0.663617 0.644469 0.923058 0.347301
C105  C     C_R   0.120367 0.794003 0.959113 0.259743
C106  C     C_R   0.834790 0.142941 0.079350 0.349790
C107  C     C_R   0.878349 0.800996 0.039592 0.323237
C108  C     C_R   0.162267 0.149426 0.923973 0.343204
C109  C     C_R   0.612765 0.342038 0.901232 -0.255138
C110  C     C_R   0.372879 0.637262 0.111154 -0.296741
C111  C     C_R   0.389138 0.341570 0.095517 -0.261847
C112  C     C_R   0.624987 0.641549 0.890246 -0.300289
C113  C     C_R   0.113423 0.842661 0.900843 -0.261161
C114  C     C_R   0.874092 0.140268 0.110982 -0.301634
C115  C     C_R   0.886334 0.846110 0.099259 -0.281024
C116  C     C_R   0.124073 0.143425 0.890444 -0.304795
C117  C     C_R   0.644625 0.336796 0.809124 0.152821
C118  C     C_R   0.365780 0.678375 0.184022 0.201280
C119  C     C_R   0.357995 0.335490 0.187318 0.160934
C120  C     C_R   0.632121 0.683500 0.817477 0.191835
C121  C     C_R   0.146322 0.838479 0.808939 0.171586
C122  C     C_R   0.867495 0.182403 0.183297 0.179766
C123  C     C_R   0.854442 0.841026 0.191501 0.187766
C124  C     C_R   0.130953 0.183834 0.816594 0.179798
C125  C     C_R   0.678652 0.278140 0.773522 -0.337176
C126  C     C_R   0.320229 0.720495 0.226116 -0.253593
C127  C     C_R   0.323290 0.278277 0.223404 -0.278378
C128  C     C_R   0.678774 0.723848 0.774285 -0.259236
C129  C     C_R   0.177842 0.777996 0.773385 -0.316908
C130  C     C_R   0.821698 0.224336 0.225515 -0.243943
C131  C     C_R   0.821697 0.781492 0.225511 -0.274052
C132  C     C_R   0.176308 0.226591 0.774582 -0.264252
C133  C     C_R   0.693057 0.236427 0.830745 0.339526
C134  C     C_R   0.291258 0.739829 0.178537 0.324870
C135  C     C_R   0.310442 0.237760 0.163691 0.359061
C136  C     C_R   0.708450 0.742440 0.820850 0.348867
C137  C     C_R   0.188821 0.732115 0.830572 0.318575
C138  C     C_R   0.792591 0.244055 0.178417 0.328696
C139  C     C_R   0.809802 0.740182 0.165230 0.360741
C140  C     C_R   0.203851 0.248945 0.822646 0.349264
C141  C     C_R   0.668901 0.253548 0.923198 -0.134810
C142  C     C_R   0.296050 0.696050 0.106970 -0.202828
C143  C     C_R   0.331956 0.257245 0.072736 -0.115268
C144  C     C_R   0.701305 0.700914 0.895148 -0.195208
C145  C     C_R   0.166397 0.748684 0.922837 -0.113856
C146  C     C_R   0.797348 0.200196 0.107085 -0.213399
C147  C     C_R   0.831066 0.760012 0.075001 -0.088950
C148  C     C_R   0.198423 0.207921 0.896335 -0.197056
O33   O     O_R   0.062020 0.072840 0.007170 -0.566790
O34   O     O_R   0.937980 0.927160 0.992830 -0.570281
O35   O     O_R   0.937980 0.072840 0.992830 -0.569516
O36   O     O_R   0.062020 0.927160 0.007170 -0.566680
O37   O     O_R   0.562020 0.572840 0.007170 -0.565089
O38   O     O_R   0.437980 0.427160 0.992830 -0.569016
O39   O     O_R   0.437980 0.572840 0.992830 -0.578129
O40   O     O_R   0.562020 0.427160 0.007170 -0.566268
O41   O     O_R   0.947860 0.073950 0.109290 -0.579133
O42   O     O_R   0.052140 0.926050 0.890710 -0.569402
O43   O     O_R   0.052140 0.073950 0.890710 -0.582294
O44   O     O_R   0.947860 0.926050 0.109290 -0.565770
O45   O     O_R   0.447860 0.573950 0.109290 -0.567639
O46   O     O_R   0.552140 0.426050 0.890710 -0.569105
O47   O     O_R   0.552140 0.573950 0.890710 -0.580327
O48   O     O_R   0.447860 0.426050 0.109290 -0.558952
C149  C     C_R   0.077966 0.094684 0.930217 0.976866
C150  C     C_R   0.926315 0.900856 0.065686 1.062632
C151  C     C_R   0.921438 0.093591 0.070301 0.984719
C152  C     C_R   0.073749 0.899885 0.934337 1.037712
C153  C     C_R   0.578031 0.594427 0.930233 0.992739
C154  C     C_R   0.428857 0.397736 0.062916 1.048536
C155  C     C_R   0.420513 0.591513 0.070943 1.012707
C156  C     C_R   0.572995 0.399079 0.935006 1.030193
Zn9   Zn    Zn3+2 0.505960 0.500000 0.080520 1.262401
Zn10  Zn    Zn3+2 0.494040 0.500000 0.919480 1.255874
Zn11  Zn    Zn3+2 0.005960 0.000000 0.080520 1.256908
Zn12  Zn    Zn3+2 0.994040 0.000000 0.919480 1.251322
S1    S     S_3+6 0.764929 0.497699 0.403329 0.119022
O49   O     O_2   0.776141 0.437760 0.338621 -0.195527
O50   O     O_2   0.712144 0.484851 0.487042 -0.265243
O51   O     O_3   0.754025 0.568503 0.355674 -0.428533
H25   H     H_    0.714304 0.569085 0.377953 0.393839
S2    S     S_3+6 0.275800 0.503532 0.451772 0.102926
O52   O     O_2   0.300126 0.561128 0.382679 -0.245785
O53   O     O_2   0.286197 0.518572 0.529630 -0.242178
O54   O     O_3   0.310886 0.430515 0.404079 -0.459021
H26   H     H_    0.338475 0.426759 0.424816 0.401039
S3    S     S_3+6 0.260080 0.998546 0.406672 0.124047
O55   O     O_2   0.264499 0.937794 0.346373 -0.185991
O56   O     O_2   0.211073 0.988243 0.496732 -0.266074
O57   O     O_3   0.246513 0.069483 0.361932 -0.427862
H27   H     H_    0.206952 0.067177 0.383020 0.392256
S4    S     S_3+6 0.681228 0.991513 0.664092 0.151971
O58   O     O_2   0.740296 0.984427 0.638015 -0.197742
O59   O     O_2   0.658282 0.056105 0.722187 -0.175086
O60   O     O_3   0.645983 0.920871 0.724793 -0.463521
H28   H     H_    0.666726 0.878183 0.692925 0.345580
S5    S     S_3+6 0.153145 0.326595 0.362007 0.029047
O61   O     O_2   0.153394 0.249922 0.386742 -0.236706
O62   O     O_2   0.132588 0.330318 0.294749 -0.298757
O63   O     O_3   0.216079 0.360521 0.315238 -0.588324
H29   H     H_    0.213243 0.407280 0.290789 0.372258
S6    S     S_3+6 0.936221 0.692525 0.341048 0.082432
O64   O     O_2   0.916037 0.764850 0.381109 -0.259612
O65   O     O_2   0.995995 0.697365 0.278207 -0.201989
O66   O     O_3   0.904580 0.666439 0.282911 -0.538843
H30   H     H_    0.916532 0.700583 0.232654 0.402479
S7    S     S_3+6 0.848633 0.348217 0.626462 0.048300
O67   O     O_2   0.846286 0.268772 0.619512 -0.239078
O68   O     O_2   0.868991 0.365598 0.691849 -0.282224
O69   O     O_3   0.786579 0.383898 0.663512 -0.556986
H31   H     H_    0.768570 0.377749 0.729307 0.384967
S8    S     S_3+6 0.064464 0.672445 0.652827 0.061619
O70   O     O_2   0.078442 0.749667 0.630834 -0.260289
O71   O     O_2   0.004553 0.666647 0.714323 -0.248964
O72   O     O_3   0.097826 0.639876 0.705365 -0.544033
H32   H     H_    0.089713 0.673577 0.755113 0.380862
S9    S     S_3+6 0.673857 0.863253 0.340851 0.012884
O73   O     O_2   0.676739 0.783758 0.331585 -0.270292
O74   O     O_2   0.664682 0.893432 0.267048 -0.282367
O75   O     O_3   0.732355 0.895601 0.330217 -0.569210
H33   H     H_    0.729622 0.947779 0.324720 0.380127
S10   S     S_3+6 0.435743 0.193278 0.339916 0.089024
O76   O     O_2   0.415721 0.265650 0.379929 -0.268606
O77   O     O_2   0.495848 0.197337 0.279321 -0.192816
O78   O     O_3   0.405368 0.168499 0.279294 -0.540312
H34   H     H_    0.419128 0.202028 0.228214 0.398065
S11   S     S_3+6 0.433026 0.812792 0.326686 0.079896
O79   O     O_2   0.396776 0.833792 0.287742 -0.257426
O80   O     O_2   0.490388 0.809120 0.251898 -0.244447
O81   O     O_3   0.414794 0.732594 0.376181 -0.516051
H35   H     H_    0.447115 0.701681 0.345076 0.384753
S12   S     S_3+6 0.561458 0.189631 0.650828 0.085603
O82   O     O_2   0.582257 0.262130 0.612599 -0.267026
O83   O     O_2   0.501510 0.195060 0.712425 -0.204226
O84   O     O_3   0.591719 0.162390 0.710584 -0.521222
H36   H     H_    0.582188 0.198928 0.757881 0.397695
S13   S     S_3+6 0.568330 0.276495 0.069252 0.076584
O85   O     O_2   0.584231 0.301838 0.137565 -0.206961
O86   O     O_2   0.515259 0.310083 0.088601 -0.289200
O87   O     O_3   0.558004 0.188027 0.079169 -0.504575
H37   H     H_    0.548822 0.175168 0.031322 0.370064
S14   S     S_3+6 0.329733 0.569777 0.010533 0.049296
O88   O     O_2   0.369920 0.584356 0.914544 -0.260139
O89   O     O_2   0.342674 0.499560 0.038360 -0.290518
O90   O     O_3   0.267527 0.563350 0.019367 -0.545854
H38   H     H_    0.270738 0.525749 0.976136 0.395061
S15   S     S_3+6 0.433824 0.277512 0.927975 0.070241
O91   O     O_2   0.422203 0.309032 0.857447 -0.211787
O92   O     O_2   0.487320 0.305204 0.914845 -0.303385
O93   O     O_3   0.440161 0.188543 0.915392 -0.497622
H39   H     H_    0.446196 0.171782 0.965338 0.371632
S16   S     S_3+6 0.668251 0.575454 0.992134 0.056538
O94   O     O_2   0.627579 0.589791 0.088028 -0.257776
O95   O     O_2   0.656514 0.504670 0.963790 -0.291118
O96   O     O_3   0.730282 0.570194 0.984238 -0.538269
H40   H     H_    0.727712 0.531322 0.025486 0.393971
S17   S     S_3+6 0.065434 0.774625 0.066889 0.078573
O97   O     O_2   0.077957 0.802540 0.138072 -0.214555
O98   O     O_2   0.012864 0.806382 0.080663 -0.278653
O99   O     O_3   0.056336 0.685928 0.077629 -0.502043
H41   H     H_    0.049382 0.671566 0.027801 0.373789
S18   S     S_3+6 0.831635 0.075045 0.007501 0.053898
O100  O     O_2   0.872872 0.091109 0.912538 -0.270581
O101  O     O_2   0.843973 0.003931 0.034178 -0.284992
O102  O     O_3   0.770354 0.068915 0.012797 -0.535844
H42   H     H_    0.775072 0.034120 0.965721 0.411927
S19   S     S_3+6 0.934130 0.776275 0.934584 0.065270
O103  O     O_2   0.925675 0.804349 0.859189 -0.237738
O104  O     O_2   0.986974 0.803947 0.924520 -0.313131
O105  O     O_3   0.938666 0.686770 0.929227 -0.523720
H43   H     H_    0.977659 0.675993 0.891393 0.412409
S20   S     S_3+6 0.167940 0.081941 0.993792 0.055061
O106  O     O_2   0.127237 0.096703 0.089541 -0.247536
O107  O     O_2   0.156955 0.010121 0.966732 -0.294921
O108  O     O_3   0.230101 0.078815 0.985563 -0.538987
H44   H     H_    0.228856 0.038403 0.023962 0.396123
N1    N     N_R   0.644858 0.393648 0.751877 0.239036
O109  O     O_R   0.673867 0.450168 0.742322 -0.351395
O110  O     O_R   0.610627 0.393521 0.720207 -0.266565
N2    N     N_R   0.405767 0.678811 0.214116 0.263009
O111  O     O_R   0.404771 0.628985 0.268229 -0.292858
O112  O     O_R   0.450838 0.712839 0.166529 -0.296445
N3    N     N_R   0.362252 0.389002 0.243057 0.259736
O113  O     O_R   0.346002 0.453081 0.237796 -0.318444
O114  O     O_R   0.398616 0.380807 0.269705 -0.285941
N4    N     N_R   0.592066 0.686380 0.787213 0.234668
O115  O     O_R   0.589396 0.635723 0.736989 -0.307373
O116  O     O_R   0.566631 0.745945 0.793921 -0.338235
N5    N     N_R   0.149551 0.897121 0.751933 0.228324
O117  O     O_R   0.190120 0.941048 0.724539 -0.378323
O118  O     O_R   0.115654 0.902225 0.719887 -0.271598
N6    N     N_R   0.907703 0.184833 0.213297 0.236321
O119  O     O_R   0.910129 0.134368 0.263902 -0.309757
O120  O     O_R   0.933749 0.243884 0.205619 -0.348472
N7    N     N_R   0.856659 0.895568 0.249603 0.246626
O121  O     O_R   0.836741 0.958225 0.249702 -0.373835
O122  O     O_R   0.890830 0.889318 0.280986 -0.277845
N8    N     N_R   0.091998 0.182680 0.783930 0.238708
O123  O     O_R   0.091862 0.130345 0.733611 -0.305768
O124  O     O_R   0.064785 0.240253 0.789031 -0.344718
S21   S     S_3+6 0.738068 0.160930 0.795398 0.106418
O125  O     O_2   0.719119 0.108625 0.871327 -0.260064
O126  O     O_2   0.740598 0.122813 0.716006 -0.176391
O127  O     O_3   0.801011 0.187271 0.769948 -0.506917
H45   H     H_    0.820216 0.143295 0.771201 0.401424
S22   S     S_3+6 0.263008 0.826941 0.191792 0.080065
O128  O     O_2   0.210833 0.832688 0.277886 -0.242639
O129  O     O_2   0.304004 0.877867 0.192589 -0.202237
O130  O     O_3   0.250759 0.851102 0.107642 -0.564197
H46   H     H_    0.238563 0.901326 0.120315 0.394606
S23   S     S_3+6 0.286191 0.150374 0.187372 0.089988
O131  O     O_2   0.320812 0.112343 0.219710 -0.225476
O132  O     O_2   0.227453 0.151425 0.256237 -0.222025
O133  O     O_3   0.292516 0.107436 0.095867 -0.530038
H47   H     H_    0.281772 0.057686 0.115565 0.399725
S24   S     S_3+6 0.753376 0.817237 0.789347 0.079063
O134  O     O_2   0.809975 0.792307 0.726907 -0.298270
O135  O     O_2   0.736967 0.872598 0.743376 -0.191709
O136  O     O_3   0.752790 0.855929 0.879283 -0.536015
H48   H     H_    0.783865 0.889231 0.854645 0.403492
S25   S     S_3+6 0.224581 0.650023 0.792615 0.074575
O137  O     O_2   0.206736 0.612438 0.732761 -0.232249
O138  O     O_2   0.284426 0.664391 0.741516 -0.275054
O139  O     O_3   0.212056 0.596703 0.879910 -0.519702
H49   H     H_    0.235085 0.554127 0.853236 0.398340
S26   S     S_3+6 0.763678 0.331467 0.192744 0.079121
O140  O     O_2   0.715120 0.340185 0.283285 -0.225173
O141  O     O_2   0.807075 0.382998 0.182831 -0.218123
O142  O     O_3   0.744072 0.353599 0.116467 -0.562974
H50   H     H_    0.734662 0.404853 0.126698 0.394515
S27   S     S_3+6 0.788315 0.651566 0.186361 0.096570
O143  O     O_2   0.825191 0.615279 0.215364 -0.212593
O144  O     O_2   0.729906 0.649675 0.256575 -0.254607
O145  O     O_3   0.794491 0.608888 0.094780 -0.518193
H51   H     H_    0.783916 0.559050 0.114214 0.401337
S28   S     S_3+6 0.241423 0.330045 0.795174 0.065784
O146  O     O_2   0.300401 0.313788 0.735586 -0.288267
O147  O     O_2   0.221467 0.379696 0.747572 -0.229125
O148  O     O_3   0.234275 0.370777 0.888505 -0.548719
H52   H     H_    0.260343 0.410800 0.866997 0.389161

loop_
_geom_bond_atom_site_label_1
_geom_bond_atom_site_label_2
_geom_bond_distance
_ccdc_geom_bond_type
O4    C4    1.255234 A    
O5    C5    1.255135 A    
C134  C142  1.418470 A    
O45   Zn9   2.013420 S    
C59   C64   1.404409 A    
S11   O79   1.502780 D    
C135  S23   1.749910 S    
O31   Zn4   2.077765 S    
C107  C115  1.416574 A    
O8    Zn8   2.031156 S    
O33   C149  1.233543 A    
S13   O85   1.502562 D    
S9    O75   1.676496 S    
C118  N2    1.434487 S    
C84   C148  1.496424 S    
C81   C94   1.413594 A    
C106  C114  1.436193 A    
O75   H33   0.990598 S    
C84   C95   1.404277 A    
C38   C40   1.396732 A    
C131  C139  1.442790 A    
S7    O67   1.500453 D    
S4    O60   1.684857 S    
C129  C137  1.435884 A    
O51   H25   0.991239 S    
O30   C6    1.307330 A    
C1    C125  1.467922 S    
O69   H31   0.990445 S    
C105  C113  1.426002 A    
C117  N1    1.441916 S    
C33   C35   1.413638 A    
O99   H41   0.990654 S    
C104  C144  1.411908 A    
S18   O100  1.503373 D    
C36   C43   1.400125 A    
O7    Zn7   2.031156 S    
C49   C67   1.409732 A    
C91   H23   1.082688 S    
C51   C73   1.416291 A    
C49   C57   1.434087 A    
O2    C2    1.254661 A    
C87   H19   1.082707 S    
C136  C144  1.414432 A    
C110  C155  1.454816 S    
C25   C27   1.397305 A    
C52   C67   1.405387 A    
C86   C94   1.406096 A    
O127  H45   0.990536 S    
N5    O118  1.302163 A    
C29   C31   1.407621 A    
O47   C153  1.259043 A    
C41   C65   1.406446 A    
C102  C110  1.432529 A    
C37   C39   1.408597 A    
C38   C42   1.394436 A    
C45   C53   1.425995 A    
C51   C68   1.415387 A    
S26   O141  1.501128 D    
O27   C3    1.307228 A    
O93   H39   0.990911 S    
C7    C131  1.483824 S    
S16   O94   1.503241 D    
O24   C16   1.289033 A    
O34   Zn12  2.011134 S    
C24   C38   1.395077 A    
C90   H22   1.083193 S    
C2    C126  1.476974 S    
C140  C148  1.414869 A    
S18   O102  1.680197 S    
S14   O88   1.503173 D    
C44   C68   1.412447 A    
H2    C31   1.081096 S    
C85   C93   1.403611 A    
S12   O82   1.503294 D    
O30   Zn1   2.077552 S    
C34   C36   1.414600 A    
C48   C56   1.433733 A    
C107  S19   1.786032 S    
H6    C27   1.081120 S    
O38   Zn10  2.011134 S    
O136  H48   0.990551 S    
C122  N6    1.439941 S    
C111  C119  1.383278 A    
S13   O87   1.681671 S    
C125  C133  1.445926 A    
C112  C120  1.397691 A    
C15   C56   1.461598 S    
S10   O78   1.681897 S    
C102  C142  1.413442 A    
S20   O106  1.503104 D    
C20   C73   1.402093 A    
S23   O131  1.501442 D    
O23   Zn7   2.035491 S    
H7    C26   1.076352 S    
O24   Zn8   2.035491 S    
C71   S7    1.774717 S    
O142  H50   0.990679 S    
O9    C9    1.261975 A    
C50   C58   1.430611 A    
C60   C63   1.422417 A    
C121  N5    1.440742 S    
O12   C12   1.271412 A    
S21   O125  1.504114 D    
O13   C13   1.264128 A    
C16   C55   1.454551 S    
C89   C97   1.406645 A    
C11   C60   1.469627 S    
C128  C136  1.435376 A    
N4    O115  1.302357 A    
C78   C142  1.501142 S    
C13   C54   1.446207 S    
C114  C122  1.396019 A    
O48   Zn9   2.017948 S    
C124  N8    1.439394 S    
C40   C41   1.399453 A    
C46   C54   1.435176 A    
S17   O97   1.502640 D    
N7    O121  1.300974 A    
O7    C7    1.263453 A    
O9    Zn6   2.141606 S    
O8    C8    1.260921 A    
O133  H47   0.990604 S    
C101  C141  1.412275 A    
O11   Zn8   2.137922 S    
S24   O134  1.503477 D    
S25   O138  1.503253 D    
S10   O77   1.502707 D    
H11   C100  1.068699 S    
C21   C29   1.409302 A    
H9    C98   1.072082 S    
O16   Zn3   2.137922 S    
C110  C118  1.388978 A    
C23   C31   1.411826 A    
S22   O128  1.502651 D    
C113  C121  1.387471 A    
O22   Zn6   2.039741 S    
C47   C69   1.429729 A    
C42   C66   1.404914 A    
C50   C76   1.433017 A    
O54   H26   0.991830 S    
C26   C28   1.390677 A    
O41   Zn11  2.013420 S    
H14   C93   1.082947 S    
S11   O80   1.504849 D    
O18   C10   1.284948 A    
S5    O61   1.501004 D    
C137  S25   1.782241 S    
N8    O123  1.302537 A    
C18   C26   1.410303 A    
O46   C156  1.256382 A    
S1    O49   1.497023 D    
C17   C76   1.417862 A    
O2    Zn2   2.029064 S    
C46   C72   1.438595 A    
S12   O84   1.679973 S    
O63   H29   0.990477 S    
S4    O59   1.500345 D    
H8    C25   1.080600 S    
O6    C6    1.254323 A    
C104  S16   1.793436 S    
C109  C156  1.451481 S    
C79   C87   1.412612 A    
O42   C152  1.257016 A    
C138  S26   1.793786 S    
H1    C32   1.082283 S    
C139  C147  1.405386 A    
C73   S9    1.769664 S    
S20   O108  1.680627 S    
H3    C30   1.082427 S    
C137  C145  1.417399 A    
H13   C94   1.069854 S    
O20   C12   1.292255 A    
C47   C55   1.425597 A    
C72   S8    1.783121 S    
O21   C13   1.278357 A    
N1    O110  1.302582 A    
H5    C28   1.081774 S    
C14   C53   1.467674 S    
C116  C149  1.463141 S    
C52   C60   1.427343 A    
H16   C95   1.082864 S    
O23   C15   1.286624 A    
C92   C100  1.401089 A    
O39   C155  1.226070 A    
C106  S18   1.794362 S    
S21   O127  1.679940 S    
O17   Zn1   2.039741 S    
O105  H43   0.990364 S    
S3    O57   1.663892 S    
C119  N3    1.422775 S    
O47   Zn10  2.017947 S    
C82   C146  1.494252 S    
C136  S24   1.792380 S    
C112  C153  1.460525 S    
C106  C146  1.415997 A    
O3    C3    1.265559 A    
S17   O99   1.682384 S    
N6    O120  1.300782 A    
O78   H34   0.990672 S    
S6    O65   1.502658 D    
S24   O136  1.682674 S    
C19   C33   1.400742 A    
S15   O92   1.500842 D    
C19   C27   1.405197 A    
O37   Zn9   2.011134 S    
C108  S20   1.793033 S    
C79   C143  1.518089 S    
S23   O133  1.681982 S    
C104  C112  1.433588 A    
S2    O52   1.502116 D    
C3    C127  1.498128 S    
C4    C128  1.475584 S    
C122  C130  1.379786 A    
S8    O71   1.502973 D    
S28   O146  1.503327 D    
S6    O66   1.681716 S    
S5    O63   1.680176 S    
C20   C28   1.399384 A    
C118  C126  1.376937 A    
C78   C97   1.405079 A    
S1    O51   1.658145 S    
C20   C34   1.401392 A    
C24   C32   1.407719 A    
C91   C99   1.403819 A    
C82   C90   1.403285 A    
C103  C111  1.413171 A    
S19   O105  1.684471 S    
O12   Zn7   2.137922 S    
O13   Zn2   2.141606 S    
N2    O111  1.302529 A    
C18   C75   1.419036 A    
S18   O101  1.501767 D    
C45   C71   1.427867 A    
C76   S12   1.788325 S    
C63   S3    1.834952 S    
O25   C1    1.302523 A    
S2    O54   1.655505 S    
S7    O69   1.681004 S    
C19   C74   1.406580 A    
O10   C10   1.282520 A    
C133  C141  1.419427 A    
C123  N7    1.442730 S    
C77   C98   1.410585 A    
C113  C152  1.452319 S    
N5    O117  1.300606 A    
S3    O55   1.497076 D    
O14   C14   1.275118 A    
C90   C98   1.404252 A    
C102  S14   1.790224 S    
C81   C89   1.413383 A    
O6    Zn6   2.029064 S    
O81   H35   0.990055 S    
S27   O145  1.682195 S    
C64   S4    1.766015 S    
C115  C123  1.390174 A    
C47   C66   1.410221 A    
C53   C61   1.422408 A    
C130  C138  1.434442 A    
C34   C44   1.407363 A    
S16   O95   1.502191 D    
O102  H42   0.990596 S    
O10   Zn5   2.141606 S    
C116  C124  1.398739 A    
C117  C125  1.391534 A    
S14   O89   1.501535 D    
O72   H32   0.990728 S    
C120  C128  1.384223 A    
H10   C97   1.082889 S    
C75   S11   1.774771 S    
C21   C39   1.395830 A    
C69   S5    1.771665 S    
C108  C116  1.434693 A    
S12   O83   1.503035 D    
C57   C63   1.425259 A    
C109  C117  1.388020 A    
O66   H30   0.990713 S    
C134  S22   1.783000 S    
C120  N4    1.439304 S    
C84   C92   1.400782 A    
S28   O148  1.682291 S    
C140  S28   1.785061 S    
O19   C11   1.278481 A    
S13   O86   1.499939 D    
S14   O90   1.681398 S    
C9    C58   1.489755 S    
O1    C1    1.251392 A    
O25   Zn6   2.077552 S    
S20   O107  1.502942 D    
N3    O113  1.303812 A    
C80   C144  1.494150 S    
C37   C41   1.395489 A    
O27   Zn8   2.077765 S    
C108  C148  1.416732 A    
N1    O109  1.300667 A    
C133  S21   1.798685 S    
C103  S15   1.785039 S    
C6    C130  1.476123 S    
C81   C145  1.523857 S    
O84   H36   0.990721 S    
O32   Zn3   2.077765 S    
O57   H27   0.991253 S    
O44   C150  1.248652 A    
C78   C86   1.402480 A    
O108  H44   0.990469 S    
S8    O72   1.682467 S    
C61   S1    1.830184 S    
C12   C59   1.484518 S    
C45   C65   1.409276 A    
O15   Zn4   2.137922 S    
N4    O116  1.300751 A    
O22   C14   1.277858 A    
C83   C96   1.411345 A    
C55   C62   1.392869 A    
O40   Zn9   2.005949 S    
C54   C62   1.419958 A    
S9    O74   1.503714 D    
O37   C153  1.231445 A    
O34   C150  1.223852 A    
C126  C134  1.436177 A    
S24   O135  1.496660 D    
S25   O137  1.503570 D    
O5    Zn5   2.029064 S    
O3    Zn3   2.031156 S    
S22   O129  1.500767 D    
S27   O143  1.501163 D    
C87   C95   1.406003 A    
S26   O140  1.501987 D    
C51   C59   1.429001 A    
C21   C72   1.413908 A    
C77   C85   1.410926 A    
C88   C96   1.399733 A    
C86   H18   1.083207 S    
C114  C151  1.459907 S    
C80   C88   1.401235 A    
S10   O76   1.502495 D    
N8    O124  1.300740 A    
O42   Zn12  2.013421 S    
C43   C67   1.414984 A    
C30   C32   1.400290 A    
C10   C57   1.493950 S    
S22   O130  1.681435 S    
S3    O56   1.506958 D    
O96   H40   0.990543 S    
C33   C43   1.408608 A    
O28   C4    1.306984 A    
C88   H20   1.083235 S    
C39   C42   1.399162 A    
O29   C5    1.297117 A    
O35   Zn12  2.005947 S    
C92   H24   1.083340 S    
C77   C141  1.515291 S    
O43   C149  1.258798 A    
C5    C129  1.465355 S    
C80   C99   1.403355 A    
S16   O96   1.681125 S    
S15   O91   1.502724 D    
O46   Zn10  2.013421 S    
C22   C30   1.406028 A    
C79   C100  1.411732 A    
O148  H52   0.990555 S    
O15   C15   1.269995 A    
S19   O103  1.502830 D    
C22   C40   1.392280 A    
O16   C16   1.263131 A    
S26   O142  1.680262 S    
C46   C66   1.407133 A    
C85   H17   1.083232 S    
C58   C64   1.393158 A    
O90   H38   0.990541 S    
C35   C44   1.398641 A    
C83   C91   1.411819 A    
O4    Zn4   2.031156 S    
O35   C151  1.231219 A    
O18   Zn2   2.039741 S    
O39   Zn10  2.005947 S    
C48   C70   1.439997 A    
C127  C135  1.442345 A    
O43   Zn12  2.017947 S    
S21   O126  1.496627 D    
C56   C61   1.411687 A    
C17   C35   1.408185 A    
O14   Zn1   2.141606 S    
C101  C109  1.421098 A    
C17   C25   1.408812 A    
C70   S6    1.781889 S    
O26   C2    1.306795 A    
S17   O98   1.499862 D    
C24   C69   1.400392 A    
O11   C11   1.280233 A    
O48   C154  1.257992 A    
S25   O139  1.682533 S    
C89   H21   1.082716 S    
C62   S2    1.834208 S    
C23   C37   1.398079 A    
C138  C146  1.416411 A    
O28   Zn7   2.077765 S    
O29   Zn2   2.077552 S    
S23   O132  1.500442 D    
S2    O53   1.508065 D    
H4    C29   1.081670 S    
O45   C155  1.261298 A    
S11   O81   1.683040 S    
O38   C154  1.224127 A    
S28   O147  1.503867 D    
S5    O62   1.503908 D    
O139  H49   0.990546 S    
C83   C147  1.513942 S    
S9    O73   1.498959 D    
C101  S13   1.785593 S    
H12   C99   1.082961 S    
S1    O50   1.507978 D    
C103  C143  1.405989 A    
N3    O114  1.304589 A    
C107  C147  1.399300 A    
C132  C140  1.426047 A    
C50   C68   1.415973 A    
C22   C71   1.395444 A    
C111  C154  1.441667 S    
C105  C145  1.417401 A    
S4    O58   1.502319 D    
O41   C151  1.258998 A    
C135  C143  1.413970 A    
N7    O122  1.302489 A    
C139  S27   1.749310 S    
S8    O70   1.503300 D    
C115  C150  1.427002 S    
S19   O104  1.501325 D    
C49   C75   1.427065 A    
O87   H37   0.990652 S    
N2    O112  1.300822 A    
O60   H28   0.986174 S    
O26   Zn5   2.077552 S    
C8    C132  1.473140 S    
S7    O68   1.504126 D    
C105  S17   1.783625 S    
C23   C70   1.418426 A    
C123  C131  1.388319 A    
O36   Zn11  2.005949 S    
O40   C156  1.230280 A    
C121  C129  1.387158 A    
O33   Zn11  2.011134 S    
C119  C127  1.383889 A    
C74   S10   1.782594 S    
O20   Zn4   2.035491 S    
O130  H46   0.990646 S    
O21   Zn5   2.039741 S    
S27   O144  1.500366 D    
C82   C93   1.403822 A    
N6    O119  1.302477 A    
O36   C152  1.229297 A    
O31   C7    1.302121 A    
C52   C74   1.427859 A    
O32   C8    1.301646 A    
H15   C96   1.069177 S    
C48   C65   1.408528 A    
O44   Zn11  2.017948 S    
O17   C9    1.305289 A    
S6    O64   1.502660 D    
C18   C36   1.408405 A    
O19   Zn3   2.035491 S    
C124  C132  1.383286 A    
S15   O93   1.682526 S    
O145  H51   0.990609 S    
O1    Zn1   2.029064 S    
