data_mof_unit_67571.cif
_audit_creation_date              2013-03-05T15:41:22-0500
_audit_creation_method            fapswitch 2.2
_symmetry_space_group_name_H-M    P1
_symmetry_Int_Tables_number       1
_space_group_crystal_system       triclinic
_cell_length_a                    10.637964
_cell_length_b                    8.661511
_cell_length_c                    7.549058
_cell_angle_alpha                 102.354134
_cell_angle_beta                  95.617492
_cell_angle_gamma                 93.518157
_cell_volume                      673.77860342

loop_
_atom_site_label
_atom_site_type_symbol
_atom_site_description
_atom_site_fract_x
_atom_site_fract_y
_atom_site_fract_z
_atom_type_partial_charge
O1    O     O_R   0.509190 0.286130 0.619780 -0.575450
O2    O     O_R   0.490810 0.713870 0.380220 -0.570077
O3    O     O_R   0.485310 0.256770 0.308360 -0.534616
O4    O     O_R   0.514690 0.743230 0.691640 -0.540152
C1    C     C_R   0.491341 0.200220 0.454386 0.895389
C2    C     C_R   0.506663 0.799753 0.545625 0.867816
O5    O     O_R   0.328790 0.514640 0.655680 -0.584269
O6    O     O_R   0.671210 0.485360 0.344320 -0.577401
O7    O     O_R   0.304910 0.485280 0.344260 -0.553696
O8    O     O_R   0.695090 0.514720 0.655740 -0.559631
C3    C     C_R   0.259967 0.496500 0.499543 0.886197
C4    C     C_R   0.740174 0.503081 0.500387 0.908088
Cu1   Cu    Cu3+1 0.514140 0.517380 0.684380 1.134864
Cu2   Cu    Cu3+1 0.485860 0.482620 0.315620 1.142919
N1    N     N_2   0.464560 0.456420 0.038510 0.009793
N2    N     N_2   0.535440 0.543580 0.961490 0.008745
C5    C     C_3   0.048248 0.433105 0.639011 -0.396014
C6    C     C_3   0.952535 0.564092 0.360306 -0.388612
C7    C     C_3   0.948772 0.352014 0.478401 0.246552
C8    C     C_3   0.052083 0.645153 0.520933 0.253235
H1    H     H_    0.087174 0.377983 0.749838 0.233573
H2    H     H_    0.912647 0.618964 0.249895 0.229643
C9    C     C_3   0.876625 0.502080 0.500360 -0.221918
C10   C     C_3   0.123679 0.495155 0.499144 -0.216244
C11   C     C_3   0.976550 0.585487 0.658963 0.431502
C12   C     C_3   0.024158 0.412020 0.340622 0.444662
C13   C     C_2   0.476307 0.032295 0.432491 -0.187451
C14   C     C_2   0.520347 0.967611 0.567687 -0.206278
H3    H     H_    0.425239 0.962137 0.307015 0.214986
H4    H     H_    0.571795 0.037720 0.692860 0.211632
N3    N     N_R   0.894415 0.189183 0.452500 0.134429
O9    O     O_R   0.965885 0.072786 0.415089 -0.255737
O10   O     O_R   0.774672 0.158736 0.463097 -0.394369
N4    N     N_R   0.113326 0.804195 0.541047 0.153238
O11   O     O_R   0.095333 0.917824 0.677265 -0.281327
O12   O     O_R   0.181199 0.834993 0.416649 -0.378472
O13   O     O_3   0.944172 0.681216 0.821424 -0.542065
C15   C     C_3   0.048491 0.705664 0.957681 -0.107067
H5    H     H_    0.137782 0.746006 0.909581 0.186244
H6    H     H_    0.062406 0.596099 0.008427 0.150239
H7    H     H_    0.028591 0.799383 0.074256 0.235193
O14   O     O_3   0.057995 0.318055 0.177996 -0.540074
C16   C     C_3   0.949291 0.271676 0.050248 -0.145823
H8    H     H_    0.909456 0.375576 0.007949 0.145190
H9    H     H_    0.875403 0.203359 0.103309 0.198732
H10   H     H_    0.976809 0.192923 0.926387 0.228211
N5    N     N_R   0.420118 0.308620 0.932795 0.261524
O15   O     O_R   0.480983 0.186553 0.951402 -0.328796
O16   O     O_R   0.302462 0.284935 0.861446 -0.328402
N6    N     N_R   0.579948 0.691346 0.067259 0.262572
O17   O     O_R   0.518772 0.813375 0.049456 -0.326368
O18   O     O_R   0.697748 0.715125 0.137984 -0.334858

loop_
_geom_bond_atom_site_label_1
_geom_bond_atom_site_label_2
_geom_bond_distance
_ccdc_geom_bond_type
N2    N6    1.383521 S    
C6    C8    1.542020 S    
C7    C9    1.536603 S    
O7    Cu2   1.958943 S    
N3    O10   1.298581 A    
O13   C15   1.410283 S    
C13   H3    1.083546 S    
O7    C3    1.295701 A    
N6    O18   1.299289 A    
N5    O15   1.298678 A    
C6    C12   1.548912 S    
N1    N5    1.383446 S    
O6    C4    1.299775 A    
C7    N3    1.456534 S    
O3    C1    1.296255 A    
C14   H4    1.083339 S    
N6    O17   1.298781 A    
C8    N4    1.458126 S    
N5    O16   1.299220 A    
C6    H2    1.107107 S    
Cu1   Cu2   2.719729 S    
O5    C3    1.299118 A    
C16   H9    1.111038 S    
C4    C9    1.452147 S    
O2    C2    1.298784 A    
O3    Cu2   1.944845 S    
O8    C4    1.296543 A    
O1    C1    1.298989 A    
C15   H6    1.109488 S    
C10   C12   1.536585 S    
N4    O12   1.300258 A    
C9    C11   1.540079 S    
C16   H8    1.111161 S    
C15   H5    1.112333 S    
O2    Cu2   1.953601 S    
C16   H10   1.109247 S    
C2    C14   1.424224 S    
C5    C10   1.550270 S    
O1    Cu1   1.953599 S    
O14   C16   1.409793 S    
C6    C9    1.554135 S    
C8    C10   1.532839 S    
C3    C10   1.448867 S    
O5    Cu1   1.960538 S    
C12   O14   1.412113 S    
C15   H7    1.109085 S    
O4    C2    1.296001 A    
N4    O11   1.300499 A    
C8    C11   1.530315 S    
Cu1   N2    2.043703 S    
O4    Cu1   1.944845 S    
C7    C12   1.529224 S    
Cu2   N1    2.043703 S    
O6    Cu2   1.960540 S    
C5    C7    1.541560 S    
C1    C13   1.425417 S    
N3    O9    1.299429 A    
C5    H1    1.107586 S    
N1    N2    1.296274 D    
C11   O13   1.411688 S    
C5    C11   1.551595 S    
C13   C14   1.326011 D    
O8    Cu1   1.958943 S    
