data_mof_unit_63473.cif
_audit_creation_date              2012-12-10T20:44:32-0500
_audit_creation_method            fapswitch 2.2
_symmetry_space_group_name_H-M    P1
_symmetry_Int_Tables_number       1
_space_group_crystal_system       triclinic
_cell_length_a                    28.25895
_cell_length_b                    25.951546
_cell_length_c                    13.132953
_cell_angle_alpha                 90.073296
_cell_angle_beta                  82.556629
_cell_angle_gamma                 90.022651
_cell_volume                      9550.0608763

loop_
_atom_site_label
_atom_site_type_symbol
_atom_type_description
_atom_site_fract_x
_atom_site_fract_y
_atom_site_fract_z
_atom_type_partial_charge
C1    C     C_R   0.589560 0.099204 0.511467 0.854087
C2    C     C_R   0.301813 0.180811 0.574911 0.176954
C3    C     C_R   0.802048 0.318957 0.575244 0.177061
C4    C     C_R   0.801814 0.680812 0.574912 0.176955
C5    C     C_R   0.309770 0.776240 0.508469 0.202125
C6    C     C_R   0.309587 0.223549 0.508400 0.202075
C7    C     C_R   0.809770 0.276240 0.508468 0.202125
C8    C     C_R   0.809587 0.723549 0.508397 0.202075
C9    C     C_R   0.351533 0.773899 0.436062 -0.088912
C10   C     C_R   0.351441 0.225952 0.436265 -0.088890
C11   C     C_R   0.851532 0.273899 0.436061 -0.088911
C12   C     C_R   0.589558 0.900771 0.511423 0.854345
C13   C     C_R   0.851440 0.725951 0.436259 -0.088891
C14   C     C_R   0.383592 0.815553 0.429627 -0.245626
C15   C     C_R   0.383551 0.184359 0.429860 -0.246067
C16   C     C_R   0.883591 0.315553 0.429627 -0.245628
C17   C     C_R   0.883549 0.684357 0.429855 -0.246067
C18   C     C_R   0.707977 0.161619 0.528591 -0.153181
C19   C     C_R   0.707877 0.838237 0.528774 -0.153309
C20   C     C_R   0.207976 0.661620 0.528597 -0.153181
C21   C     C_R   0.207876 0.338237 0.528782 -0.153309
C22   C     C_R   0.671408 0.125563 0.534078 -0.227930
C23   C     C_R   0.089560 0.599204 0.511467 0.854082
C24   C     C_R   0.671351 0.874329 0.534265 -0.228271
C25   C     C_R   0.171408 0.625563 0.534083 -0.227927
C26   C     C_R   0.171350 0.374329 0.534273 -0.228267
C27   C     C_R   0.699475 0.213411 0.504532 0.273511
C28   C     C_R   0.699351 0.786454 0.504388 0.273564
C29   C     C_R   0.199475 0.713410 0.504531 0.273514
C30   C     C_R   0.199352 0.286454 0.504386 0.273568
C31   C     C_R   0.625691 0.139925 0.514707 -0.100173
C32   C     C_R   0.625648 0.860016 0.514578 -0.100722
C33   C     C_R   0.125691 0.639925 0.514707 -0.100175
C34   C     C_R   0.089558 0.400771 0.511423 0.854340
C35   C     C_R   0.125648 0.360016 0.514578 -0.100723
C36   C     C_R   0.616103 0.192159 0.492857 -0.124529
C37   C     C_R   0.616037 0.807789 0.492388 -0.124540
C38   C     C_R   0.116104 0.692159 0.492851 -0.124525
C39   C     C_R   0.116038 0.307790 0.492379 -0.124538
C40   C     C_R   0.409892 0.900976 0.490252 0.837316
C41   C     C_R   0.409882 0.098996 0.490281 0.836178
C42   C     C_R   0.909892 0.400977 0.490252 0.837315
C43   C     C_R   0.909882 0.598996 0.490281 0.836178
C44   C     C_R   0.653383 0.228705 0.487977 0.106300
C45   C     C_R   0.334190 0.859777 0.566811 -0.222139
C46   C     C_R   0.653272 0.771209 0.487504 0.106164
C47   C     C_R   0.153384 0.728704 0.487971 0.106296
C48   C     C_R   0.153273 0.271210 0.487494 0.106160
C49   C     C_R   0.477232 0.000272 0.777068 0.879700
C50   C     C_R   0.977232 0.500272 0.777068 0.879699
C51   C     C_R   0.522989 0.999921 0.223420 0.843248
C52   C     C_R   0.022989 0.499921 0.223420 0.843249
C53   C     C_2   0.531587 0.999450 0.112149 -0.259317
C54   C     C_2   0.031587 0.499450 0.112149 -0.259317
C55   C     C_2   0.495338 0.005864 0.057835 -0.137736
C56   C     C_R   0.334014 0.140053 0.566517 -0.222210
C57   C     C_2   0.995338 0.505863 0.057835 -0.137737
C58   C     C_2   0.467750 0.002483 0.889296 -0.310972
C59   C     C_2   0.967750 0.502483 0.889296 -0.310972
C60   C     C_2   0.503866 0.002627 0.945711 -0.126352
C61   C     C_2   0.003866 0.502626 0.945711 -0.126352
C62   C     C_R   0.374990 0.858617 0.494028 -0.076938
C63   C     C_R   0.374920 0.141289 0.494029 -0.076730
C64   C     C_R   0.874990 0.358617 0.494028 -0.076937
C65   C     C_R   0.874920 0.641288 0.494028 -0.076729
C66   C     C_2   0.362501 0.729127 0.365473 0.959598
C67   C     C_R   0.834190 0.359777 0.566810 -0.222139
C68   C     C_2   0.362466 0.270734 0.365936 0.959278
C69   C     C_2   0.862501 0.229127 0.365473 0.959596
C70   C     C_2   0.862464 0.770731 0.365926 0.959283
C71   C     C_2   0.567097 0.208859 0.479291 0.992170
C72   C     C_2   0.567045 0.791126 0.478476 0.992043
C73   C     C_2   0.067098 0.708859 0.479279 0.992175
C74   C     C_2   0.067048 0.291127 0.478458 0.992046
C75   C     C_R   0.834015 0.640054 0.566519 -0.222210
C76   C     C_R   0.302049 0.818957 0.575245 0.177060
H1    H     H_    0.540538 0.999949 0.908815 0.191131
H2    H     H_    0.931036 0.504532 0.925960 0.165863
H3    H     H_    0.567301 0.990826 0.074783 0.141293
H4    H     H_    0.067301 0.490828 0.074783 0.141293
H5    H     H_    0.679285 0.085813 0.550629 0.176934
H6    H     H_    0.679251 0.914068 0.551086 0.176973
H7    H     H_    0.179284 0.585813 0.550639 0.176935
H8    H     H_    0.179249 0.414067 0.551100 0.176975
H9    H     H_    0.742953 0.148663 0.542656 0.190011
H10   H     H_    0.742841 0.851161 0.543096 0.189915
H11   H     H_    0.242952 0.648663 0.542665 0.190009
H12   H     H_    0.040538 0.499949 0.908815 0.191131
H13   H     H_    0.242840 0.351160 0.543110 0.189913
H14   H     H_    0.415634 0.814434 0.374626 0.226847
H15   H     H_    0.415660 0.185536 0.375065 0.226836
H16   H     H_    0.915634 0.314434 0.374626 0.226846
H17   H     H_    0.915659 0.685533 0.375058 0.226835
H18   H     H_    0.406780 0.697743 0.248710 0.366085
H19   H     H_    0.406952 0.302247 0.249800 0.366079
H20   H     H_    0.906779 0.197743 0.248709 0.366085
H21   H     H_    0.906946 0.802241 0.249780 0.366079
H22   H     H_    0.497032 0.208175 0.534278 0.349157
H23   H     H_    0.327606 0.892045 0.619090 0.195585
H24   H     H_    0.496949 0.791805 0.533179 0.349149
H25   H     H_    0.997034 0.708179 0.534263 0.349158
H26   H     H_    0.996950 0.291801 0.533155 0.349150
H27   H     H_    0.327390 0.107776 0.618605 0.195539
H28   H     H_    0.827606 0.392045 0.619089 0.195585
H29   H     H_    0.827392 0.607778 0.618610 0.195539
H30   H     H_    0.459393 0.012383 0.096475 0.158749
H31   H     H_    0.959393 0.512381 0.096475 0.158749
H32   H     H_    0.431036 0.004532 0.925960 0.165862
I1    I     I_    0.244059 0.822930 0.695431 -0.243986
I2    I     I_    0.243670 0.176728 0.694715 -0.244690
I3    I     I_    0.744059 0.322931 0.695431 -0.243985
I4    I     I_    0.743673 0.676731 0.694721 -0.244690
I5    I     I_    0.641035 0.308684 0.462056 -0.156599
I6    I     I_    0.640863 0.691248 0.461061 -0.156952
I7    I     I_    0.141037 0.808683 0.462041 -0.156603
I8    I     I_    0.140866 0.191250 0.461037 -0.156955
N1    N     N_2   0.275895 0.735859 0.514019 -0.131500
N2    N     N_2   0.275728 0.263939 0.514068 -0.131532
N3    N     N_2   0.775895 0.235859 0.514018 -0.131500
N4    N     N_2   0.775728 0.763938 0.514064 -0.131532
N5    N     N_2   0.735844 0.251608 0.498078 -0.120401
N6    N     N_2   0.735680 0.748222 0.497893 -0.120256
N7    N     N_2   0.235844 0.751608 0.498078 -0.120400
N8    N     N_2   0.235681 0.248223 0.497891 -0.120255
O1    O     O_3   0.499990 0.000000 0.500000 -0.498132
O2    O     O_R   0.950070 0.602520 0.433660 -0.634035
O3    O     O_R   0.588860 0.940050 0.570910 -0.642312
O4    O     O_R   0.588860 0.059950 0.570910 -0.642234
O5    O     O_R   0.088860 0.440050 0.570910 -0.642313
O6    O     O_R   0.088860 0.559950 0.570910 -0.642234
O7    O     O_R   0.401370 0.059920 0.548800 -0.642624
O8    O     O_R   0.401370 0.940080 0.548800 -0.642418
O9    O     O_R   0.901370 0.559920 0.548800 -0.642623
O10   O     O_R   0.901370 0.440080 0.548800 -0.642418
O11   O     O_R   0.520330 0.000000 0.732910 -0.635932
O12   O     O_3   0.999990 0.500000 0.500000 -0.498132
O13   O     O_R   0.020330 0.500000 0.732910 -0.635933
O14   O     O_R   0.518600 0.042600 0.271700 -0.625932
O15   O     O_R   0.518600 0.957400 0.271700 -0.627889
O16   O     O_R   0.018600 0.542600 0.271700 -0.625931
O17   O     O_R   0.018600 0.457400 0.271700 -0.627888
O18   O     O_R   0.442440 0.000000 0.723710 -0.634686
O19   O     O_R   0.942440 0.500000 0.723710 -0.634686
O20   O     O_2   0.336616 0.691193 0.371142 -0.598682
O21   O     O_R   0.403022 0.730242 0.291939 -0.781864
O22   O     O_2   0.336459 0.308552 0.371374 -0.598754
O23   O     O_R   0.559670 0.102510 0.446620 -0.627046
O24   O     O_R   0.403176 0.269758 0.292898 -0.782016
O25   O     O_2   0.836616 0.191193 0.371142 -0.598684
O26   O     O_R   0.903022 0.230243 0.291938 -0.781865
O27   O     O_2   0.836458 0.808550 0.371367 -0.598757
O28   O     O_R   0.903171 0.769752 0.292880 -0.782018
O29   O     O_2   0.560109 0.233489 0.403354 -0.565888
O30   O     O_R   0.528745 0.195386 0.552684 -0.799676
O31   O     O_2   0.560115 0.766550 0.402305 -0.566237
O32   O     O_R   0.528644 0.804567 0.551824 -0.799604
O33   O     O_2   0.060112 0.733485 0.403336 -0.565890
O34   O     O_R   0.559670 0.897490 0.446620 -0.627555
O35   O     O_R   0.028746 0.695390 0.552674 -0.799672
O36   O     O_2   0.060120 0.266555 0.402279 -0.566237
O37   O     O_R   0.028645 0.304562 0.551807 -0.799598
O38   O     O_R   0.059670 0.602510 0.446620 -0.627046
O39   O     O_R   0.059670 0.397490 0.446620 -0.627555
O40   O     O_R   0.450070 0.897480 0.433660 -0.633600
O41   O     O_R   0.450070 0.102520 0.433660 -0.634036
O42   O     O_R   0.950070 0.397480 0.433660 -0.633601
Zn1   Zn    Zn3+2 0.506960 0.939150 0.414470 1.016256
Zn2   Zn    Zn3+2 0.506960 0.060850 0.414470 1.016107
Zn3   Zn    Zn3+2 0.006960 0.439150 0.414470 1.016257
Zn4   Zn    Zn3+2 0.006960 0.560850 0.414470 1.016108
Zn5   Zn    Zn3+2 0.548670 0.000000 0.592090 0.999228
Zn6   Zn    Zn3+2 0.048670 0.500000 0.592090 0.999225
Zn7   Zn    Zn3+2 0.437380 0.000000 0.578960 1.004124
Zn8   Zn    Zn3+2 0.937380 0.500000 0.578960 1.004123

loop_
_geom_bond_atom_site_label_1
_geom_bond_atom_site_label_2
_ccdc_geom_bond_type
C21   C26   A    
H22   O30   S    
C8    C13   A    
C72   O32   S    
C41   C63   S    
O5    Zn6   S    
C74   O36   D    
C1    O4    A    
C4    C8    A    
C19   H10   S    
O1    Zn7   S    
C27   N5    S    
C50   O13   A    
C12   O3    A    
C21   H13   S    
C7    C11   A    
C64   C67   A    
C28   C46   A    
C29   C47   A    
C45   C76   A    
C50   C59   S    
C75   H29   S    
C30   C48   A    
O1    Zn1   S    
C40   O40   A    
C3    C7    A    
C10   C15   A    
C4    I4    S    
C38   C73   S    
C28   N6    S    
C66   O20   D    
C20   C25   A    
C58   C60   D    
C14   C62   A    
C20   H11   S    
C73   O33   D    
C45   C62   A    
C1    C31   S    
C40   C62   S    
C43   O2    A    
O14   Zn2   S    
C34   C35   S    
C39   C74   S    
C43   O9    A    
C24   H6    S    
C9    C66   S    
C14   H14   S    
O13   Zn6   S    
C27   C44   A    
O12   Zn6   S    
C34   O5    A    
O6    Zn6   S    
C76   I1    S    
C66   O21   S    
C41   O41   A    
O34   Zn1   S    
O16   Zn4   S    
O11   Zn5   S    
O9    Zn8   S    
C68   O24   S    
C36   C71   S    
C48   I8    S    
C23   O38   A    
H24   O32   S    
H18   O21   S    
C53   C55   D    
C40   O8    A    
C72   O31   D    
C55   C60   S    
C12   C32   S    
C2    C6    A    
O1    Zn5   S    
C59   H2    S    
N4    N6    D    
C67   H28   S    
O18   Zn7   S    
C54   H4    S    
C20   C29   A    
N3    N5    D    
O12   Zn8   S    
C60   H1    S    
C59   C61   D    
C18   H9    S    
C22   C31   A    
C18   C27   A    
C55   H30   S    
C22   H5    S    
C7    N3    S    
O1    Zn2   S    
C70   O28   S    
C34   O39   A    
C45   H23   S    
C3    I3    S    
C41   O7    A    
C46   I6    S    
C23   C33   S    
C71   O30   S    
O7    Zn7   S    
C49   C58   S    
C23   O6    A    
C5    N1    S    
C51   C53   S    
C35   C39   A    
C9    C14   A    
C24   C32   A    
C5    C9    A    
O2    Zn4   S    
C61   H12   S    
C11   C16   A    
O38   Zn4   S    
C43   C65   S    
H20   O26   S    
C49   O18   A    
O17   Zn3   S    
C51   O15   A    
C56   C63   A    
C52   C54   S    
N2    N8    D    
C32   C37   A    
O15   Zn1   S    
C19   C28   A    
C38   C47   A    
C47   I7    S    
O42   Zn3   S    
C57   H31   S    
C30   N8    S    
C44   I5    S    
C16   H16   S    
O41   Zn2   S    
C36   C44   A    
C17   H17   S    
C69   O26   S    
C42   C64   S    
C68   O22   D    
C50   O19   A    
C8    N4    S    
C2    I2    S    
C26   H8    S    
O10   Zn8   S    
C53   H3    S    
C18   C22   A    
O40   Zn1   S    
C3    C67   A    
C70   O27   D    
C52   O17   A    
C56   H27   S    
O12   Zn4   S    
C6    C10   A    
C74   O37   S    
C11   C69   S    
C57   C61   S    
C10   C68   S    
C21   C30   A    
C73   O35   S    
C17   C65   A    
C33   C38   A    
C65   C75   A    
C13   C17   A    
C42   O10   A    
C69   O25   D    
C5    C76   A    
C19   C24   A    
N1    N7    D    
C2    C56   A    
H26   O37   S    
C29   N7    S    
C52   O16   A    
H21   O28   S    
C58   H32   S    
O8    Zn7   S    
C49   O11   A    
O39   Zn3   S    
C1    O23   A    
O23   Zn2   S    
C15   H15   S    
C4    C75   A    
C51   O14   A    
C26   C35   A    
H19   O24   S    
O12   Zn3   S    
H25   O35   S    
O4    Zn5   S    
C13   C70   S    
C37   C72   S    
C25   H7    S    
C15   C63   A    
C31   C36   A    
C16   C64   A    
O19   Zn8   S    
C12   O34   A    
C37   C46   A    
O3    Zn5   S    
C6    N2    S    
C42   O42   A    
C25   C33   A    
C39   C48   A    
C54   C57   D    
C71   O29   D    
