data_mof_unit_51829.cif
_audit_creation_date              2012-12-10T20:50:11-0500
_audit_creation_method            fapswitch 2.2
_symmetry_space_group_name_H-M    P1
_symmetry_Int_Tables_number       1
_space_group_crystal_system       triclinic
_cell_length_a                    19.284223
_cell_length_b                    8.932746
_cell_length_c                    8.071814
_cell_angle_alpha                 90.51331
_cell_angle_beta                  89.98853
_cell_angle_gamma                 89.844099
_cell_volume                      1390.39830026

loop_
_atom_site_label
_atom_site_type_symbol
_atom_type_description
_atom_site_fract_x
_atom_site_fract_y
_atom_site_fract_z
_atom_type_partial_charge
C1    C     C_R   0.499875 0.217849 0.499581 0.930114
C2    C     C_R   0.252150 0.402235 0.390567 0.065633
C3    C     C_R   0.179331 0.582697 0.624875 0.152941
C4    C     C_R   0.819915 0.382188 0.410960 0.147793
C5    C     C_R   0.820544 0.583134 0.620336 0.173286
C6    C     C_R   0.179380 0.396071 0.400956 0.142607
C7    C     C_R   0.144477 0.484930 0.517589 -0.069393
C8    C     C_R   0.855433 0.478572 0.520003 -0.083430
C9    C     C_R   0.288732 0.499503 0.501744 -0.167736
C10   C     C_R   0.711126 0.497098 0.501980 -0.179441
C11   C     C_R   0.930552 0.479539 0.520846 0.334491
C12   C     C_R   0.499978 0.782149 0.500478 0.937303
C13   C     C_R   0.069534 0.483047 0.519988 0.389356
C14   C     C_3   0.289354 0.705796 0.730039 -0.385828
C15   C     C_3   0.312323 0.841997 0.632038 -0.872894
C16   C     C_3   0.710297 0.301344 0.263260 -0.351991
C17   C     C_3   0.666255 0.174833 0.334191 -0.817337
C18   C     C_3   0.710581 0.714212 0.716460 -0.386379
C19   C     C_3   0.688876 0.846099 0.609388 -0.879007
C20   C     C_3   0.289605 0.300120 0.266084 -0.368527
C21   C     C_3   0.323365 0.166710 0.351190 -0.824458
C22   C     C_3   0.124646 0.606588 0.894389 -0.790209
C23   C     C_R   0.364914 0.501368 0.500151 0.918195
C24   C     C_3   0.863887 0.129578 0.368812 -0.757037
C25   C     C_3   0.875648 0.620984 0.887375 -0.774950
C26   C     C_3   0.130498 0.149623 0.337352 -0.737058
C27   C     C_R   0.635036 0.501188 0.500088 0.922645
C28   C     C_1   0.499854 0.065125 0.499447 -0.211763
C29   C     C_1   0.499898 0.934842 0.500723 -0.200137
C30   C     C_R   0.252153 0.592184 0.618162 0.072040
C31   C     C_R   0.747382 0.393627 0.397096 0.082813
C32   C     C_R   0.747768 0.593783 0.613053 0.068411
H1    H     H_    0.346767 0.809130 0.527761 0.253649
H2    H     H_    0.746907 0.250280 0.172934 0.223186
H3    H     H_    0.654173 0.809289 0.507397 0.252609
H4    H     H_    0.660958 0.930503 0.686325 0.257224
H5    H     H_    0.735648 0.899222 0.555793 0.249016
H6    H     H_    0.665594 0.669740 0.784492 0.234094
H7    H     H_    0.743098 0.758530 0.818407 0.203749
H8    H     H_    0.355846 0.103365 0.261006 0.248629
H9    H     H_    0.356225 0.202493 0.456686 0.247540
H10   H     H_    0.282461 0.091489 0.398198 0.250488
H11   H     H_    0.254472 0.254065 0.170296 0.198381
H12   H     H_    0.265854 0.899705 0.582406 0.247825
H13   H     H_    0.327649 0.362474 0.191243 0.223839
H14   H     H_    0.152288 0.785508 0.741135 0.232695
H15   H     H_    0.173347 0.588333 0.964950 0.223623
H16   H     H_    0.097816 0.497704 0.876871 0.252769
H17   H     H_    0.090155 0.681815 0.967522 0.247000
H18   H     H_    0.903213 0.321163 0.258694 0.232977
H19   H     H_    0.887661 0.056503 0.272281 0.236143
H20   H     H_    0.812481 0.083464 0.400788 0.243605
H21   H     H_    0.897036 0.127273 0.480938 0.254889
H22   H     H_    0.847286 0.791618 0.723320 0.233278
H23   H     H_    0.340765 0.920880 0.714401 0.256016
H24   H     H_    0.910074 0.699841 0.955235 0.243083
H25   H     H_    0.902742 0.511425 0.876429 0.255447
H26   H     H_    0.827110 0.606460 0.959542 0.226276
H27   H     H_    0.145091 0.324228 0.166019 0.214604
H28   H     H_    0.075513 0.117584 0.318012 0.251087
H29   H     H_    0.143782 0.131268 0.469764 0.244356
H30   H     H_    0.163659 0.076173 0.258688 0.222948
H31   H     H_    0.256426 0.746637 0.833157 0.201980
H32   H     H_    0.333419 0.656333 0.797574 0.233824
H33   H     H_    0.645112 0.203447 0.458169 0.244353
H34   H     H_    0.622628 0.149848 0.248699 0.256627
H35   H     H_    0.697540 0.071426 0.345256 0.237577
H36   H     H_    0.678448 0.375567 0.184448 0.213743
N1    N     N_1   0.500000 0.500000 0.073640 -0.046359
N2    N     N_2   0.139528 0.304624 0.290979 -0.307527
N3    N     N_1   0.500000 0.500000 0.926360 -0.048327
N4    N     N_R   0.035317 0.359129 0.569262 -0.173701
N5    N     N_R   0.964860 0.603875 0.472897 -0.164047
N6    N     N_R   0.966555 0.357580 0.570029 -0.188726
N7    N     N_R   0.033589 0.605667 0.472583 -0.168454
N8    N     N_2   0.139333 0.673718 0.735697 -0.295201
N9    N     N_2   0.857458 0.280457 0.306429 -0.314518
N10   N     N_2   0.860482 0.679760 0.724815 -0.294235
O1    O     O_R   0.500000 0.285350 0.636850 -0.614423
O2    O     O_R   0.500000 0.714650 0.363150 -0.619325
O3    O     O_R   0.500000 0.714650 0.636850 -0.609177
O4    O     O_R   0.500000 0.285350 0.363150 -0.610193
O5    O     O_R   0.398140 0.500000 0.636920 -0.628398
O6    O     O_R   0.601860 0.500000 0.363080 -0.620244
O7    O     O_R   0.601860 0.500000 0.636920 -0.628964
O8    O     O_R   0.398140 0.500000 0.363080 -0.625062
Zn1   Zn    Zn3+2 0.500000 0.500000 0.682780 0.964396
Zn2   Zn    Zn3+2 0.500000 0.500000 0.317220 0.963304

loop_
_geom_bond_atom_site_label_1
_geom_bond_atom_site_label_2
_ccdc_geom_bond_type
C10   C27   S    
C24   H20   S    
O5    Zn1   S    
C12   C29   S    
C22   H16   S    
C25   H24   S    
C22   N8    S    
C4    C8    A    
H14   N8    S    
C16   C31   S    
C17   H34   S    
C23   O5    A    
C28   C29   T    
C26   H29   S    
C15   H12   S    
C3    C7    A    
C19   H4    S    
O8    Zn2   S    
C27   O7    A    
C18   C19   S    
N1    N3    T    
C19   H5    S    
C16   H2    S    
C10   C31   A    
C13   N7    A    
C16   C17   S    
C23   O8    A    
C1    C28   S    
C16   H36   S    
C20   H13   S    
C5    C32   A    
C24   H19   S    
C22   H15   S    
N5    N7    A    
C2    C6    A    
C25   H25   S    
C14   C30   S    
O1    Zn1   S    
O7    Zn1   S    
C17   H35   S    
C2    C20   S    
C25   N10   S    
N4    N6    A    
C11   N5    A    
C9    C23   S    
C1    O4    A    
C15   H23   S    
C3    C30   A    
C18   H7    S    
C14   H32   S    
C3    N8    S    
O3    Zn1   S    
N1    Zn2   S    
C9    C30   A    
C22   H17   S    
N3    Zn1   S    
C26   N2    S    
C21   H9    S    
C18   C32   S    
C25   H26   S    
H18   N9    S    
C20   H11   S    
C1    O1    A    
C6    N2    S    
C27   O6    A    
O6    Zn2   S    
C11   N6    A    
C5    C8    A    
C6    C7    A    
C13   N4    A    
C24   H21   S    
C17   H33   S    
C18   H6    S    
C4    N9    S    
O2    Zn2   S    
C19   H3    S    
C21   H8    S    
C8    C11   S    
O4    Zn2   S    
C14   H31   S    
C12   O2    A    
C12   O3    A    
C26   H30   S    
C4    C31   A    
H27   N2    S    
C21   H10   S    
C10   C32   A    
C24   N9    S    
C7    C13   S    
C20   C21   S    
C14   C15   S    
C5    N10   S    
C2    C9    A    
C26   H28   S    
C15   H1    S    
H22   N10   S    
