data_mof_unit_67509.cif
_audit_creation_date              2013-03-05T15:41:20-0500
_audit_creation_method            fapswitch 2.2
_symmetry_space_group_name_H-M    P1
_symmetry_Int_Tables_number       1
_space_group_crystal_system       triclinic
_cell_length_a                    10.662559
_cell_length_b                    8.838858
_cell_length_c                    7.466577
_cell_angle_alpha                 102.608957
_cell_angle_beta                  94.624142
_cell_angle_gamma                 92.893951
_cell_volume                      682.801199284

loop_
_atom_site_label
_atom_site_type_symbol
_atom_site_description
_atom_site_fract_x
_atom_site_fract_y
_atom_site_fract_z
_atom_type_partial_charge
O1    O     O_R   0.509190 0.286130 0.619780 -0.555499
O2    O     O_R   0.490810 0.713870 0.380220 -0.567675
O3    O     O_R   0.485310 0.256770 0.308360 -0.598780
O4    O     O_R   0.514690 0.743230 0.691640 -0.592224
C1    C     C_R   0.492927 0.199557 0.453316 0.781148
C2    C     C_R   0.507694 0.799579 0.545663 0.825708
O5    O     O_R   0.328790 0.514640 0.655680 -0.588172
O6    O     O_R   0.671210 0.485360 0.344320 -0.595713
O7    O     O_R   0.304910 0.485280 0.344260 -0.596980
O8    O     O_R   0.695090 0.514720 0.655740 -0.592250
C3    C     C_R   0.259190 0.492765 0.500212 0.800333
C4    C     C_R   0.740309 0.503828 0.499009 0.779933
Cu1   Cu    Cu3+1 0.514140 0.517380 0.684380 0.939473
Cu2   Cu    Cu3+1 0.485860 0.482620 0.315620 0.942358
N1    N     N_2   0.464560 0.456420 0.038510 -0.206717
N2    N     N_2   0.535440 0.543580 0.961490 -0.227075
C5    C     C_3   0.041394 0.423139 0.630401 -0.207935
C6    C     C_3   0.955598 0.570221 0.365382 -0.237103
C7    C     C_3   0.945965 0.355971 0.462016 0.328616
C8    C     C_3   0.051220 0.637903 0.532352 0.321295
H1    H     H_    0.076995 0.360775 0.736048 0.134645
H2    H     H_    0.917833 0.631801 0.260222 0.137609
C9    C     C_3   0.876410 0.503796 0.497045 -0.074714
C10   C     C_3   0.121902 0.490545 0.499591 -0.036216
C11   C     C_3   0.970989 0.575234 0.665464 -0.241340
C12   C     C_3   0.027102 0.419125 0.330082 -0.230671
H3    H     H_    0.947169 0.642910 0.800548 0.146339
H4    H     H_    0.052506 0.353184 0.195157 0.144708
H5    H     H_    0.389947 0.396105 0.952771 0.224506
H6    H     H_    0.606423 0.610910 0.049050 0.216310
C13   C     C_2   0.480825 0.030692 0.427914 0.119743
C14   C     C_2   0.524022 0.966182 0.567230 0.166681
N3    N     N_2   0.880236 0.204222 0.419920 -0.456094
H7    H     H_    0.809601 0.189186 0.313596 0.250004
C15   C     C_3   0.962147 0.078818 0.402875 -0.780564
H8    H     H_    0.905091 0.966559 0.380713 0.236172
H9    H     H_    0.026240 0.094939 0.530555 0.239105
H10   H     H_    0.020277 0.077633 0.286037 0.236758
N4    N     N_2   0.110264 0.792649 0.570090 -0.464422
H11   H     H_    0.052256 0.873363 0.631813 0.256029
C16   C     C_3   0.166247 0.833273 0.415667 -0.682935
H12   H     H_    0.205863 0.955539 0.455167 0.247297
H13   H     H_    0.095492 0.820234 0.295040 0.215394
H14   H     H_    0.242892 0.757598 0.375014 0.294100
O9    O     O_3   0.399658 0.937317 0.285569 -0.655645
C17   C     C_3   0.409009 0.963079 0.107592 0.138782
H15   H     H_    0.412222 0.847309 0.013878 0.190917
H16   H     H_    0.497393 0.028765 0.091146 0.170122
C18   C     C_3   0.288606 0.033921 0.047784 -0.350011
H17   H     H_    0.205752 0.953611 0.051940 0.213189
H18   H     H_    0.276400 0.146283 0.143416 0.228669
C19   C     C_3   0.290419 0.058825 0.853337 -0.871510
H19   H     H_    0.368356 0.143619 0.846729 0.287931
H20   H     H_    0.200103 0.103435 0.809999 0.227094
H21   H     H_    0.304985 0.947582 0.758331 0.288780
O10   O     O_3   0.574110 0.054220 0.737611 -0.630129
C20   C     C_3   0.706158 0.078988 0.741348 0.076162
H22   H     H_    0.731676 0.201965 0.813636 0.205759
H23   H     H_    0.740705 0.063968 0.602246 0.133695
C21   C     C_3   0.772433 0.971130 0.847263 -0.337442
H24   H     H_    0.720553 0.959087 0.967387 0.227757
H25   H     H_    0.773991 0.854236 0.754929 0.201176
C22   C     C_3   0.907038 0.034933 0.917007 -0.973550
H26   H     H_    0.956923 0.066852 0.805109 0.256994
H27   H     H_    0.958788 0.946414 0.971926 0.252214
H28   H     H_    0.905653 0.141459 0.026898 0.267861

loop_
_geom_bond_atom_site_label_1
_geom_bond_atom_site_label_2
_geom_bond_distance
_ccdc_geom_bond_type
C1    C13   1.460617 S    
C7    C9    1.518407 S    
O7    Cu2   1.959014 S    
C22   H27   1.109934 S    
C11   H3    1.110343 S    
C16   H13   1.109049 S    
C16   H12   1.108138 S    
C12   H4    1.109761 S    
C15   H8    1.110477 S    
C6    C12   1.554311 S    
C19   H21   1.105802 S    
O6    C4    1.292990 A    
C18   C19   1.516685 S    
C5    C11   1.555409 S    
C18   H18   1.109763 S    
C6    H2    1.110253 S    
N3    H7    1.030807 S    
C22   H28   1.107277 S    
N4    C16   1.443872 S    
C17   H15   1.110260 S    
Cu1   Cu2   2.693295 S    
C19   H19   1.102079 S    
O5    C3    1.297775 A    
O7    C3    1.288047 A    
C4    C9    1.452452 S    
C20   H22   1.112285 S    
O2    C2    1.293861 A    
O3    Cu2   1.984826 S    
O8    C4    1.287512 A    
C21   C22   1.522714 S    
O1    C1    1.302715 A    
N1    N2    1.303882 D    
C21   H25   1.111621 S    
C15   H9    1.105439 S    
C10   C12   1.550030 S    
N1    H5    1.026161 S    
C6    C8    1.536064 S    
C9    C11   1.543241 S    
C7    N3    1.440323 S    
O2    Cu2   1.991956 S    
C16   H14   1.101800 S    
C17   C18   1.533120 S    
C20   H23   1.112865 S    
C5    C10   1.543833 S    
O1    Cu1   1.991954 S    
C8    C11   1.534954 S    
N2    H6    1.029220 S    
C6    C9    1.536177 S    
N4    H11   1.025134 S    
C17   H16   1.111219 S    
C8    C10   1.521189 S    
C3    C10   1.462604 S    
O5    Cu1   1.968985 S    
C15   H10   1.108690 S    
O10   C20   1.411022 S    
O4    C2    1.291997 A    
C18   H17   1.111761 S    
C13   O9    1.398708 S    
Cu1   N2    2.023848 S    
O4    Cu1   1.984826 S    
C8    N4    1.436223 S    
C7    C12   1.535962 S    
Cu2   N1    2.023848 S    
C5    C7    1.541213 S    
C20   C21   1.529936 S    
O6    Cu2   1.968987 S    
N3    C15   1.435856 S    
O9    C17   1.406734 S    
C14   O10   1.387601 S    
C13   C14   1.351860 D    
C5    H1    1.110348 S    
C22   H26   1.104526 S    
C2    C14   1.445963 S    
C19   H20   1.109663 S    
C21   H24   1.112437 S    
O3    C1    1.289455 A    
O8    Cu1   1.959014 S    
