data_mof_unit_7628.cif
_audit_creation_date              2013-03-05T16:41:46-0500
_audit_creation_method            fapswitch 2.2
_symmetry_space_group_name_H-M    P1
_symmetry_Int_Tables_number       1
_space_group_crystal_system       triclinic
_cell_length_a                    10.652751
_cell_length_b                    10.672142
_cell_length_c                    9.910746
_cell_angle_alpha                 89.633524
_cell_angle_beta                  89.995377
_cell_angle_gamma                 91.512587
_cell_volume                      1126.31395037

loop_
_atom_site_label
_atom_site_type_symbol
_atom_site_description
_atom_site_fract_x
_atom_site_fract_y
_atom_site_fract_z
_atom_type_partial_charge
O1    O     O_R   0.500020 0.316790 0.614690 -0.636737
O2    O     O_R   0.500000 0.316760 0.385350 -0.572904
C1    C     C_R   0.502971 0.260030 0.500554 0.884875
O3    O     O_R   0.316770 0.500020 0.614690 -0.618023
O4    O     O_R   0.316760 0.499980 0.385350 -0.621738
C2    C     C_R   0.260457 0.495011 0.500039 0.856330
Zn1   Zn    Zn3+2 0.500010 0.500020 0.653130 1.039244
Zn2   Zn    Zn3+2 0.499990 0.499980 0.346870 1.044117
O5    O     O_R   0.500000 0.683240 0.614650 -0.575154
O6    O     O_R   0.499980 0.683210 0.385310 -0.572602
O7    O     O_R   0.683240 0.500020 0.614650 -0.582504
O8    O     O_R   0.683230 0.499980 0.385310 -0.620369
C3    C     C_R   0.509637 0.739676 0.499586 0.927152
C4    C     C_R   0.739309 0.496100 0.499988 0.880416
C5    C     C_R   0.124127 0.294425 0.642587 -0.262057
H1    H     H_    0.225037 0.288953 0.640879 0.164780
C6    C     C_R   0.056613 0.203217 0.715728 -0.208920
H2    H     H_    0.107208 0.132488 0.770448 0.193574
C7    C     C_R   0.925332 0.203112 0.718287 0.363410
C8    C     C_R   0.862996 0.295831 0.645352 -0.229708
C9    C     C_R   0.930774 0.391114 0.573983 0.061818
C10   C     C_R   0.062256 0.390614 0.573244 0.129104
C11   C     C_R   0.127742 0.485246 0.499431 -0.075989
C12   C     C_R   0.066279 0.573419 0.421788 -0.199595
H3    H     H_    0.891249 0.644006 0.362958 0.216750
C13   C     C_R   0.938180 0.573399 0.421541 -0.144730
C14   C     C_R   0.871270 0.485850 0.499560 -0.067842
C15   C     C_R   0.501951 0.061598 0.621377 0.166790
C16   C     C_R   0.523516 0.129050 0.503092 -0.171407
C17   C     C_R   0.576323 0.070220 0.391438 -0.204729
C18   C     C_R   0.585068 0.939971 0.390356 0.306638
C19   C     C_R   0.534770 0.871619 0.501811 -0.276213
C20   C     C_R   0.506802 0.934150 0.620230 0.113398
C21   C     C_3   0.395934 0.918841 0.712246 0.132061
C22   C     C_3   0.391566 0.060584 0.714493 -0.541721
H4    H     H_    0.312450 0.872516 0.664392 0.115291
H5    H     H_    0.415328 0.102306 0.813866 0.268177
C23   C     C_R   0.391143 0.480785 0.070900 0.130227
N1    N     N_R   0.499160 0.499140 0.142800 -0.127233
C24   C     C_R   0.604614 0.533543 0.072660 -0.065693
C25   C     C_R   0.604649 0.536442 0.929190 0.353282
N2    N     N_R   0.499160 0.499180 0.857150 -0.154631
C26   C     C_R   0.390790 0.482195 0.929120 0.201839
C27   C     C_3   0.299556 0.374468 0.921372 -0.558724
C28   C     C_3   0.302044 0.370040 0.075170 0.096735
H6    H     H_    0.207546 0.404081 0.881307 0.219118
H7    H     H_    0.339188 0.292278 0.870627 0.223206
H8    H     H_    0.210497 0.391197 0.122861 0.141566
H9    H     H_    0.117825 0.644358 0.363836 0.178381
N3    N     N_R   0.428929 0.864415 0.842886 0.263993
O9    O     O_R   0.532115 0.898562 0.904379 -0.227376
O10   O     O_R   0.354834 0.779985 0.898140 -0.378314
H10   H     H_    0.306317 0.095961 0.664945 0.164414
H11   H     H_    0.688791 0.560667 0.127316 0.199676
N4    N     N_R   0.714223 0.585061 0.862136 0.230297
O11   O     O_R   0.707859 0.689240 0.793980 -0.285993
O12   O     O_R   0.823955 0.543719 0.895053 -0.383346
N5    N     N_R   0.358632 0.256346 0.128422 0.249848
O13   O     O_R   0.466570 0.219464 0.084069 -0.355098
O14   O     O_R   0.298329 0.188646 0.218081 -0.365587
N6    N     N_R   0.855533 0.108952 0.793857 0.224051
O15   O     O_R   0.912528 0.015827 0.850313 -0.306184
O16   O     O_R   0.734817 0.117263 0.810106 -0.335054
H12   H     H_    0.761682 0.291152 0.643298 0.175141
H13   H     H_    0.607925 0.124877 0.304833 0.235675
N7    N     N_R   0.642775 0.880516 0.277201 0.235708
O17   O     O_R   0.644182 0.935322 0.159582 -0.252409
O18   O     O_R   0.714815 0.785651 0.296606 -0.408494

loop_
_geom_bond_atom_site_label_1
_geom_bond_atom_site_label_2
_geom_bond_distance
_ccdc_geom_bond_type
C6    H2    1.081978 S    
C8    H12   1.079315 S    
O4    Zn2   1.988780 S    
N7    O18   1.299786 A    
C11   C12   1.389115 A    
Zn1   N2    2.021971 S    
C5    C6    1.394315 A    
C16   C17   1.400918 A    
Zn2   N1    2.022582 S    
C4    C14   1.412883 S    
C18   N7    1.437964 S    
C25   N2    1.382346 A    
C3    C19   1.426694 S    
N3    O10   1.300328 A    
C18   C19   1.417148 A    
C27   H7    1.107116 S    
O8    C4    1.284968 A    
C17   C18   1.395720 A    
Zn2   O8    1.988868 S    
C19   C20   1.389951 A    
N4    O11   1.300522 A    
N6    O16   1.301405 A    
N7    O17   1.300758 A    
C9    C14   1.411523 A    
C23   C26   1.405131 A    
C9    C10   1.400814 A    
C8    C9    1.416903 A    
Zn1   O7    1.988779 S    
C15   C16   1.387679 A    
C13   C14   1.390832 A    
O4    C2    1.285285 A    
C7    N6    1.440294 S    
O3    Zn1   1.988869 S    
C2    C11   1.414889 S    
O3    C2    1.285710 A    
C24   C25   1.422033 A    
C22   H5    1.109945 S    
C12   C13   1.364602 A    
C15   C20   1.362608 A    
N3    O9    1.301646 A    
C21   H4    1.113607 S    
N4    O12   1.301140 A    
C26   C27   1.488082 S    
N6    O15   1.301625 A    
O7    C4    1.285185 A    
N5    O13   1.302427 A    
C28   N5    1.464456 S    
C21   N3    1.462368 S    
C17   H13   1.083273 S    
C22   H10   1.106432 S    
N2    C26   1.364378 A    
N5    O14   1.300568 A    
C5    H1    1.078227 S    
Zn1   O5    1.989799 S    
N1    C24   1.361923 A    
C20   C21   1.496977 S    
C27   C28   1.524938 S    
C15   C22   1.494507 S    
Zn2   O6    1.994615 S    
C21   C22   1.514954 S    
C28   H8    1.112821 S    
C12   H9    1.084896 S    
C1    C16   1.420625 S    
O5    C3    1.289054 A    
C10   C11   1.412458 A    
C25   N4    1.427181 S    
C23   C28   1.496552 S    
O2    C1    1.289707 A    
C6    C7    1.398700 A    
H3    C13   1.081290 S    
O1    Zn1   1.994615 S    
C5    C10   1.409703 A    
O2    Zn2   1.989799 S    
C7    C8    1.402924 A    
C24   H11   1.081523 S    
C27   H6    1.110435 S    
O1    C1    1.287340 A    
O6    C3    1.289145 A    
C23   N1    1.363894 A    
