data_mof_unit_51502.cif
_audit_creation_date              2012-12-10T18:11:39-0500
_audit_creation_method            fapswitch 2.2
_symmetry_space_group_name_H-M    P1
_symmetry_Int_Tables_number       1
_space_group_crystal_system       triclinic
_cell_length_a                    10.569677
_cell_length_b                    12.655303
_cell_length_c                    13.051661
_cell_angle_alpha                 81.46219
_cell_angle_beta                  92.628201
_cell_angle_gamma                 102.164256
_cell_volume                      1687.51997595

loop_
_atom_site_label
_atom_site_type_symbol
_atom_type_description
_atom_site_fract_x
_atom_site_fract_y
_atom_site_fract_z
_atom_type_partial_charge
C1    C     C_R   0.491513 0.438825 0.691580 0.860420
C2    C     C_3   0.065524 0.578988 0.549344 -0.194449
C3    C     C_3   0.962613 0.479580 0.594512 0.153362
C4    C     C_3   0.876851 0.499840 0.499223 -0.172547
C5    C     C_R   0.707389 0.692654 0.077463 -0.116837
C6    C     C_R   0.542949 0.596906 0.199925 -0.119499
C7    C     C_R   0.415640 0.297162 0.839995 -0.217287
C8    C     C_R   0.398491 0.264977 0.946628 0.002493
C9    C     C_R   0.449115 0.340404 0.013903 -0.180478
C10   C     C_R   0.519361 0.445815 0.975585 0.088790
C11   C     C_R   0.557773 0.467641 0.872220 0.076714
C12   C     C_R   0.741895 0.499890 0.501353 0.920803
C13   C     C_R   0.554978 0.529787 0.037907 0.008363
C14   C     C_R   0.661689 0.616834 0.009052 0.088608
C15   C     C_R   0.718436 0.625788 0.912165 0.141546
C16   C     C_R   0.661194 0.556002 0.842338 -0.196654
C17   C     C_R   0.484751 0.530787 0.126460 -0.091151
C18   C     C_R   0.651269 0.680088 0.173822 -0.159902
C19   C     C_R   0.492229 0.399311 0.802412 -0.097753
C20   C     C_R   0.255807 0.076447 0.425773 -0.236998
C21   C     C_R   0.687642 0.806313 0.594959 -0.011677
C22   C     C_R   0.741572 0.915280 0.604135 -0.077841
C23   C     C_R   0.513989 0.560857 0.308524 0.926024
C24   C     C_R   0.665164 0.992932 0.577773 -0.204835
C25   C     C_R   0.539455 0.963425 0.535989 -0.018310
C26   C     C_R   0.492330 0.852663 0.522197 0.175352
C27   C     C_R   0.462207 0.040735 0.499560 0.000861
C28   C     C_R   0.332144 0.003013 0.468723 0.130190
C29   C     C_R   0.283572 0.892186 0.470891 -0.231356
C30   C     C_R   0.370400 0.824026 0.473405 0.165381
C31   C     C_R   0.508783 0.154042 0.489190 -0.001257
C32   C     C_R   0.309700 0.186782 0.412331 0.068278
C33   C     C_R   0.258066 0.501010 0.495592 0.957975
C34   C     C_3   0.934589 0.423671 0.442517 0.148787
C35   C     C_3   0.021886 0.403127 0.538291 -0.230032
C36   C     C_3   0.122676 0.502180 0.492375 -0.159745
C37   C     C_3   0.037227 0.522546 0.396426 0.159742
C38   C     C_3   0.977791 0.598529 0.453305 0.125018
H1    H     H_    0.042258 0.322705 0.572969 0.200001
H2    H     H_    0.367835 0.243508 0.786170 0.195181
H3    H     H_    0.435163 0.316395 0.096350 0.186608
H4    H     H_    0.703167 0.568157 0.766474 0.183257
H5    H     H_    0.250667 0.244916 0.382467 0.185216
H6    H     H_    0.186996 0.865924 0.441107 0.207052
H7    H     H_    0.156555 0.048733 0.401008 0.180516
H8    H     H_    0.602427 0.190597 0.517709 0.147828
H9    H     H_    0.744771 0.744786 0.616131 0.186803
H10   H     H_    0.706940 0.075994 0.588273 0.189807
H11   H     H_    0.121218 0.643207 0.592790 0.205696
H12   H     H_    0.695524 0.732783 0.229438 0.198609
H13   H     H_    0.789417 0.759139 0.059427 0.190081
N1    N     N_R   0.432930 0.222190 0.444670 -0.115098
N2    N     N_R   0.566370 0.776980 0.554790 -0.132469
O1    O     O_R   0.467970 0.366730 0.627150 -0.617693
O2    O     O_R   0.510820 0.544830 0.662520 -0.613101
O3    O     O_R   0.664630 0.410960 0.482340 -0.607679
O4    O     O_R   0.707470 0.589060 0.517710 -0.618363
O5    O     O_R   0.489180 0.455170 0.337480 -0.569272
O6    O     O_R   0.532030 0.633270 0.372850 -0.593966
O7    O     O_R   0.292530 0.410940 0.482290 -0.618583
O8    O     O_R   0.335370 0.589040 0.517660 -0.610888
Zn1   Zn    Zn3+2 0.471390 0.381080 0.476380 0.997803
Zn2   Zn    Zn3+2 0.528610 0.618920 0.523620 0.987105
C39   C     C_2   0.344069 0.478926 0.131887 0.923288
O9    O     O_2   0.296696 0.424650 0.211425 -0.608326
O10   O     O_R   0.266616 0.489758 0.042649 -0.752570
H14   H     H_    0.174142 0.447962 0.053442 0.375485
C40   C     C_2   0.323015 0.155217 0.987641 0.953906
O11   O     O_2   0.277333 0.089998 0.928508 -0.596091
O12   O     O_R   0.304126 0.125788 0.094328 -0.788904
H15   H     H_    0.251598 0.048920 0.112715 0.369391
I1    I     I_    0.840219 0.294036 0.359479 -0.282919
C41   C     C_2   0.879421 0.949486 0.634722 0.962388
O13   O     O_2   0.954213 0.888042 0.632913 -0.599994
O14   O     O_R   0.925221 0.053407 0.662874 -0.791097
H16   H     H_    0.021151 0.067576 0.680757 0.360875
I2    I     I_    0.355088 0.780224 0.322554 -0.264941
I3    I     I_    0.076027 0.560798 0.234545 -0.204622
I4    I     I_    0.934600 0.752254 0.385082 -0.330859
I5    I     I_    0.909530 0.436164 0.753064 -0.310120
I6    I     I_    0.889107 0.741760 0.865063 -0.239437

loop_
_geom_bond_atom_site_label_1
_geom_bond_atom_site_label_2
_ccdc_geom_bond_type
O5    Zn1   S    
C23   O5    A    
C34   I1    S    
C34   C37   S    
C41   O13   D    
C35   C36   S    
C31   N1    A    
C1    O1    A    
C7    C8    A    
C15   I6    S    
C23   O6    A    
C11   C19   A    
C37   C38   S    
C28   C29   A    
C17   C39   S    
C38   I4    S    
C15   C16   A    
C33   C36   S    
O7    Zn1   S    
C34   C35   S    
O8    Zn2   S    
C32   N1    A    
C30   I2    S    
C8    C9    A    
C31   H8    S    
O2    Zn2   S    
C7    H2    S    
O12   H15   S    
C4    C12   S    
C9    C10   A    
C20   H7    S    
O10   H14   S    
C21   C22   A    
C41   O14   S    
C3    I5    S    
O4    Zn2   S    
C6    C18   A    
C4    C34   S    
C1    C19   S    
C27   C31   A    
C24   H10   S    
C24   C25   A    
C40   O11   D    
C5    C18   A    
O1    Zn1   S    
C25   C26   A    
C39   O10   S    
C35   H1    S    
O14   H16   S    
C29   C30   A    
C2    H11   S    
C11   C16   A    
C2    C38   S    
C3    C35   S    
C5    C14   A    
C12   O3    A    
C12   O4    A    
C40   O12   S    
C4    C38   S    
C8    C40   S    
C33   O7    A    
C7    C19   A    
C29   H6    S    
O3    Zn1   S    
C3    C4    S    
C26   N2    A    
C16   H4    S    
C18   H12   S    
C20   C32   A    
C2    C36   S    
C6    C17   A    
C36   C37   S    
O6    Zn2   S    
C10   C13   A    
C26   C30   A    
C25   C27   A    
C20   C28   A    
C37   I3    S    
C9    H3    S    
C13   C17   A    
C39   O9    D    
C2    C3    S    
C1    O2    A    
N1    Zn1   S    
C21   N2    A    
N2    Zn2   S    
C6    C23   S    
C32   H5    S    
C22   C24   A    
C10   C11   A    
C33   O8    A    
C27   C28   A    
C14   C15   A    
C5    H13   S    
C22   C41   S    
C13   C14   A    
C21   H9    S    
