data_mof_unit_32916.cif
_audit_creation_date              2012-12-11T15:16:37-0500
_audit_creation_method            fapswitch 2.2
_symmetry_space_group_name_H-M    P1
_symmetry_Int_Tables_number       1
_space_group_crystal_system       triclinic
_cell_length_a                    25.231872
_cell_length_b                    7.227118
_cell_length_c                    21.940511
_cell_angle_alpha                 89.979574
_cell_angle_beta                  110.068512
_cell_angle_gamma                 89.980571
_cell_volume                      3758.00823391

loop_
_atom_site_label
_atom_site_type_symbol
_atom_type_description
_atom_site_fract_x
_atom_site_fract_y
_atom_site_fract_z
_atom_type_partial_charge
O1    O     O_R   0.554350 0.505270 0.581390 -0.540810
O2    O     O_R   0.445650 0.005270 0.418610 -0.533168
O3    O     O_R   0.553380 0.177580 0.454800 -0.537121
O4    O     O_R   0.446620 0.677580 0.545200 -0.541116
C1    C     C_R   0.564907 0.344767 0.436947 0.722441
C2    C     C_R   0.435158 0.844693 0.563119 0.714521
O5    O     O_R   0.560970 0.175640 0.583140 -0.531733
O6    O     O_R   0.439030 0.675640 0.416860 -0.535339
O7    O     O_R   0.453290 0.004120 0.547860 -0.514803
O8    O     O_R   0.546710 0.504120 0.452140 -0.515441
C3    C     C_R   0.576479 0.344683 0.607334 0.809759
C4    C     C_R   0.423519 0.844801 0.392665 0.825341
O9    O     O_3   0.464660 0.338800 0.488280 -0.374082
O10   O     O_3   0.535340 0.838800 0.511720 -0.373540
V1    V     V_3+5 0.506560 0.064420 0.502170 1.488609
V2    V     V_3+5 0.493440 0.564420 0.497830 1.473264
C5    C     C_R   0.143576 0.899637 0.288052 -0.143877
C6    C     C_R   0.856071 0.410912 0.711684 -0.143489
H1    H     H_    0.059084 0.930063 0.221477 0.107983
H2    H     H_    0.940528 0.442044 0.778246 0.107939
H3    H     H_    0.225308 0.848376 0.399237 0.132561
H4    H     H_    0.774270 0.365872 0.600204 0.132875
H5    H     H_    0.129507 0.888946 0.329378 0.119994
H6    H     H_    0.870010 0.406166 0.670156 0.120054
C7    C     C_R   0.119775 0.936606 0.172304 -0.035851
C8    C     C_R   0.880087 0.437443 0.827774 -0.036050
C9    C     C_R   0.396558 0.881715 0.274113 0.167981
C10   C     C_R   0.603283 0.373618 0.726267 0.177924
C11   C     C_R   0.357399 0.904586 0.211977 -0.162027
C12   C     C_R   0.642772 0.388742 0.788717 -0.140921
C13   C     C_R   0.300008 0.908530 0.201430 -0.180527
C14   C     C_R   0.700128 0.394772 0.799071 -0.187192
C15   C     C_R   0.279064 0.890591 0.253103 0.035273
C16   C     C_R   0.720908 0.386527 0.747069 0.033342
C17   C     C_R   0.318972 0.863926 0.317709 0.016805
C18   C     C_R   0.680916 0.365464 0.682268 0.022430
C19   C     C_R   0.219608 0.901519 0.242280 0.082190
C20   C     C_R   0.780296 0.401068 0.757811 0.083108
C21   C     C_R   0.201174 0.887423 0.296251 0.103710
C22   C     C_R   0.798577 0.394779 0.703585 0.103493
C23   C     C_R   0.239992 0.860224 0.358352 -0.235917
C24   C     C_R   0.759702 0.371856 0.641297 -0.237475
C25   C     C_R   0.297818 0.847653 0.369741 0.162255
C26   C     C_R   0.701945 0.356714 0.629956 0.164575
C27   C     C_R   0.177394 0.925736 0.179825 -0.201536
C28   C     C_R   0.822573 0.422153 0.820385 -0.200876
C29   C     C_R   0.103336 0.923767 0.226687 -0.161689
C30   C     C_R   0.896363 0.431991 0.773162 -0.161850
C31   C     C_R   0.378471 0.858014 0.327603 -0.086800
C32   C     C_R   0.621459 0.357150 0.672472 -0.098756
H7    H     H_    0.187423 0.933705 0.135985 0.090778
H8    H     H_    0.812658 0.425416 0.864358 0.090984
H9    H     H_    0.273151 0.928875 0.151863 0.120060
H10   H     H_    0.727126 0.408779 0.848875 0.120453
H11   H     H_    0.371805 0.921927 0.171141 0.125273
H12   H     H_    0.628945 0.399389 0.830190 0.119962
C33   C     C_R   0.110465 0.773896 0.868821 -0.166379
C34   C     C_R   0.889478 0.273676 0.131075 -0.166259
H13   H     H_    0.086664 0.651300 0.871440 0.132402
H14   H     H_    0.913256 0.151015 0.128412 0.132468
C35   C     C_R   0.146293 0.766220 0.832332 -0.196685
C36   C     C_R   0.853638 0.265910 0.167544 -0.196672
H15   H     H_    0.148610 0.637955 0.807899 0.164468
H16   H     H_    0.851295 0.137546 0.191937 0.164437
C37   C     C_R   0.178054 0.921263 0.826600 0.006020
C38   C     C_R   0.821918 0.421034 0.173338 0.005998
C39   C     C_R   0.173261 0.086590 0.859505 0.221111
C40   C     C_R   0.826734 0.586510 0.140500 0.221164
C41   C     C_R   0.136296 0.093070 0.895273 -0.202010
C42   C     C_R   0.863711 0.593085 0.104750 -0.201820
H17   H     H_    0.132986 0.219866 0.920035 0.122215
H18   H     H_    0.867049 0.720001 0.080043 0.122269
C43   C     C_R   0.104654 0.937718 0.900425 -0.073245
C44   C     C_R   0.895331 0.437663 0.099550 -0.073397
N1    N     N_R   0.238299 0.060414 0.769596 -0.232563
N2    N     N_R   0.762209 0.560384 0.230949 -0.232397
N3    N     N_R   0.271547 0.048008 0.733972 -0.286691
N4    N     N_R   0.728998 0.548014 0.266616 -0.286809
C45   C     C_R   0.283104 0.881637 0.712569 0.510997
C46   C     C_R   0.716974 0.381462 0.287470 0.510818
N5    N     N_R   0.259479 0.727794 0.728166 -0.274197
N6    N     N_R   0.740093 0.227371 0.271279 -0.274245
N7    N     N_R   0.226252 0.740403 0.764061 -0.279611
N8    N     N_R   0.773288 0.239946 0.235344 -0.279525
C47   C     C_R   0.215145 0.907153 0.786025 0.520251
C48   C     C_R   0.784853 0.406906 0.213927 0.520016
C49   C     C_R   0.328452 0.706057 0.643425 -0.142683
C50   C     C_R   0.671141 0.205459 0.356044 -0.144067
H19   H     H_    0.305143 0.582780 0.646569 0.149343
H20   H     H_    0.693987 0.081547 0.352349 0.149161
C51   C     C_R   0.365090 0.699152 0.607663 -0.226240
C52   C     C_R   0.634563 0.198768 0.391881 -0.222346
H21   H     H_    0.368458 0.570671 0.583904 0.154486
H22   H     H_    0.630827 0.069869 0.415204 0.155283
C53   C     C_R   0.396521 0.855584 0.602066 -0.071237
C54   C     C_R   0.603680 0.355927 0.398153 -0.071311
C55   C     C_R   0.390315 0.021078 0.634038 0.196976
C56   C     C_R   0.610588 0.522318 0.367009 0.193692
C57   C     C_R   0.352708 0.026613 0.668744 -0.169070
C58   C     C_R   0.648100 0.527481 0.332176 -0.170689
H23   H     H_    0.348646 0.153872 0.692828 0.137685
H24   H     H_    0.652716 0.655377 0.308745 0.137473
C59   C     C_R   0.321632 0.870371 0.674141 -0.007306
C60   C     C_R   0.678499 0.370345 0.325966 -0.006781
O11   O     O_R   0.953220 0.285790 0.047790 -0.537725
O12   O     O_R   0.046780 0.785790 0.952210 -0.537675
O13   O     O_R   0.939020 0.617570 0.916840 -0.535669
O14   O     O_R   0.060980 0.117570 0.083160 -0.535714
C61   C     C_R   0.924032 0.448296 0.892619 0.680569
C62   C     C_R   0.075914 0.948177 0.107416 0.680488
O15   O     O_R   0.946600 0.615450 0.045180 -0.541732
O16   O     O_R   0.053400 0.115450 0.954820 -0.541695
O17   O     O_R   0.054370 0.786770 0.081410 -0.531147
O18   O     O_R   0.945630 0.286770 0.918590 -0.531114
C63   C     C_R   0.934344 0.446927 0.061656 0.687982
C64   C     C_R   0.065652 0.946931 0.938338 0.688070
O19   O     O_3   0.035300 0.454160 0.011680 -0.373953
O20   O     O_3   0.964700 0.954160 0.988320 -0.373971
V3    V     V_3+5 0.993450 0.728620 0.997830 1.412490
V4    V     V_3+5 0.006550 0.228620 0.002170 1.412345
N9    N     N_3   0.206473 0.246765 0.857787 -0.625333
H25   H     H_    0.194121 0.360456 0.879185 0.218283
H26   H     H_    0.248172 0.217458 0.886461 0.233440
N10   N     N_3   0.793514 0.746713 0.142255 -0.625277
H27   H     H_    0.805756 0.860356 0.120723 0.218362
H28   H     H_    0.751789 0.717391 0.113722 0.233485
N11   N     N_3   0.423372 0.182153 0.633147 -0.640661
H29   H     H_    0.412115 0.293511 0.656584 0.219022
H30   H     H_    0.465093 0.149385 0.660424 0.251624
N12   N     N_3   0.578649 0.685216 0.369219 -0.637395
H31   H     H_    0.589755 0.795888 0.345358 0.219468
H32   H     H_    0.536521 0.655143 0.342963 0.239616
N13   N     N_3   0.455508 0.886380 0.283042 -0.703510
H33   H     H_    0.464648 0.015722 0.267694 0.232482
H34   H     H_    0.463272 0.786334 0.252708 0.220213
N14   N     N_3   0.544052 0.377609 0.716949 -0.706035
H35   H     H_    0.537520 0.372999 0.761486 0.227761
H36   H     H_    0.528109 0.504661 0.695683 0.226947
N15   N     N_3   0.334384 0.819194 0.435148 -0.688097
H37   H     H_    0.328086 0.927922 0.463363 0.226396
H38   H     H_    0.322642 0.696051 0.452099 0.229913
N16   N     N_3   0.665322 0.333435 0.564308 -0.687284
H39   H     H_    0.677327 0.213206 0.545907 0.228204
H40   H     H_    0.671211 0.445861 0.537289 0.228375

loop_
_geom_bond_atom_site_label_1
_geom_bond_atom_site_label_2
_ccdc_geom_bond_type
C34   C36   A    
C38   C40   A    
C49   C51   A    
O12   V3    S    
C9    C11   A    
C23   C25   A    
O14   V4    S    
C57   C59   A    
O1    C3    A    
C52   C54   A    
C55   N11   S    
O2    C4    A    
C40   N10   S    
C2    O7    A    
C4    C31   S    
O3    V1    S    
C21   C23   A    
O5    C3    A    
C5    H5    S    
C43   C64   S    
C46   C60   S    
C6    H6    S    
O15   V3    S    
C20   C22   A    
N2    N4    A    
N10   H28   S    
O10   V1    S    
N4    C46   A    
C33   H13   S    
C27   H7    S    
C7    C27   A    
C34   H14   S    
C28   H8    S    
C58   C60   A    
C41   H17   S    
C5    C21   A    
C33   C43   A    
C33   C35   A    
C35   H15   S    
C6    C22   A    
O20   V3    S    
C36   H16   S    
C55   C57   A    
O17   V3    S    
C10   C32   A    
N1    C47   A    
C50   C52   A    
C37   C39   A    
C54   C56   A    
C17   C31   A    
C13   C15   A    
O11   V4    S    
C25   N15   S    
C17   C25   A    
C7    C29   A    
C8    C30   A    
C22   C24   A    
N16   H40   S    
O6    V2    S    
C10   N14   S    
O13   C61   A    
C45   C59   S    
C24   C26   A    
C39   N9    S    
C14   H10   S    
N5    N7    A    
N3    C45   A    
N9    H26   S    
C36   C38   A    
C9    N13   S    
C26   N16   S    
N14   H36   S    
O19   V4    S    
C45   N5    A    
C11   H11   S    
C12   H12   S    
C15   C19   A    
O12   C64   A    
C39   C41   A    
C14   C16   A    
O4    V2    S    
N12   H32   S    
N11   H30   S    
C42   C44   A    
C51   H21   S    
C62   O17   A    
O6    C4    A    
C56   N12   S    
C52   H22   S    
H1    C29   S    
O1    V2    S    
C13   H9    S    
C41   C43   A    
O2    V1    S    
N1    N3    A    
C8    C61   S    
N9    H25   S    
H2    C30   S    
C7    C62   S    
H3    C23   S    
C61   O18   A    
C46   N6    A    
C57   H23   S    
C50   H20   S    
C56   C58   A    
C49   H19   S    
N13   H33   S    
C49   C59   A    
C18   C26   A    
O4    C2    A    
C19   C27   A    
N11   H29   S    
N2    C48   A    
O16   C64   A    
C1    C54   S    
C18   C32   A    
C34   C44   A    
O16   V4    S    
C58   H24   S    
N7    C47   A    
C16   C20   A    
O11   C63   A    
C5    C29   A    
N8    C48   A    
N14   H35   S    
O3    C1    A    
C6    C30   A    
C38   C48   S    
C42   H18   S    
N15   H37   S    
C53   C55   A    
C37   C47   S    
N6    N8    A    
O13   V3    S    
C10   C12   A    
N12   H31   S    
O7    V1    S    
C1    O8    A    
C19   C21   A    
C3    C32   S    
O8    V2    S    
C12   C14   A    
N15   H38   S    
H4    C24   S    
C44   C63   S    
O5    V1    S    
C15   C17   A    
O14   C62   A    
C16   C18   A    
C20   C28   A    
C8    C28   A    
C51   C53   A    
C35   C37   A    
C11   C13   A    
C2    C53   S    
O9    V2    S    
N13   H34   S    
C40   C42   A    
N16   H39   S    
O15   C63   A    
C50   C60   A    
O18   V4    S    
C9    C31   A    
N10   H27   S    
