data_mof_unit_28419.cif
_audit_creation_date              2012-10-26T19:40:59-0400
_audit_creation_method            fapswitch 2.2
_symmetry_space_group_name_H-M    P1
_symmetry_Int_Tables_number       1
_space_group_crystal_system       triclinic
_cell_length_a                    11.695292
_cell_length_b                    11.097226
_cell_length_c                    10.155387
_cell_angle_alpha                 111.81397
_cell_angle_beta                  99.511249
_cell_angle_gamma                 93.384117
_cell_volume                      1196.33774402

loop_
_atom_site_label
_atom_site_type_symbol
_atom_type_description
_atom_site_fract_x
_atom_site_fract_y
_atom_site_fract_z
_atom_type_partial_charge
C1    C     C_R   0.493698 0.254780 0.440322 0.532223
C2    C     C_2   0.518115 0.885840 0.591940 -0.105039
C3    C     C_2   0.523068 0.068380 0.511535 0.227183
C4    C     C_2   0.481582 0.932186 0.488605 0.238648
C5    C     C_2   0.509953 0.512352 0.081114 0.167926
C6    C     C_2   0.488614 0.489368 0.919358 0.162709
C7    C     C_3   0.293438 0.875929 0.354987 -0.003831
C8    C     C_3   0.221921 0.769555 0.380305 -0.235020
C9    C     C_3   0.093363 0.790197 0.369832 -0.496781
C10   C     C_3   0.707873 0.176518 0.630382 0.035484
C11   C     C_3   0.781160 0.069397 0.641738 -0.288694
C12   C     C_R   0.507050 0.745383 0.559643 0.536875
C13   C     C_3   0.908433 0.103319 0.637145 -0.486556
C14   C     C_3   0.396395 0.377862 0.816699 -0.295225
C15   C     C_3   0.611951 0.612559 0.181036 -0.293574
C16   C     C_3   0.634287 0.671270 0.937829 -0.210415
C17   C     C_3   0.343704 0.354395 0.068532 -0.209281
C18   C     C_R   0.284438 0.498992 0.498776 0.528263
C19   C     C_R   0.715519 0.500351 0.501087 0.529229
C20   C     C_1   0.162210 0.498272 0.497250 -0.040618
C21   C     C_1   0.837671 0.499929 0.502475 -0.038793
C22   C     C_1   0.059746 0.498371 0.498580 -0.058647
C23   C     C_1   0.940109 0.499171 0.501175 -0.058464
C24   C     C_2   0.486219 0.114472 0.407657 -0.123857
Cu1   Cu    Cu3+1 0.519790 0.521810 0.644910 0.906811
Cu2   Cu    Cu3+1 0.480210 0.478190 0.355090 0.910184
H1    H     H_    0.565497 0.951008 0.698805 0.101431
H2    H     H_    0.747108 0.270647 0.720628 0.170086
H3    H     H_    0.712667 0.191124 0.528450 0.123935
H4    H     H_    0.777673 0.057472 0.744986 0.164625
H5    H     H_    0.744996 0.974929 0.550304 0.149280
H6    H     H_    0.914233 0.113206 0.533445 0.147071
H7    H     H_    0.959096 0.024108 0.645771 0.143398
H8    H     H_    0.947714 0.196453 0.728884 0.147022
H9    H     H_    0.424265 0.283235 0.813100 0.129300
H10   H     H_    0.309199 0.395186 0.841482 0.068189
H11   H     H_    0.376421 0.363894 0.705014 0.199840
H12   H     H_    0.440964 0.048786 0.299965 0.094545
H13   H     H_    0.598871 0.711229 0.185003 0.103230
H14   H     H_    0.625747 0.633739 0.294529 0.199039
H15   H     H_    0.695143 0.578593 0.152879 0.085625
H16   H     H_    0.667774 0.701037 0.857639 0.174972
H17   H     H_    0.592527 0.755509 0.000147 0.102141
H18   H     H_    0.715089 0.652381 0.995857 0.077226
H19   H     H_    0.316479 0.317285 0.146886 0.174990
H20   H     H_    0.270233 0.404617 0.039667 0.093967
H21   H     H_    0.357341 0.263171 0.983051 0.080818
H22   H     H_    0.256475 0.873372 0.245772 0.142820
H23   H     H_    0.283405 0.974436 0.434310 0.103222
H24   H     H_    0.228775 0.672152 0.297926 0.199358
H25   H     H_    0.257247 0.771303 0.489568 0.163766
H26   H     H_    0.084218 0.886125 0.453088 0.142114
H27   H     H_    0.043662 0.711551 0.388211 0.157966
H28   H     H_    0.055400 0.787007 0.260660 0.142004
N1    N     N_2   0.450460 0.445430 0.137370 -0.237110
N2    N     N_2   0.549540 0.554570 0.862630 -0.238043
O1    O     O_R   0.510560 0.332330 0.577400 -0.466087
O2    O     O_3   0.591737 0.149021 0.645176 -0.579607
O3    O     O_R   0.489440 0.667670 0.422600 -0.455255
O4    O     O_R   0.477140 0.295500 0.332650 -0.509036
O5    O     O_R   0.522860 0.704500 0.667350 -0.519563
O6    O     O_R   0.353910 0.518430 0.622380 -0.507926
O7    O     O_R   0.646090 0.481570 0.377620 -0.511500
O8    O     O_R   0.320490 0.481600 0.377630 -0.515206
O9    O     O_R   0.679510 0.518400 0.622370 -0.504429
O10   O     O_3   0.411036 0.850581 0.357023 -0.568956

loop_
_geom_bond_atom_site_label_1
_geom_bond_atom_site_label_2
_ccdc_geom_bond_type
C24   H12   S    
Cu2   O7    S    
C16   N2    S    
C13   H7    S    
C2    H1    S    
C1    O1    A    
C6    C14   S    
Cu2   O3    S    
C16   H18   S    
C13   H6    S    
C2    C4    D    
C16   H17   S    
Cu1   N2    S    
C2    C12   S    
C7    H22   S    
C11   H5    S    
C7    C8    S    
Cu1   O5    S    
Cu2   N1    S    
C14   H11   S    
C4    O10   S    
C12   O5    A    
C11   C13   S    
C8    H25   S    
C15   H13   S    
C3    C24   D    
C9    H26   S    
Cu1   O1    S    
C10   H3    S    
C19   C21   S    
C17   H19   S    
C19   O9    A    
C18   C20   S    
Cu1   O6    S    
C21   C23   T    
C14   H10   S    
C5    C6    S    
C15   H14   S    
C5    C15   S    
C9    H27   S    
C10   C11   S    
C20   C22   T    
C15   H15   S    
C10   H2    S    
C3    C4    S    
C18   O8    A    
C3    O2    S    
C8    H24   S    
C13   H8    S    
Cu1   O9    S    
C17   H20   S    
C7    H23   S    
C1    C24   S    
C1    O4    A    
C6    N2    D    
C14   H9    S    
C17   N1    S    
C22   C23   S    
C18   O6    A    
Cu2   O8    S    
C9    H28   S    
C10   O2    S    
Cu1   Cu2   S    
C12   O3    A    
Cu2   O4    S    
C5    N1    D    
C17   H21   S    
C11   H4    S    
C19   O7    A    
C8    C9    S    
C7    O10   S    
C16   H16   S    
