data_mof_unit_39425.cif
_audit_creation_date              2012-12-11T14:49:23-0500
_audit_creation_method            fapswitch 2.2
_symmetry_space_group_name_H-M    P1
_symmetry_Int_Tables_number       1
_space_group_crystal_system       triclinic
_cell_length_a                    17.023554
_cell_length_b                    16.677758
_cell_length_c                    19.613888
_cell_angle_alpha                 117.979226
_cell_angle_beta                  63.779386
_cell_angle_gamma                 100.390659
_cell_volume                      4409.20036723

loop_
_atom_site_label
_atom_site_type_symbol
_atom_type_description
_atom_site_fract_x
_atom_site_fract_y
_atom_site_fract_z
_atom_type_partial_charge
C1    C     C_R   0.017485 0.761702 0.036933 -0.175518
C2    C     C_R   0.749942 0.490249 0.251387 -0.157353
C3    C     C_R   0.751401 0.443817 0.920798 -0.259239
C4    C     C_R   0.066935 0.733761 0.237969 0.094016
C5    C     C_R   0.260488 0.518787 0.966825 -0.114983
C6    C     C_R   0.976991 0.246600 0.828082 -0.058842
C7    C     C_R   0.160263 0.503870 0.758136 -0.130185
C8    C     C_R   0.027417 0.312064 0.074155 -0.123385
C9    C     C_R   0.948985 0.243896 0.999329 -0.100779
C10   C     C_R   0.239183 0.571896 0.835086 -0.131224
C11   C     C_R   0.192386 0.441634 0.043945 -0.118065
C12   C     C_R   0.752825 0.449220 0.171378 0.416078
C13   C     C_R   0.044367 0.325508 0.753061 -0.059983
C14   C     C_R   0.273094 0.456235 0.989517 0.049466
C15   C     C_R   0.035814 0.238957 0.748262 0.023596
C16   C     C_R   0.237608 0.544981 0.758397 0.077599
C17   C     C_R   0.989219 0.230259 0.041190 0.085744
C18   C     C_R   0.056871 0.070594 0.673144 -0.185998
C19   C     C_R   0.079580 0.155374 0.672346 0.106802
C20   C     C_R   0.137469 0.159327 0.596153 -0.239662
C21   C     C_R   0.158518 0.081180 0.519592 0.159093
C22   C     C_R   0.124420 0.997834 0.519946 0.085092
C23   C     C_R   0.822015 0.498943 0.902974 0.519399
C24   C     C_R   0.078074 0.991709 0.597133 0.052886
C25   C     C_R   0.205452 0.086757 0.442715 -0.227473
C26   C     C_R   0.210004 0.012757 0.367193 -0.092588
C27   C     C_R   0.167457 0.932586 0.367999 -0.039391
C28   C     C_R   0.128907 0.923258 0.444062 -0.082741
C29   C     C_R   0.087357 0.842678 0.445887 -0.023858
C30   C     C_R   0.050755 0.833632 0.522047 0.492248
C31   C     C_R   0.046111 0.908420 0.597196 -0.279658
C32   C     C_R   0.155745 0.865541 0.296370 0.690398
C33   C     C_R   0.102975 0.791327 0.301621 -0.109412
C34   C     C_R   0.018958 0.657197 0.236552 -0.062262
C35   C     C_R   0.075719 0.777213 0.374097 -0.233519
C36   C     C_R   0.386440 0.496279 0.664725 -0.258344
C37   C     C_R   0.311945 0.541662 0.686169 0.100191
C38   C     C_R   0.307376 0.577660 0.636935 -0.237573
C39   C     C_R   0.380323 0.569361 0.564168 0.120165
C40   C     C_R   0.456111 0.522174 0.541014 0.091518
C41   C     C_R   0.458685 0.484998 0.591437 0.144949
C42   C     C_R   0.378775 0.606789 0.514183 -0.180793
C43   C     C_R   0.452630 0.598202 0.441402 -0.146231
C44   C     C_R   0.527493 0.551196 0.418177 0.132216
C45   C     C_R   0.759362 0.419144 0.975381 0.698138
C46   C     C_R   0.529154 0.511995 0.467547 -0.045502
C47   C     C_R   0.603993 0.462698 0.443429 -0.116366
C48   C     C_R   0.605141 0.424667 0.493208 -0.069156
C49   C     C_R   0.532694 0.436480 0.567595 -0.214255
C50   C     C_R   0.601421 0.543273 0.346697 -0.263589
C51   C     C_R   0.674900 0.495756 0.324403 -0.002634
C52   C     C_R   0.676487 0.453256 0.370172 0.772227
C53   C     C_R   0.675913 0.417005 0.896752 -0.034199
C54   C     C_R   0.356631 0.418769 0.966999 0.114007
C55   C     C_R   0.445907 0.375474 0.012165 -0.141455
C56   C     C_R   0.081280 0.737341 0.164099 -0.092958
C57   C     C_R   0.364133 0.390917 0.021219 -0.164470
C58   C     C_R   0.431021 0.420015 0.897080 -0.189416
C59   C     C_R   0.513729 0.406616 0.888922 0.095566
C60   C     C_R   0.520458 0.388903 0.949586 0.131628
C61   C     C_R   0.600397 0.394290 0.952987 -0.265362
C62   C     C_R   0.670894 0.422194 0.828861 0.860603
C63   C     C_R   0.589677 0.417967 0.825842 -0.408682
C64   C     C_R   0.780068 0.189818 0.234304 0.287152
C65   C     C_R   0.903298 0.865195 0.062250 0.030468
C66   C     C_R   0.759638 0.940371 0.135665 -0.199660
C67   C     C_R   0.831922 0.518346 0.247988 0.462456
C68   C     C_R   0.811996 0.861373 0.088398 -0.160537
C69   C     C_R   0.942547 0.950984 0.083462 0.396094
C70   C     C_R   0.889107 0.031593 0.133772 0.031993
C71   C     C_R   0.797042 0.025472 0.159418 0.126079
C72   C     C_R   0.743406 0.104755 0.209050 -0.270045
C73   C     C_R   0.870258 0.196708 0.210288 -0.175262
C74   C     C_R   0.924709 0.118494 0.160130 -0.171728
C75   C     C_R   0.937914 0.694658 0.961895 0.738030
C76   C     C_R   0.954806 0.778782 0.017784 -0.072144
H1    H     H_    0.042675 0.810329 0.082164 0.189606
H2    H     H_    0.954461 0.192472 0.846688 0.101142
H3    H     H_    0.136286 0.482470 0.709681 0.131691
H4    H     H_    0.054547 0.329358 0.119623 0.116298
H5    H     H_    0.903606 0.198242 0.975541 0.133891
H6    H     H_    0.287208 0.613122 0.857685 0.119065
H7    H     H_    0.178690 0.398343 0.074557 0.101613
H8    H     H_    0.083565 0.345334 0.703248 0.103395
H9    H     H_    0.016181 0.065820 0.731736 0.127103
H10   H     H_    0.160384 0.223618 0.594824 0.123202
H11   H     H_    0.233505 0.150066 0.441546 0.144349
H12   H     H_    0.241830 0.020674 0.309254 0.192057
H13   H     H_    0.037988 0.719258 0.378233 0.214751
H14   H     H_    0.012752 0.902827 0.656293 0.187299
H15   H     H_    0.386835 0.467458 0.704067 0.129505
H16   H     H_    0.247719 0.612056 0.655693 0.151523
H17   H     H_    0.320898 0.642985 0.531654 0.150245
H18   H     H_    0.451295 0.628071 0.403321 0.135712
H19   H     H_    0.602519 0.574347 0.308488 0.163130
H20   H     H_    0.662088 0.386817 0.475339 0.189180
H21   H     H_    0.534314 0.407535 0.606250 0.139633
H22   H     H_    0.600361 0.389882 0.006290 0.222327
H23   H     H_    0.450773 0.360068 0.058109 0.151415
H24   H     H_    0.585827 0.427349 0.776316 0.182056
H25   H     H_    0.307823 0.387983 0.074866 0.128323
H26   H     H_    0.425120 0.438124 0.853165 0.115137
H27   H     H_    0.673084 0.101084 0.228787 0.141701
H28   H     H_    0.015246 0.621527 0.271319 0.166554
H29   H     H_    0.898049 0.263075 0.230386 0.181761
H30   H     H_    0.689372 0.934819 0.155175 0.150688
H31   H     H_    0.994318 0.127017 0.142950 0.196990
H32   H     H_    0.780277 0.796757 0.074268 0.180716
H33   H     H_    0.126754 0.779113 0.136834 0.195584
H34   H     H_    0.309854 0.547563 0.927392 0.101193
N1    N     N_R   0.036080 0.671900 0.995420 -0.090730
N2    N     N_R   0.954660 0.334720 0.880230 -0.045283
N3    N     N_R   0.116260 0.502360 0.832930 -0.048003
N4    N     N_R   0.012950 0.371090 0.051890 -0.050832
N5    N     N_R   0.963920 0.328100 0.004580 -0.049247
N6    N     N_R   0.165290 0.545350 0.880240 -0.046689
N7    N     N_R   0.132570 0.490700 0.051900 -0.045467
N8    N     N_R   0.996640 0.382750 0.832930 -0.049828
N9    N     N_R   0.834710 0.454650 0.119760 -0.115843
N10   N     N_R   0.867430 0.509300 0.948100 -0.158373
N11   N     N_R   0.003360 0.617250 0.167070 -0.056851
N12   N     N_R   0.825450 0.461270 0.995400 -0.151944
N13   N     N_R   0.045340 0.665280 0.119770 -0.069442
N14   N     N_R   0.883740 0.497640 0.167070 -0.127379
N15   N     N_R   0.987050 0.628910 0.948110 -0.113486
N16   N     N_R   0.174550 0.538730 0.004600 -0.043405
Ni1   Ni    Ni4+2 0.104370 0.604370 0.000010 0.219036
Ni2   Ni    Ni4+2 0.895630 0.395630 0.999990 0.292382
Ni3   Ni    Ni4+2 0.991920 0.505780 0.891500 0.288182
Ni4   Ni    Ni4+2 0.008080 0.494220 0.108500 0.235230
Cl1   Cl    Cl    0.670963 0.381084 0.142625 -0.597728
F1    F     F_    0.190336 0.877132 0.224766 -0.723111
Cl2   Cl    Cl    0.003822 0.732525 0.528029 -0.570700
Cl3   Cl    Cl    0.875010 0.509505 0.807872 -0.451233
F2    F     F_    0.747998 0.402663 0.342857 -0.698238
F3    F     F_    0.742268 0.429831 0.764713 -0.624213
Cl4   Cl    Cl    0.058132 0.957216 0.043386 -0.651527
F4    F     F_    0.736469 0.335834 0.972639 -0.642483
Cl5   Cl    Cl    0.864423 0.557432 0.331425 -0.597419
F5    F     F_    0.878015 0.681405 0.930298 -0.673625

loop_
_geom_bond_atom_site_label_1
_geom_bond_atom_site_label_2
_ccdc_geom_bond_type
C66   C68   A    
C40   C41   A    
N16   Ni1   S    
C12   Cl1   S    
C42   H17   S    
C1    H1    S    
C73   C74   A    
C3    C23   A    
C19   C20   A    
N11   Ni4   S    
C75   C76   A    
C2    C12   A    
C67   N14   A    
C13   N8    A    
N9    N14   A    
C40   C46   A    
C13   H8    S    
C26   C27   A    
C37   C38   A    
C65   C76   S    
N3    Ni3   S    
C18   C24   A    
C28   C29   A    
C75   F5    S    
C38   C39   A    
C11   C14   A    
C50   H19   S    
C6    H2    S    
C5    H34   S    
C38   H16   S    
C25   H11   S    
C43   H18   S    
C18   C19   A    
C62   F3    S    
C74   H31   S    
C46   C47   A    
C53   C61   A    
C66   C71   A    
C44   C46   A    
N6    Ni1   S    
C20   H10   S    
C5    N16   A    
N1    N15   A    
C64   C73   A    
C70   C71   A    
C58   H26   S    
C29   C30   A    
C67   Cl5   S    
N7    N16   A    
C8    N4    A    
C16   C37   S    
N3    N6    A    
N9    Ni2   S    
C65   C68   A    
C6    C15   A    
C59   C60   A    
C22   C28   A    
C21   C22   A    
C4    C56   A    
N4    Ni4   S    
C36   C41   A    
C66   H30   S    
C41   C49   A    
N10   N12   A    
N4    N5    A    
C39   C42   A    
C69   Cl4   S    
C4    C34   A    
C18   H9    S    
N2    Ni2   S    
C51   C52   A    
C9    N5    A    
C56   N13   A    
C2    C67   A    
C23   N10   A    
C11   H7    S    
C58   C59   A    
C3    C45   A    
C34   H28   S    
N5    Ni2   S    
N10   Ni3   S    
C60   C61   A    
C75   N15   A    
C15   C19   S    
C43   C44   A    
C70   C74   A    
C63   H24   S    
C12   N9    A    
C53   C62   A    
N13   Ni1   S    
C47   C48   A    
C31   H14   S    
C62   C63   A    
C50   C51   A    
N14   Ni4   S    
N7    Ni4   S    
C5    C14   A    
C35   H13   S    
C36   H15   S    
C9    C17   A    
C48   C49   A    
C14   C54   S    
C34   N11   A    
C13   C15   A    
N1    Ni1   S    
C30   Cl2   S    
C22   C24   A    
C42   C43   A    
C11   N7    A    
C56   H33   S    
C32   F1    S    
C10   N6    A    
C7    H3    S    
C54   C58   A    
C44   C50   A    
C21   C25   A    
C4    C33   S    
C36   C37   A    
C48   H20   S    
C23   Cl3   S    
C27   C32   A    
C1    C76   A    
C6    N2    A    
C7    C16   A    
C47   C52   A    
C72   H27   S    
C45   N12   A    
C57   H25   S    
C29   C35   A    
C59   C63   A    
C8    C17   A    
C73   H29   S    
C32   C33   A    
C7    N3    A    
C55   C57   A    
C25   C26   A    
C24   C31   A    
C71   C72   A    
N8    Ni3   S    
C10   C16   A    
C1    N1    A    
N2    N8    A    
C3    C53   S    
C61   H22   S    
C30   C31   A    
C65   C69   A    
C45   F4    S    
C33   C35   A    
C10   H6    S    
C64   C72   A    
N12   Ni2   S    
C69   C70   A    
N11   N13   A    
C2    C51   S    
C49   H21   S    
C39   C40   A    
N15   Ni3   S    
C20   C21   A    
C26   H12   S    
C55   H23   S    
C27   C28   A    
C8    H4    S    
C52   F2    S    
C68   H32   S    
C55   C60   A    
C9    H5    S    
C54   C57   A    
