data_mof_unit_10746.cif
_audit_creation_date              2012-12-11T14:56:27-0500
_audit_creation_method            fapswitch 2.2
_symmetry_space_group_name_H-M    P1
_symmetry_Int_Tables_number       1
_space_group_crystal_system       triclinic
_cell_length_a                    10.497845
_cell_length_b                    10.671337
_cell_length_c                    17.089605
_cell_angle_alpha                 79.987347
_cell_angle_beta                  89.747012
_cell_angle_gamma                 119.026827
_cell_volume                      1639.72646456

loop_
_atom_site_label
_atom_site_type_symbol
_atom_type_description
_atom_site_fract_x
_atom_site_fract_y
_atom_site_fract_z
_atom_type_partial_charge
C1    C     C_R   0.278842 0.888398 0.132701 0.553299
C2    C     C_R   0.795505 0.418860 0.264185 -0.146638
C3    C     C_R   0.789775 0.413231 0.184537 -0.043912
C4    C     C_R   0.652751 0.351538 0.154283 -0.017897
C5    C     C_1   0.685018 0.831155 0.201755 -0.022689
C6    C     C_1   0.703962 0.807365 0.270441 -0.027178
C7    C     C_1   0.227619 0.853721 0.215450 -0.032576
C8    C     C_1   0.178992 0.834694 0.283008 -0.035121
C9    C     C_1   0.661929 0.358468 0.780396 -0.049026
C10   C     C_1   0.684576 0.402551 0.709804 -0.052970
C11   C     C_R   0.615381 0.713000 0.804502 -0.141869
C12   C     C_R   0.636700 0.282613 0.085413 0.531064
C13   C     C_R   0.598922 0.699129 0.726372 -0.136498
C14   C     C_R   0.669094 0.823038 0.665120 0.019913
C15   C     C_R   0.762463 0.960230 0.682492 -0.128383
C16   C     C_R   0.777563 0.975863 0.761347 -0.028506
C17   C     C_R   0.694143 0.852138 0.822963 0.009881
C18   C     C_R   0.241392 0.965534 0.759216 -0.134634
C19   C     C_R   0.229628 0.953728 0.680599 -0.129085
C20   C     C_R   0.160744 0.815573 0.661323 0.014730
C21   C     C_R   0.117109 0.689277 0.720542 -0.136943
C22   C     C_R   0.131613 0.700635 0.800135 -0.040197
C23   C     C_R   0.643356 0.855530 0.124292 0.537982
C24   C     C_R   0.189029 0.839643 0.819703 0.014190
C25   C     C_R   0.711698 0.772755 0.353602 0.556123
C26   C     C_R   0.687698 0.394164 0.395190 0.551534
C27   C     C_R   0.108329 0.812615 0.359871 0.543770
C28   C     C_R   0.677308 0.799768 0.585502 0.546207
C29   C     C_R   0.717431 0.446548 0.625848 0.559697
C30   C     C_R   0.101122 0.801984 0.585541 0.543296
C31   C     C_R   0.223358 0.863375 0.899337 0.553317
C32   C     C_R   0.640369 0.291072 0.861862 0.544230
C33   C     C_R   0.648402 0.867228 0.899363 0.536497
C34   C     C_R   0.526022 0.323413 0.201464 -0.054441
C35   C     C_R   0.532339 0.325429 0.283019 -0.052159
C36   C     C_R   0.667401 0.368224 0.314674 -0.011525
Cr1   Cr    Cr6+3 0.402240 0.783890 0.019450 1.080326
Cr2   Cr    Cr6+3 0.382360 0.097900 0.991800 1.053857
Cr3   Cr    Cr6+3 0.715380 0.118170 0.988700 1.089201
Cr4   Cr    Cr6+3 0.936650 0.882420 0.465510 1.059015
Cr5   Cr    Cr6+3 0.605770 0.565620 0.493360 1.041216
Cr6   Cr    Cr6+3 0.921340 0.550490 0.496380 1.027788
H1    H     H_    0.265734 0.052233 0.635311 0.150511
H2    H     H_    0.063487 0.581653 0.705611 0.152129
H3    H     H_    0.902242 0.464954 0.286593 0.155957
H4    H     H_    0.555537 0.615570 0.850728 0.146056
H5    H     H_    0.534375 0.590307 0.714067 0.143467
H6    H     H_    0.825205 0.054082 0.634540 0.137961
H7    H     H_    0.293855 0.074427 0.772393 0.151094
O1    O     O_R   0.521780 0.757110 0.108900 -0.509044
O2    O     O_R   0.513330 0.228330 0.898660 -0.508871
O3    O     O_R   0.739230 0.266130 0.888050 -0.470997
O4    O     O_R   0.712580 0.991850 0.918770 -0.488378
O5    O     O_3   0.499990 0.999980 0.999980 -0.289431
O6    O     O_R   0.083770 0.911170 0.376030 -0.485947
O7    O     O_R   0.808770 0.880340 0.383890 -0.478897
O8    O     O_R   0.584340 0.689460 0.394160 -0.495278
O9    O     O_R   0.614320 0.443940 0.423590 -0.500465
O10   O     O_R   0.805020 0.410040 0.421340 -0.513233
O11   O     O_R   0.049240 0.685450 0.403290 -0.503197
O12   O     O_R   0.275160 0.783810 0.101120 -0.467222
O13   O     O_R   0.077520 0.903010 0.551800 -0.506227
O14   O     O_R   0.802980 0.872780 0.546830 -0.497501
O15   O     O_R   0.578090 0.681300 0.569920 -0.520170
O16   O     O_R   0.608530 0.436370 0.586530 -0.496380
O17   O     O_R   0.798770 0.401880 0.597100 -0.499157
O18   O     O_R   0.043450 0.677890 0.566230 -0.520519
O19   O     O_3   0.821250 0.666180 0.485090 -0.304617
O20   O     O_R   0.237900 0.972600 0.090980 -0.485478
O21   O     O_R   0.511190 0.220540 0.061620 -0.514516
O22   O     O_R   0.736920 0.257720 0.063840 -0.488212
O23   O     O_R   0.710450 0.984050 0.081720 -0.488585
O24   O     O_R   0.524090 0.765520 0.933110 -0.513517
O25   O     O_R   0.277300 0.791600 0.938160 -0.476360
O26   O     O_R   0.240210 0.981010 0.915190 -0.515109
C37   C     C_1   0.389383 0.292128 0.167683 0.245557
N1    N     N_1   0.280404 0.267584 0.141041 -0.247760
C38   C     C_1   0.084432 0.569311 0.860289 0.227258
N2    N     N_1   0.047700 0.464615 0.908690 -0.222824
C39   C     C_1   0.400151 0.280498 0.333920 0.232708
N3    N     N_1   0.294867 0.244879 0.374440 -0.259046
C40   C     C_1   0.926086 0.465658 0.136240 0.234797
N4    N     N_1   0.034424 0.506017 0.097406 -0.222483
C41   C     C_1   0.877521 0.119386 0.776095 0.234580
N5    N     N_1   0.958396 0.234559 0.787336 -0.267537

loop_
_geom_bond_atom_site_label_1
_geom_bond_atom_site_label_2
_ccdc_geom_bond_type
Cr1   O25   S    
Cr2   O21   S    
C19   C20   A    
C25   O7    A    
C7    C8    T    
C20   C30   S    
Cr4   O14   S    
C25   O8    A    
C18   C24   A    
Cr5   O9    S    
C18   C19   A    
C27   O11   A    
C5    C6    T    
C27   O6    A    
C6    C25   S    
C2    C36   A    
C15   C16   A    
C35   C39   S    
C16   C41   S    
Cr4   O13   S    
C34   C35   A    
C32   O3    A    
C12   O21   A    
C9    C32   S    
C35   C36   A    
C16   C17   A    
Cr4   O7    S    
Cr2   O5    S    
Cr3   O23   S    
C4    C12   S    
C26   O10   A    
C30   O18   A    
Cr3   O3    S    
Cr2   O20   S    
C13   C14   A    
Cr6   O19   S    
C17   C33   S    
C15   H6    S    
C19   H1    S    
Cr5   O19   S    
Cr2   O26   S    
C2    H3    S    
C33   O4    A    
C4    C34   A    
C41   N5    T    
C22   C38   S    
Cr6   O11   S    
C13   H5    S    
C38   N2    T    
C31   O25   A    
Cr5   O16   S    
Cr2   O2    S    
C1    O20   A    
C32   O2    A    
C21   H2    S    
C31   O26   A    
C5    C23   S    
Cr4   O6    S    
C3    C40   S    
C37   N1    T    
C26   O9    A    
C29   O16   A    
Cr1   O5    S    
C28   O15   A    
C33   O24   A    
C12   O22   A    
C30   O13   A    
Cr6   O18   S    
C22   C24   A    
C3    C4    A    
C9    C10   T    
C26   C36   S    
Cr1   O24   S    
C11   C17   A    
C1    C7    S    
C23   O23   A    
C39   N3    T    
C23   O1    A    
C1    O12   A    
Cr6   O10   S    
Cr1   O12   S    
C2    C3    A    
C24   C31   S    
Cr5   O8    S    
Cr1   O1    S    
C11   C13   A    
C10   C29   S    
Cr3   O4    S    
C29   O17   A    
Cr3   O5    S    
C28   O14   A    
C20   C21   A    
C40   N4    T    
Cr4   O19   S    
Cr6   O17   S    
C8    C27   S    
Cr3   O22   S    
C14   C15   A    
C11   H4    S    
Cr5   O15   S    
C14   C28   S    
C21   C22   A    
C18   H7    S    
C34   C37   S    
