data_mof_unit_10902.cif
_audit_creation_date              2012-12-10T20:31:02-0500
_audit_creation_method            fapswitch 2.2
_symmetry_space_group_name_H-M    P1
_symmetry_Int_Tables_number       1
_space_group_crystal_system       triclinic
_cell_length_a                    14.866735
_cell_length_b                    10.749654
_cell_length_c                    9.934654
_cell_angle_alpha                 87.764059
_cell_angle_beta                  91.113573
_cell_angle_gamma                 91.082995
_cell_volume                      1585.90949669

loop_
_atom_site_label
_atom_site_type_symbol
_atom_type_description
_atom_site_fract_x
_atom_site_fract_y
_atom_site_fract_z
_atom_type_partial_charge
C1    C     C_R   0.501326 0.260250 0.502280 0.878453
C2    C     C_R   0.907977 0.610484 0.502848 0.082732
C3    C     C_R   0.949877 0.268995 0.482816 -0.216003
C4    C     C_R   0.042908 0.269225 0.477101 -0.220058
C5    C     C_R   0.092101 0.381410 0.483242 0.129601
C6    C     C_R   0.046741 0.495270 0.493957 0.007320
C7    C     C_R   0.095408 0.608701 0.503521 0.083696
C8    C     C_R   0.050997 0.721401 0.510713 -0.199585
C9    C     C_R   0.957630 0.723790 0.508579 0.096006
C10   C     C_R   0.185857 0.382541 0.480556 0.008502
C11   C     C_R   0.232204 0.496083 0.495241 -0.085785
C12   C     C_R   0.327423 0.499639 0.498701 0.881205
C13   C     C_R   0.188283 0.607793 0.506333 -0.285475
C14   C     C_R   0.451853 0.055260 0.592528 0.058839
C15   C     C_R   0.503543 0.128008 0.503472 -0.167359
C16   C     C_R   0.546190 0.071596 0.397467 -0.219871
C17   C     C_R   0.545054 0.943029 0.390084 0.087318
C18   C     C_R   0.498503 0.870952 0.489689 -0.141000
C19   C     C_R   0.447140 0.929049 0.583127 -0.026351
C20   C     C_3   0.433915 0.903100 0.730795 -0.118346
C21   C     C_3   0.440354 0.045943 0.743021 0.179643
C22   C     C_R   0.424214 0.468692 0.069870 0.131917
C23   C     C_R   0.501723 0.739372 0.497215 0.866065
C24   C     C_R   0.570141 0.548305 0.073983 -0.170524
C25   C     C_R   0.570402 0.551457 0.930617 0.129216
C26   C     C_R   0.422457 0.474009 0.927826 0.100082
C27   C     C_3   0.365225 0.358372 0.925340 -0.129936
C28   C     C_3   0.369092 0.350806 0.078691 -0.161138
C29   C     C_R   0.672567 0.499807 0.500992 0.874020
C30   C     C_R   0.814659 0.608664 0.503212 -0.310211
C31   C     C_R   0.767708 0.495998 0.502549 -0.070990
C32   C     C_R   0.810593 0.381610 0.497270 0.018050
C33   C     C_R   0.904157 0.381188 0.492357 0.140064
C34   C     C_R   0.952924 0.495680 0.496443 0.000141
H1    H     H_    0.777236 0.694106 0.505409 0.126396
H2    H     H_    0.490819 0.851693 0.778613 0.166982
H3    H     H_    0.626170 0.587609 0.130268 0.160599
H4    H     H_    0.403412 0.285965 0.879638 0.195304
H5    H     H_    0.303552 0.361753 0.128833 0.167511
H6    H     H_    0.914075 0.180459 0.479043 0.182709
H7    H     H_    0.075982 0.180921 0.469507 0.178629
H8    H     H_    0.226822 0.693931 0.515977 0.130013
H9    H     H_    0.088953 0.808234 0.517001 0.152789
H10   H     H_    0.583361 0.127025 0.323054 0.168650
N1    N     N_R   0.499390 0.499140 0.142800 -0.120818
N2    N     N_R   0.499390 0.499180 0.857150 -0.135164
O1    O     O_R   0.500010 0.316790 0.614690 -0.619033
O2    O     O_R   0.500000 0.316760 0.385350 -0.635629
O3    O     O_R   0.367850 0.499990 0.614680 -0.627573
O4    O     O_R   0.367840 0.499950 0.385340 -0.614435
O5    O     O_R   0.500000 0.683240 0.614650 -0.648501
O6    O     O_R   0.499990 0.683210 0.385310 -0.621396
O7    O     O_R   0.632160 0.500050 0.614660 -0.635656
O8    O     O_R   0.632150 0.500010 0.385320 -0.625190
Zn1   Zn    Zn3+2 0.500010 0.500020 0.653130 0.911185
Zn2   Zn    Zn3+2 0.499990 0.499980 0.346870 0.922516
N3    N     N_3   0.596575 0.889399 0.287187 -0.468467
H11   H     H_    0.552867 0.843072 0.221565 0.208843
H12   H     H_    0.641614 0.826019 0.332104 0.180193
C35   C     C_3   0.343392 0.836104 0.761277 -0.387275
C36   C     C_3   0.331416 0.813349 0.914074 -0.352887
C37   C     C_3   0.233038 0.821835 0.953467 -0.893980
H13   H     H_    0.210000 0.919177 0.938720 0.258888
H14   H     H_    0.189736 0.760761 0.891154 0.266263
H15   H     H_    0.225736 0.792636 0.061210 0.257432
H16   H     H_    0.356583 0.719636 0.944526 0.210386
H17   H     H_    0.371593 0.881351 0.972816 0.224914
H18   H     H_    0.285839 0.886590 0.713882 0.204157
H19   H     H_    0.342821 0.744168 0.713949 0.210630
N4    N     N_3   0.356027 0.103728 0.779383 -0.493311
H20   H     H_    0.336415 0.071370 0.874963 0.207716
H21   H     H_    0.303920 0.087473 0.709807 0.177684
C38   C     C_3   0.521657 0.091659 0.830817 -0.392829
C39   C     C_3   0.615025 0.042905 0.795592 -0.372526
C40   C     C_3   0.689535 0.110695 0.873145 -0.883325
H22   H     H_    0.689592 0.211921 0.845714 0.258563
H23   H     H_    0.679853 0.097097 0.983395 0.265850
H24   H     H_    0.755865 0.073025 0.847660 0.253496
H25   H     H_    0.619953 0.942165 0.822429 0.206248
H26   H     H_    0.627867 0.056961 0.686518 0.236560
H27   H     H_    0.525633 0.194440 0.823694 0.234186
H28   H     H_    0.508137 0.064814 0.937833 0.194427
C41   C     C_3   0.646698 0.625997 0.867777 -0.384774
C42   C     C_3   0.736075 0.556180 0.881514 -0.328010
C43   C     C_3   0.816064 0.643361 0.852094 -0.875797
H29   H     H_    0.804777 0.697133 0.756147 0.260683
H30   H     H_    0.825418 0.709773 0.934333 0.256347
H31   H     H_    0.878242 0.588522 0.844810 0.258398
H32   H     H_    0.745247 0.515682 0.985424 0.211590
H33   H     H_    0.736154 0.477989 0.811902 0.243829
H34   H     H_    0.631896 0.656825 0.763076 0.243233
H35   H     H_    0.653731 0.714691 0.921597 0.164205
C44   C     C_3   0.268545 0.368924 0.866785 -0.370000
C45   C     C_3   0.222962 0.493449 0.888791 -0.334210
C46   C     C_3   0.121741 0.483536 0.861430 -0.875841
H36   H     H_    0.107970 0.446917 0.760279 0.274015
H37   H     H_    0.089804 0.420085 0.938199 0.260083
H38   H     H_    0.091192 0.576646 0.866005 0.249574
H39   H     H_    0.234087 0.523041 0.993747 0.222985
H40   H     H_    0.252289 0.565721 0.818993 0.243278
H41   H     H_    0.269670 0.353216 0.757383 0.220729
H42   H     H_    0.227533 0.291187 0.912419 0.206376
N5    N     N_3   0.759617 0.266597 0.495957 -0.482430
H43   H     H_    0.716610 0.268794 0.411428 0.188634
H44   H     H_    0.720423 0.259635 0.582277 0.188428
N6    N     N_3   0.417648 0.239857 0.127219 -0.465466
H45   H     H_    0.487292 0.255658 0.128104 0.215648
H46   H     H_    0.397317 0.216181 0.225014 0.217903
N7    N     N_3   0.233380 0.269154 0.463416 -0.485665
H47   H     H_    0.270662 0.279324 0.375436 0.188900
H48   H     H_    0.278286 0.255496 0.544575 0.172824
N8    N     N_3   0.915422 0.842443 0.512326 -0.472524
H49   H     H_    0.875668 0.843618 0.597817 0.179106
H50   H     H_    0.874351 0.854547 0.426373 0.185988

loop_
_geom_bond_atom_site_label_1
_geom_bond_atom_site_label_2
_ccdc_geom_bond_type
C44   C45   S    
C38   C39   S    
C46   H36   S    
C8    H9    S    
N8    H50   S    
C12   O3    A    
N3    H11   S    
C46   H38   S    
C7    C8    A    
C43   H29   S    
C41   H35   S    
C26   C27   S    
N6    H46   S    
C30   H1    S    
C24   N1    A    
C45   H39   S    
C14   C21   S    
N7    H48   S    
C5    C6    A    
N3    H12   S    
N6    H45   S    
C3    C33   A    
C27   H4    S    
C15   C16   A    
C21   C38   S    
C10   N7    S    
C18   C19   A    
C13   H8    S    
C37   H14   S    
C36   H16   S    
C31   C32   A    
N1    Zn2   S    
C28   N6    S    
C8    C9    A    
N2    Zn1   S    
N4    H20   S    
C1    C15   S    
C20   C35   S    
C16   H10   S    
C2    C34   A    
C9    N8    S    
C43   H30   S    
C39   H26   S    
C4    H7    S    
C45   C46   S    
C42   H33   S    
C38   H27   S    
N8    H49   S    
C17   C18   A    
O7    Zn1   S    
O8    Zn2   S    
N4    H21   S    
C39   C40   S    
C18   C23   S    
C24   C25   A    
C24   H3    S    
C44   H41   S    
C16   C17   A    
C28   H5    S    
O3    Zn1   S    
O4    Zn2   S    
C6    C34   A    
C35   C36   S    
C40   H22   S    
C37   H13   S    
C36   H17   S    
C23   O5    A    
C41   C42   S    
C45   H40   S    
C33   C34   A    
C32   N5    S    
N5    H44   S    
C42   C43   S    
C40   H23   S    
C3    H6    S    
C39   H25   S    
C27   C44   S    
C42   H32   S    
C3    C4    A    
C38   H28   S    
N5    H43   S    
O1    Zn1   S    
C43   H31   S    
O2    Zn2   S    
C37   H15   S    
C14   C19   A    
C1    O1    A    
C4    C5    A    
C44   H42   S    
C12   O4    A    
C11   C12   S    
C46   H37   S    
C1    O2    A    
C6    C7    A    
C41   H34   S    
C21   N4    S    
C2    C30   A    
C29   O8    A    
C32   C33   A    
C19   C20   S    
C5    C10   A    
C29   C31   S    
N7    H47   S    
C11   C13   A    
C23   O6    A    
C30   C31   A    
C29   O7    A    
C35   H19   S    
O5    Zn1   S    
C36   C37   S    
C40   H24   S    
C10   C11   A    
C26   N2    A    
C20   H2    S    
C7    C13   A    
C22   N1    A    
C20   C21   S    
C35   H18   S    
C22   C26   A    
C27   C28   S    
C25   C41   S    
C14   C15   A    
C22   C28   S    
C2    C9    A    
C25   N2    A    
O6    Zn2   S    
C17   N3    S    
