data_mof_unit_31160.cif
_audit_creation_date              2013-03-05T15:49:12-0500
_audit_creation_method            fapswitch 2.2
_symmetry_space_group_name_H-M    P1
_symmetry_Int_Tables_number       1
_space_group_crystal_system       triclinic
_cell_length_a                    17.642105
_cell_length_b                    24.422044
_cell_length_c                    15.187892
_cell_angle_alpha                 90.003091
_cell_angle_beta                  126.603808
_cell_angle_gamma                 89.997228
_cell_volume                      5253.21639329

loop_
_atom_site_label
_atom_site_type_symbol
_atom_site_description
_atom_site_fract_x
_atom_site_fract_y
_atom_site_fract_z
_atom_type_partial_charge
C1    C     C_R   0.362886 0.154733 0.909019 0.474710
C2    C     C_R   0.366129 0.844115 0.913645 0.436928
C3    C     C_R   0.866140 0.655890 0.913666 0.437016
C4    C     C_R   0.862855 0.345274 0.909004 0.474542
N1    N     N_R   0.392450 0.103580 0.942190 -0.097909
N2    N     N_R   0.392450 0.896420 0.942190 -0.074776
N3    N     N_R   0.892450 0.603580 0.942190 -0.074808
N4    N     N_R   0.892450 0.396420 0.942190 -0.097897
C5    C     C_R   0.453315 0.846611 0.093957 -0.200448
C6    C     C_R   0.445488 0.153214 0.090456 -0.223546
C7    C     C_R   0.945481 0.346785 0.090446 -0.223583
C8    C     C_R   0.953329 0.653390 0.093974 -0.200386
H1    H     H_    0.500233 0.835271 0.179526 0.133428
H2    H     H_    0.484205 0.165348 0.175378 0.148039
H3    H     H_    0.984209 0.334642 0.175363 0.148043
H4    H     H_    0.000259 0.664729 0.179544 0.133432
N5    N     N_R   0.450490 0.896000 0.057360 -0.068234
N6    N     N_R   0.450490 0.104000 0.057360 -0.073005
N7    N     N_R   0.950490 0.396000 0.057360 -0.073024
N8    N     N_R   0.950490 0.604000 0.057360 -0.068233
C9    C     C_R   0.480270 0.045806 0.247192 -0.066919
C10   C     C_R   0.474884 0.954194 0.239487 0.008832
C11   C     C_R   0.974849 0.545803 0.239452 0.008899
C12   C     C_R   0.980198 0.454192 0.247100 -0.066641
H5    H     H_    0.476802 0.088102 0.265026 0.106581
H6    H     H_    0.461230 0.911633 0.243101 0.121073
H7    H     H_    0.961215 0.588365 0.243099 0.121030
H8    H     H_    0.976698 0.411895 0.264894 0.106585
N9    N     N_R   0.525490 0.028390 0.207550 -0.050823
N10   N     N_R   0.525490 0.971610 0.207550 -0.057330
N11   N     N_R   0.025490 0.528390 0.207550 -0.057248
N12   N     N_R   0.025490 0.471610 0.207550 -0.050801
C13   C     C_R   0.229137 0.955389 0.748845 -0.006710
C14   C     C_R   0.230096 0.047173 0.742093 -0.053186
C15   C     C_R   0.730107 0.452841 0.742302 -0.053685
C16   C     C_R   0.729170 0.544623 0.749005 -0.006129
N13   N     N_R   0.317450 0.971190 0.792000 -0.080858
N14   N     N_R   0.317450 0.028810 0.792000 -0.075362
N15   N     N_R   0.817450 0.471190 0.792000 -0.075255
N16   N     N_R   0.817450 0.528810 0.792000 -0.080829
C17   C     C_R   0.389869 0.185840 0.998957 0.048660
C18   C     C_R   0.398089 0.812793 0.006333 0.040391
C19   C     C_R   0.898109 0.687212 0.006366 0.040265
C20   C     C_R   0.889831 0.314167 0.998938 0.048787
C21   C     C_R   0.453206 0.999467 0.275385 0.088116
C22   C     C_R   0.953129 0.500525 0.275300 0.087976
C23   C     C_R   0.174404 0.001983 0.719849 0.073292
C24   C     C_R   0.674442 0.498039 0.720180 0.073204
C25   C     C_R   0.442410 0.044345 0.691843 -0.012903
C26   C     C_R   0.437829 0.954266 0.692045 0.096349
C27   C     C_R   0.937841 0.545730 0.692048 0.096314
C28   C     C_R   0.942416 0.455650 0.691844 -0.013005
N17   N     N_R   0.473900 0.028390 0.792280 -0.063599
N18   N     N_R   0.473900 0.971610 0.792280 -0.074849
N19   N     N_R   0.973900 0.528390 0.792280 -0.074869
N20   N     N_R   0.973900 0.471610 0.792280 -0.063613
C29   C     C_R   0.750590 0.953722 0.308372 0.058661
C30   C     C_R   0.752305 0.044721 0.309437 0.049107
C31   C     C_R   0.252324 0.455262 0.309417 0.048731
C32   C     C_R   0.250663 0.546262 0.308372 0.059122
N21   N     N_R   0.682310 0.971180 0.208170 -0.076645
N22   N     N_R   0.682310 0.028820 0.208170 -0.080943
N23   N     N_R   0.182310 0.471180 0.208170 -0.081080
N24   N     N_R   0.182310 0.528820 0.208170 -0.076630
C33   C     C_R   0.690539 0.123403 0.093852 0.067090
C34   C     C_R   0.688779 0.874517 0.094716 -0.099672
C35   C     C_R   0.188789 0.625492 0.094708 -0.099696
C36   C     C_R   0.190539 0.376594 0.093856 0.066930
H9    H     H_    0.747521 0.128657 0.179073 0.192012
H10   H     H_    0.743320 0.867743 0.180592 0.166507
H11   H     H_    0.243351 0.632266 0.180589 0.166504
H12   H     H_    0.247521 0.371349 0.179081 0.191978
N25   N     N_R   0.606470 0.103570 0.057210 -0.068940
N26   N     N_R   0.606470 0.896430 0.057210 -0.071523
N27   N     N_R   0.106470 0.603570 0.057210 -0.071491
N28   N     N_R   0.106470 0.396430 0.057210 -0.068924
C37   C     C_R   0.600935 0.878505 0.911430 -0.049604
C38   C     C_R   0.597017 0.125623 0.910032 -0.059388
C39   C     C_R   0.097014 0.374364 0.910032 -0.059442
C40   C     C_R   0.100929 0.621490 0.911418 -0.049697
H13   H     H_    0.576381 0.877073 0.827382 0.188572
H14   H     H_    0.565713 0.132323 0.824933 0.119789
H15   H     H_    0.065700 0.367636 0.824936 0.119755
H16   H     H_    0.076358 0.622923 0.827361 0.188539
N29   N     N_R   0.549740 0.896000 0.943240 -0.060083
N30   N     N_R   0.549740 0.104000 0.943240 -0.036830
N31   N     N_R   0.049740 0.396000 0.943240 -0.036818
N32   N     N_R   0.049740 0.604000 0.943240 -0.060106
Ni1   Ni    Ni4+2 0.433780 0.065390 0.868430 0.276085
Ni2   Ni    Ni4+2 0.433780 0.934610 0.868430 0.266813
Ni3   Ni    Ni4+2 0.933780 0.565390 0.868430 0.266808
Ni4   Ni    Ni4+2 0.933780 0.434610 0.868430 0.276122
Ni5   Ni    Ni4+2 0.565800 0.934190 0.131570 0.229634
Ni6   Ni    Ni4+2 0.565800 0.065810 0.131570 0.247920
Ni7   Ni    Ni4+2 0.065800 0.434190 0.131570 0.247895
Ni8   Ni    Ni4+2 0.065800 0.565810 0.131570 0.229658
C41   C     C_R   0.427128 0.998417 0.629154 0.035971
C42   C     C_R   0.927146 0.501575 0.629159 0.036284
C43   C     C_R   0.796268 0.998776 0.372975 0.069207
C44   C     C_R   0.296348 0.501199 0.372967 0.069086
C45   C     C_R   0.686413 0.139535 0.003467 0.119462
C46   C     C_R   0.686002 0.859879 0.004341 0.176040
C47   C     C_R   0.185995 0.640127 0.004318 0.176030
C48   C     C_R   0.186416 0.360462 0.003471 0.119421
C49   C     C_3   0.002387 0.961755 0.632591 -0.261562
C50   C     C_3   0.005322 0.050132 0.603562 -0.304785
C51   C     C_3   0.505256 0.449988 0.604309 -0.304209
C52   C     C_3   0.502429 0.538511 0.632346 -0.262384
C53   C     C_3   0.932514 0.010251 0.593447 -0.040404
C54   C     C_3   0.432457 0.490109 0.593648 -0.040685
H17   H     H_    0.018706 0.930992 0.695561 0.205941
H18   H     H_    0.022359 0.091292 0.642068 0.194923
H19   H     H_    0.522280 0.408946 0.643289 0.194894
H20   H     H_    0.518718 0.569507 0.694953 0.205838
C55   C     C_3   0.892627 0.997982 0.473815 -0.196305
C56   C     C_3   0.392690 0.501976 0.473907 -0.196181
C57   C     C_3   0.962746 0.949981 0.512095 0.401697
C58   C     C_3   0.966186 0.037192 0.484080 0.413693
C59   C     C_3   0.466234 0.462523 0.484701 0.413145
C60   C     C_3   0.462918 0.549878 0.511774 0.402031
C61   C     C_3   0.034257 0.989337 0.520891 0.384723
C62   C     C_3   0.534404 0.510292 0.521086 0.384707
C63   C     C_3   0.072959 0.001568 0.639297 -0.124505
C64   C     C_3   0.572986 0.498459 0.639592 -0.124279
C65   C     C_3   0.366525 0.758827 0.124999 -0.267370
C66   C     C_3   0.273267 0.214150 0.030212 -0.242820
C67   C     C_3   0.773352 0.285841 0.030377 -0.242735
C68   C     C_3   0.866555 0.741180 0.125057 -0.267334
H21   H     H_    0.443978 0.755380 0.189101 0.188429
H22   H     H_    0.320163 0.204691 0.119351 0.203313
H23   H     H_    0.820329 0.295260 0.119534 0.203279
H24   H     H_    0.944002 0.744637 0.189144 0.188397
C69   C     C_3   0.705129 0.240013 0.009795 0.294284
C70   C     C_3   0.819083 0.794051 0.125871 0.252665
C71   C     C_3   0.319088 0.705947 0.125814 0.252741
C72   C     C_3   0.205049 0.259988 0.009616 0.294398
H25   H     H_    0.281265 0.715746 0.161980 0.090733
H26   H     H_    0.135568 0.253769 0.928420 0.153698
H27   H     H_    0.635609 0.246268 0.928660 0.153760
H28   H     H_    0.781205 0.784233 0.161961 0.090770
H29   H     H_    0.963756 0.242969 0.161952 0.206251
H30   H     H_    0.942205 0.804533 0.068176 0.203305
H31   H     H_    0.442170 0.695468 0.068089 0.203353
H32   H     H_    0.463718 0.256973 0.162074 0.206211
C73   C     C_3   0.909830 0.222143 0.083536 -0.436697
C74   C     C_3   0.876137 0.791913 0.988404 -0.476984
C75   C     C_3   0.376100 0.708091 0.988318 -0.476845
C76   C     C_3   0.409851 0.277828 0.083674 -0.436533
C77   C     C_3   0.237211 0.775577 0.920847 0.276492
C78   C     C_3   0.275094 0.263970 0.881985 0.311632
C79   C     C_3   0.774950 0.236089 0.881926 0.311496
C80   C     C_3   0.737246 0.724432 0.920904 0.276442
C81   C     C_3   0.346001 0.765277 0.008958 0.005106
C82   C     C_3   0.337650 0.234347 0.996569 -0.054927
C83   C     C_3   0.837619 0.265660 0.996557 -0.054908
C84   C     C_3   0.846031 0.734729 0.009018 0.005160
H33   H     H_    0.221331 0.769258 0.838755 0.171050
H34   H     H_    0.318711 0.274629 0.853916 0.154832
H35   H     H_    0.818484 0.225436 0.853741 0.154867
H36   H     H_    0.721366 0.730744 0.838817 0.171048
C85   C     C_3   0.746034 0.183517 0.005748 -0.132579
C86   C     C_3   0.745116 0.816219 0.004358 -0.166899
C87   C     C_3   0.245094 0.683786 0.004300 -0.166816
C88   C     C_3   0.246046 0.316485 0.005757 -0.132569
C89   C     C_3   0.855600 0.179504 0.104584 0.760699
C90   C     C_3   0.799335 0.836021 0.956564 0.782056
C91   C     C_3   0.299285 0.663986 0.956457 0.782060
C92   C     C_3   0.355586 0.320448 0.104707 0.760519
C93   C     C_3   0.733371 0.183417 0.893561 -0.435713
C94   C     C_3   0.680707 0.764729 0.937726 -0.392501
C95   C     C_3   0.180679 0.735281 0.937687 -0.392604
C96   C     C_3   0.233515 0.316641 0.893648 -0.435755
H37   H     H_    0.162321 0.754940 0.988901 0.185003
H38   H     H_    0.158036 0.315968 0.824513 0.209784
H39   H     H_    0.657870 0.184130 0.824493 0.209837
H40   H     H_    0.662333 0.745075 0.988919 0.185033
C97   C     C_3   0.529511 0.026053 0.568747 0.372619
C98   C     C_3   0.429642 0.935183 0.491904 0.351201
C99   C     C_3   0.929672 0.564796 0.491916 0.351274
C100  C     C_3   0.029467 0.473897 0.568676 0.372565
C101  C     C_3   0.527712 0.032168 0.465594 0.317762
C102  C     C_3   0.453725 0.937475 0.408881 0.300610
C103  C     C_3   0.953758 0.562492 0.408900 0.300631
C104  C     C_3   0.027603 0.467755 0.465481 0.317819
H41   H     H_    0.512069 0.075539 0.437261 0.055003
H42   H     H_    0.401978 0.911968 0.336743 0.035666
H43   H     H_    0.902055 0.588034 0.336801 0.035687
H44   H     H_    0.011854 0.424390 0.437113 0.055070
H45   H     H_    0.353908 0.072371 0.457982 0.206740
H46   H     H_    0.280932 0.014423 0.416590 0.244879
H47   H     H_    0.780903 0.485596 0.416594 0.245032
H48   H     H_    0.853838 0.427630 0.457918 0.206717
C105  C     C_3   0.348857 0.028754 0.434736 -0.601793
C106  C     C_3   0.848808 0.471250 0.434701 -0.601662
C107  C     C_3   0.434072 0.996526 0.534249 -0.099745
C108  C     C_3   0.934060 0.503455 0.534229 -0.099944
C109  C     C_3   0.445155 0.997978 0.367688 -0.190709
C110  C     C_3   0.945093 0.501997 0.367623 -0.190621
C111  C     C_3   0.348247 0.024235 0.331688 -0.060859
C112  C     C_3   0.848164 0.475777 0.331626 -0.060946
Cl1   Cl    Cl    0.367174 0.182505 0.805393 -0.673443
Cl2   Cl    Cl    0.350834 0.815946 0.798434 -0.728787
Cl3   Cl    Cl    0.850798 0.684061 0.798435 -0.728717
Cl4   Cl    Cl    0.867056 0.317499 0.805312 -0.673591
Cl5   Cl    Cl    0.949355 0.882133 0.461376 -0.522167
Cl6   Cl    Cl    0.954999 0.086805 0.391265 -0.470368
Cl7   Cl    Cl    0.455126 0.412524 0.392508 -0.470776
Cl8   Cl    Cl    0.449677 0.617565 0.460487 -0.521817
Cl9   Cl    Cl    0.101881 0.976171 0.470466 -0.519552
Cl10  Cl    Cl    0.602185 0.523009 0.470710 -0.520074
C113  C     C_1   0.335007 0.805866 0.157456 0.217550
N33   N     N_1   0.309393 0.842131 0.182477 -0.053595
C114  C     C_1   0.220155 0.162897 0.976404 0.220783
N34   N     N_1   0.178842 0.122820 0.934698 -0.060545
C115  C     C_1   0.720262 0.337118 0.976707 0.220814
N35   N     N_1   0.678967 0.377214 0.935109 -0.060605
C116  C     C_1   0.835079 0.694140 0.157533 0.217685
N36   N     N_1   0.809506 0.657876 0.182582 -0.053636
Cl11  Cl    Cl    0.677966 0.246233 0.106462 -0.625724
Cl12  Cl    Cl    0.908781 0.842573 0.219958 -0.482873
Cl13  Cl    Cl    0.408825 0.657421 0.219775 -0.482901
Cl14  Cl    Cl    0.177729 0.253737 0.106135 -0.625624
Cl15  Cl    Cl    0.882379 0.197053 0.235666 -0.523719
Cl16  Cl    Cl    0.853826 0.901999 0.007958 -0.445101
Cl17  Cl    Cl    0.353746 0.597989 0.007759 -0.445348
Cl18  Cl    Cl    0.382200 0.302812 0.235669 -0.523349
Cl19  Cl    Cl    0.196087 0.843948 0.918184 -0.704446
Cl20  Cl    Cl    0.178556 0.222942 0.773911 -0.644919
Cl21  Cl    Cl    0.678406 0.277169 0.774004 -0.644925
Cl22  Cl    Cl    0.696127 0.656068 0.918255 -0.704653
C117  C     C_1   0.769781 0.133576 0.875200 0.237461
N37   N     N_1   0.797789 0.094592 0.860007 0.029731
C118  C     C_1   0.588109 0.772602 0.830126 0.315065
N38   N     N_1   0.515520 0.777648 0.745738 0.030588
C119  C     C_1   0.088069 0.727406 0.830093 0.315318
N39   N     N_1   0.015471 0.722355 0.745713 0.030744
C120  C     C_1   0.270025 0.366491 0.875471 0.237631
N40   N     N_1   0.298110 0.405483 0.860419 0.029625
C121  C     C_1   0.964827 0.196158 0.049952 0.315840
N41   N     N_1   0.006930 0.175352 0.023037 -0.003299
C122  C     C_1   0.906087 0.793446 0.916211 0.387101
N42   N     N_1   0.931086 0.796627 0.861132 0.010142
C123  C     C_1   0.406059 0.706553 0.916130 0.387028
N43   N     N_1   0.431067 0.703362 0.861058 0.009992
C124  C     C_1   0.464955 0.303833 0.050259 0.315612
N44   N     N_1   0.507148 0.324650 0.023481 -0.003316
Cl23  Cl    Cl    0.899259 0.110337 0.124047 -0.509861
Cl24  Cl    Cl    0.720473 0.845785 0.810183 -0.489377
Cl25  Cl    Cl    0.220401 0.654249 0.810064 -0.489548
Cl26  Cl    Cl    0.399332 0.389606 0.124417 -0.510205
C125  C     C_1   0.543192 0.082479 0.611388 0.031432
N45   N     N_1   0.554812 0.127142 0.642373 -0.049885
C126  C     C_1   0.333229 0.911716 0.433248 0.040326
N46   N     N_1   0.258059 0.893326 0.386307 0.011717
C127  C     C_1   0.833275 0.588290 0.433271 0.040321
N47   N     N_1   0.758119 0.606703 0.386340 0.011607
C128  C     C_1   0.043145 0.417478 0.611338 0.031638
N48   N     N_1   0.054767 0.372820 0.642342 -0.049840
Cl27  Cl    Cl    0.631429 0.989609 0.679267 -0.406295
Cl28  Cl    Cl    0.504121 0.884544 0.596326 -0.484301
Cl29  Cl    Cl    0.004177 0.615425 0.596351 -0.484232
Cl30  Cl    Cl    0.131430 0.510330 0.679154 -0.406675
Cl31  Cl    Cl    0.641643 0.023897 0.493085 -0.571256
Cl32  Cl    Cl    0.566566 0.905329 0.460246 -0.431793
Cl33  Cl    Cl    0.066673 0.594553 0.460330 -0.431913
Cl34  Cl    Cl    0.141531 0.475899 0.492922 -0.571871
C129  C     C_1   0.332092 0.079623 0.283685 0.125877
N49   N     N_1   0.319017 0.123000 0.246470 -0.039540
C130  C     C_1   0.267173 0.991161 0.244890 0.144410
N50   N     N_1   0.203703 0.965413 0.176590 -0.013886
C131  C     C_1   0.767107 0.508877 0.244876 0.144436
N51   N     N_1   0.703637 0.534639 0.176610 -0.013910
C132  C     C_1   0.831944 0.420399 0.283558 0.125854
N52   N     N_1   0.818821 0.377028 0.246293 -0.039603
C133  C     C_1   0.191128 0.901231 0.711249 0.289764
N53   N     N_1   0.157195 0.858505 0.678455 0.051327
C134  C     C_1   0.196861 0.096611 0.678031 0.266008
N54   N     N_1   0.168572 0.135290 0.623252 0.076664
C135  C     C_1   0.696752 0.403414 0.678204 0.267044
N55   N     N_1   0.668373 0.364745 0.623394 0.077243
C136  C     C_1   0.691140 0.598762 0.711286 0.289133
N56   N     N_1   0.657184 0.641473 0.678410 0.050960
C137  C     C_1   0.392724 0.095259 0.645709 0.115059
N57   N     N_1   0.352475 0.135939 0.607052 0.014085
C138  C     C_1   0.368945 0.910995 0.647174 0.181802
N58   N     N_1   0.312425 0.876831 0.609343 0.035325
C139  C     C_1   0.868972 0.589010 0.647179 0.181759
N59   N     N_1   0.812465 0.623183 0.609353 0.035237
C140  C     C_1   0.892700 0.404745 0.645696 0.115365
N60   N     N_1   0.852424 0.364074 0.607028 0.014107
C141  C     C_1   0.740225 0.903436 0.349744 0.197919
N61   N     N_1   0.731157 0.863106 0.382571 0.002339
C142  C     C_1   0.754719 0.097685 0.352770 0.174576
N62   N     N_1   0.756568 0.140224 0.387561 -0.002575
C143  C     C_1   0.254553 0.402338 0.352759 0.175835
N63   N     N_1   0.256247 0.359833 0.387553 -0.002385
C144  C     C_1   0.240521 0.596602 0.349810 0.197054
N64   N     N_1   0.231648 0.636977 0.382700 0.001958
C145  C     C_1   0.884065 0.022006 0.642916 0.303242
N65   N     N_1   0.848303 0.031422 0.684949 0.028097
C146  C     C_1   0.383933 0.478895 0.643227 0.303501
N66   N     N_1   0.348119 0.469951 0.685372 0.029435

loop_
_geom_bond_atom_site_label_1
_geom_bond_atom_site_label_2
_geom_bond_distance
_ccdc_geom_bond_type
C106  C108  1.566645 S    
H30   C74   1.112364 S    
C141  N61   1.157355 T    
C89   Cl23  1.806228 S    
C39   N31   1.315566 A    
C98   C126  1.486013 S    
C94   H40   1.113831 S    
C146  N66   1.157152 T    
C95   H37   1.113911 S    
C69   Cl11  1.802001 S    
C58   Cl6   1.778352 S    
C22   C110  1.491494 S    
C131  N51   1.157632 T    
C49   C63   1.534520 S    
C109  C111  1.586894 S    
C5    H1    1.080723 S    
C51   H19   1.110568 S    
C7    H3    1.080401 S    
C78   C96   1.542381 S    
C121  N41   1.157189 T    
C65   C81   1.581474 S    
C2    Cl2   1.744905 S    
N4    Ni4   1.905473 S    
C79   C83   1.574626 S    
C80   Cl22  1.811255 S    
C100  C108  1.605501 S    
H29   C73   1.109477 S    
C65   C71   1.542994 S    
C66   C72   1.533103 S    
C11   C22   1.383814 A    
C124  N44   1.157187 T    
C50   C58   1.541241 S    
C38   C45   1.395542 A    
N26   Ni5   1.899181 S    
C51   C64   1.533864 S    
C52   C64   1.534570 S    
C40   C47   1.387437 A    
C60   Cl8   1.782413 S    
C36   C48   1.387751 A    
C88   C92   1.593434 S    
N1    N6    1.404378 A    
C105  C111  1.562580 S    
C9    N9    1.323864 A    
C93   C117  1.478351 S    
C11   N11   1.315284 A    
C115  N35   1.157528 T    
C12   N12   1.323893 A    
N13   N14   1.407201 A    
C66   C114  1.483040 S    
C80   C94   1.527267 S    
C38   H14   1.072870 S    
C23   C63   1.445247 S    
C75   C123  1.474399 S    
C36   H12   1.072685 S    
C55   C58   1.544100 S    
C8    N8    1.316575 A    
C98   C102  1.553239 S    
C75   C91   1.564912 S    
C100  C128  1.479933 S    
C66   C82   1.576945 S    
C1    C17   1.376275 A    
C69   H27   1.115216 S    
C104  C110  1.564349 S    
C65   H21   1.111571 S    
N17   Ni1   1.905570 S    
C13   C23   1.383472 A    
C51   C54   1.545225 S    
C31   N23   1.332784 A    
C19   C84   1.495462 S    
C54   C56   1.536890 S    
C89   Cl15  1.802410 S    
C72   C88   1.575108 S    
C71   H25   1.114151 S    
C97   C107  1.605475 S    
C71   C87   1.590575 S    
C32   C44   1.371245 A    
C48   C88   1.489213 S    
N29   Ni2   1.895578 S    
C29   N21   1.327658 A    
C57   Cl5   1.782603 S    
C103  Cl33  1.826457 S    
C32   N24   1.327810 A    
C90   Cl24  1.801804 S    
C41   C107  1.518338 S    
H47   C106  1.113835 S    
C12   C22   1.391308 A    
C40   N32   1.323700 A    
C99   Cl29  1.812742 S    
C67   C115  1.483053 S    
C34   H10   1.075977 S    
C6    N6    1.325850 A    
C25   N17   1.332965 A    
C28   C42   1.389654 A    
C76   C124  1.481352 S    
C27   N19   1.321595 A    
C75   C81   1.590323 S    
C67   H23   1.111324 S    
C61   C63   1.524837 S    
C68   C84   1.581427 S    
C25   C41   1.389652 A    
C70   C86   1.590581 S    
C10   C21   1.383691 A    
C72   Cl14  1.801987 S    
C110  C112  1.586908 S    
N1    Ni1   1.905380 S    
C100  C104  1.555171 S    
H48   C106  1.108947 S    
C33   C45   1.387758 A    
C28   C140  1.439774 S    
C101  C109  1.564256 S    
C35   C47   1.390760 A    
C95   C119  1.480802 S    
N17   N18   1.386681 A    
N9    N10   1.386681 A    
N13   Ni2   1.875203 S    
C16   C136  1.438119 S    
N18   Ni2   1.905662 S    
C92   Cl18  1.802386 S    
N9    Ni6   1.910868 S    
C21   C109  1.491395 S    
N11   Ni8   1.910868 S    
C29   C43   1.371072 A    
C122  N42   1.157735 T    
C77   C81   1.573140 S    
C106  C112  1.562672 S    
C62   Cl10  1.789679 S    
C118  N38   1.157795 T    
C111  C130  1.479014 S    
C99   C127  1.486028 S    
N8    Ni8   1.882608 S    
C37   N29   1.323642 A    
C134  N54   1.156911 T    
C31   C44   1.378199 A    
C102  C109  1.576336 S    
C96   H38   1.099332 S    
C9    C21   1.391388 A    
C71   Cl13  1.803619 S    
C94   C118  1.480741 S    
N4    N7    1.404379 A    
C78   Cl20  1.806941 S    
C80   C84   1.573081 S    
N24   Ni8   1.882208 S    
C6    H2    1.080392 S    
C90   Cl16  1.798589 S    
N15   N16   1.407201 A    
C116  N36   1.156480 T    
N2    Ni2   1.905473 S    
C53   C145  1.464013 S    
C56   C60   1.544256 S    
C79   H35   1.110343 S    
C142  N62   1.157125 T    
C68   C70   1.543052 S    
N11   N12   1.386681 A    
N32   Ni3   1.895617 S    
C119  N39   1.157821 T    
C140  N60   1.157042 T    
C42   C108  1.518378 S    
C7    C20   1.379414 A    
N28   N31   1.389971 A    
C26   C138  1.438877 S    
C88   C96   1.580870 S    
C35   N27   1.316725 A    
C62   C64   1.524901 S    
N7    Ni7   1.882644 S    
N2    N5    1.404379 A    
C9    H5    1.078802 S    
C10   N10   1.315214 A    
C77   C95   1.527381 S    
C12   H8    1.078805 S    
C129  N49   1.157367 T    
C36   N28   1.326536 A    
C92   Cl26  1.806228 S    
C79   C93   1.542311 S    
C79   Cl21  1.806903 S    
C2    C18   1.392223 A    
C70   Cl12  1.803801 S    
C32   C144  1.440041 S    
C52   C54   1.549661 S    
C16   C24   1.383526 A    
N26   N29   1.389971 A    
N21   N22   1.407687 A    
C85   C89   1.593430 S    
N23   N24   1.407687 A    
H45   C105  1.108928 S    
N12   Ni7   1.910775 S    
N5    Ni5   1.882644 S    
C54   C146  1.464108 S    
C137  N57   1.157041 T    
N31   Ni4   1.895578 S    
C6    C17   1.379416 A    
C50   C53   1.544963 S    
C30   N22   1.332754 A    
N19   N20   1.386681 A    
C3    Cl3   1.744907 S    
C133  N53   1.157459 T    
C44   C56   1.460155 S    
C40   H16   1.076563 S    
C1    Cl1   1.756375 S    
C65   C113  1.482791 S    
C125  N45   1.156782 T    
C73   C89   1.570595 S    
C114  N34   1.157521 T    
C7    N7    1.325888 A    
C26   N18   1.321591 A    
C1    N1    1.331587 A    
C27   C139  1.438873 S    
C3    N3    1.339911 A    
C52   C60   1.547303 S    
C43   C55   1.459785 S    
N21   Ni5   1.882243 S    
C66   H22   1.111309 S    
C123  N43   1.157764 T    
N23   Ni7   1.882242 S    
C102  H42   1.108624 S    
C52   H20   1.110774 S    
N19   Ni3   1.905570 S    
H46   C105  1.113830 S    
C86   C90   1.582369 S    
C55   C57   1.544269 S    
C135  N55   1.156892 T    
C87   C95   1.589184 S    
H32   C76   1.109453 S    
C27   C42   1.376880 A    
C49   H17   1.110731 S    
C130  N50   1.157610 T    
C49   C57   1.547451 S    
C37   C46   1.387413 A    
C76   C82   1.578181 S    
N25   Ni6   1.899274 S    
C8    H4    1.080727 S    
C15   C24   1.379195 A    
C51   C59   1.541520 S    
N27   Ni8   1.899274 S    
C99   C108  1.613687 S    
C103  C110  1.576305 S    
C67   C83   1.576937 S    
C143  N63   1.157138 T    
C30   C142  1.440339 S    
C13   C133  1.438211 S    
C25   C137  1.439768 S    
C13   N13   1.337230 A    
C15   N15   1.325876 A    
C145  N65   1.157037 T    
C138  N58   1.156440 T    
C103  H43   1.108643 S    
C113  N33   1.156593 T    
C86   C94   1.589100 S    
C37   H13   1.076533 S    
C46   C86   1.491346 S    
N3    Ni3   1.905380 S    
C93   H39   1.099359 S    
C14   C134  1.438026 S    
N22   Ni6   1.882207 S    
C76   C92   1.570535 S    
N15   Ni4   1.875203 S    
C78   H34   1.110351 S    
C30   C43   1.378157 A    
C67   C69   1.533101 S    
N30   Ni1   1.895617 S    
N10   Ni5   1.910775 S    
C4    C20   1.376288 A    
C39   H15   1.072888 S    
C126  N46   1.158094 T    
C49   C53   1.549736 S    
C33   H9    1.072665 S    
C35   H11   1.076082 S    
C4    Cl4   1.756373 S    
C31   C143  1.440364 S    
N3    N8    1.404378 A    
C10   H6    1.075749 S    
C14   C23   1.379033 A    
C77   H33   1.113662 S    
C68   C116  1.482613 S    
C112  C132  1.481494 S    
C34   N26   1.316439 A    
C112  C131  1.479002 S    
C80   H36   1.113588 S    
C104  Cl34  1.803925 S    
C144  N64   1.157386 T    
C34   C46   1.390675 A    
C4    N4    1.331565 A    
C50   H18   1.110480 S    
H31   C75   1.112398 S    
N14   Ni1   1.875238 S    
C3    C19   1.392283 A    
C5    C18   1.362412 A    
C15   C135  1.438014 S    
C128  N48   1.156786 T    
C8    C19   1.362356 A    
N28   Ni7   1.899181 S    
C70   H28   1.114155 S    
C97   C101  1.555166 S    
C91   Cl17  1.798673 S    
C97   C125  1.479937 S    
C33   N25   1.326567 A    
C57   C61   1.527222 S    
C139  N59   1.156441 T    
C105  C107  1.566591 S    
C50   C63   1.533840 S    
C11   H7    1.075761 S    
N6    Ni6   1.882608 S    
C29   C141  1.439995 S    
C96   C120  1.478338 S    
C38   N30   1.315544 A    
C74   C90   1.564819 S    
N16   Ni3   1.875238 S    
C2    N2    1.339870 A    
C68   H24   1.111486 S    
C60   C62   1.527217 S    
C99   C103  1.553194 S    
C16   N16   1.337265 A    
C18   C81   1.495463 S    
C72   H26   1.115211 S    
C101  H41   1.114284 S    
C111  C129  1.481485 S    
C136  N56   1.157353 T    
C104  H44   1.114301 S    
C58   C61   1.523138 S    
C87   C91   1.582481 S    
C100  Cl30  1.800956 S    
C101  Cl31  1.803966 S    
C102  Cl32  1.826424 S    
C132  N52   1.157375 T    
C97   Cl27  1.800957 S    
C98   Cl28  1.812775 S    
C5    N5    1.316560 A    
C61   Cl9   1.789625 S    
C77   Cl19  1.811356 S    
C39   C48   1.395555 A    
C59   Cl7   1.778388 S    
C127  N47   1.158110 T    
C17   C82   1.487761 S    
C59   C62   1.523234 S    
C26   C41   1.376847 A    
C14   N14   1.325736 A    
C20   C83   1.487792 S    
C69   C85   1.575143 S    
C24   C64   1.445440 S    
C98   C107  1.613700 S    
C47   C87   1.491429 S    
C91   Cl25  1.801869 S    
C56   C59   1.544320 S    
C45   C85   1.489275 S    
C85   C93   1.580887 S    
C73   C121  1.481354 S    
C74   C122  1.474361 S    
N25   N30   1.389972 A    
C53   C55   1.536710 S    
C73   C83   1.578159 S    
N27   N32   1.389972 A    
N20   Ni4   1.905662 S    
C74   C84   1.590253 S    
C78   C82   1.574665 S    
C117  N37   1.157450 T    
C120  N40   1.157448 T    
C28   N20   1.332983 A    
