data_mof_unit_48010.cif
_audit_creation_date              2012-12-10T16:55:01-0500
_audit_creation_method            fapswitch 2.2
_symmetry_space_group_name_H-M    P1
_symmetry_Int_Tables_number       1
_space_group_crystal_system       triclinic
_cell_length_a                    9.723757
_cell_length_b                    10.928278
_cell_length_c                    15.406837
_cell_angle_alpha                 88.624181
_cell_angle_beta                  74.027447
_cell_angle_gamma                 89.263706
_cell_volume                      1573.4979275

loop_
_atom_site_label
_atom_site_type_symbol
_atom_type_description
_atom_site_fract_x
_atom_site_fract_y
_atom_site_fract_z
_atom_type_partial_charge
C1    C     C_R   0.004222 0.266031 0.493097 0.788222
C2    C     C_R   0.674533 0.499855 0.908481 0.018398
C3    C     C_R   0.768904 0.539510 0.957136 0.046561
C4    C     C_R   0.525734 0.491965 0.952883 -0.079293
C5    C     C_R   0.480021 0.491909 0.049105 -0.064757
C6    C     C_R   0.586529 0.499349 0.096587 0.367330
C7    C     C_R   0.724302 0.537088 0.051095 -0.224706
C8    C     C_R   0.420606 0.492486 0.904211 0.505947
C9    C     C_R   0.278998 0.464620 0.948571 -0.307560
C10   C     C_R   0.232951 0.459975 0.042439 0.075957
C11   C     C_R   0.330574 0.485025 0.092970 0.093690
C12   C     C_R   0.917222 0.499383 0.672279 0.848644
C13   C     C_R   0.087599 0.440912 0.086340 -0.163386
C14   C     C_R   0.036621 0.453098 0.179654 -0.186521
C15   C     C_R   0.273318 0.511660 0.184400 -0.144590
C16   C     C_2   0.945659 0.934550 0.450687 0.148210
C17   C     C_2   0.989051 0.864503 0.511061 0.177317
C18   C     C_2   0.911694 0.064659 0.469322 0.388710
C19   C     C_2   0.023052 0.137820 0.467355 0.228244
C20   C     C_2   0.394825 0.451919 0.565552 0.513663
C21   C     C_2   0.553643 0.432727 0.554802 0.054395
C22   C     C_R   0.998558 0.734047 0.501138 0.860476
C23   C     C_R   0.082904 0.499150 0.327667 0.786811
C24   C     C_R   0.871394 0.505571 0.771086 -0.148514
C25   C     C_R   0.129535 0.490102 0.228971 -0.068348
C26   C     C_R   0.910116 0.570878 0.911393 -0.197199
C27   C     C_R   0.958851 0.559560 0.817985 -0.208723
C28   C     C_R   0.734501 0.464504 0.818533 0.393500
Cu1   Cu    Cu3+1 0.138640 0.500020 0.499980 0.995723
Cu2   Cu    Cu3+1 0.861360 0.499980 0.500020 1.014757
H1    H     H_    0.800662 0.553136 0.089171 0.167001
H2    H     H_    0.013573 0.417141 0.048328 0.153955
H3    H     H_    0.417738 0.501761 0.437875 0.214709
H4    H     H_    0.585451 0.362093 0.596044 0.166366
H5    H     H_    0.337944 0.554702 0.221428 0.196980
H6    H     H_    0.924914 0.435442 0.212795 0.180506
H7    H     H_    0.202451 0.457498 0.909436 0.166246
H8    H     H_    0.981887 0.605479 0.947671 0.151125
H9    H     H_    0.065666 0.590096 0.782869 0.201508
N1    N     N_2   0.346430 0.498660 0.500980 -0.295322
N2    N     N_2   0.652550 0.498630 0.501000 -0.047006
O1    O     O_R   0.117050 0.321960 0.499980 -0.593282
O2    O     O_R   0.882890 0.321920 0.500020 -0.543656
O3    O     O_R   0.052910 0.500040 0.629810 -0.550550
O4    O     O_R   0.818750 0.499990 0.629840 -0.546267
O5    O     O_R   0.117110 0.678080 0.499980 -0.548043
O6    O     O_R   0.882950 0.678040 0.500020 -0.577082
O7    O     O_R   0.181250 0.500010 0.370160 -0.583842
O8    O     O_R   0.947090 0.499960 0.370190 -0.613526
Cl1   Cl    Cl    0.941904 0.879447 0.344391 -0.725564
Cl2   Cl    Cl    0.008490 0.921200 0.613577 -0.618792
O9    O     O_3   0.771721 0.110587 0.496353 -0.579804
C29   C     C_3   0.668369 0.023931 0.490178 0.101147
H10   H     H_    0.674149 0.939900 0.531450 0.172416
H11   H     H_    0.681831 0.000514 0.418495 0.190170
C30   C     C_3   0.520524 0.079030 0.526430 -0.791945
H12   H     H_    0.511370 0.164713 0.488114 0.239587
H13   H     H_    0.438103 0.013368 0.519533 0.245953
H14   H     H_    0.502465 0.099446 0.598851 0.254034
O10   O     O_3   0.161687 0.090970 0.441488 -0.576374
C31   C     C_3   0.224084 0.122523 0.349666 0.052998
H15   H     H_    0.244687 0.222666 0.341147 0.169378
H16   H     H_    0.154375 0.095884 0.306699 0.172757
C32   C     C_3   0.365979 0.055065 0.316301 -0.684008
H17   H     H_    0.349122 0.954715 0.325685 0.251293
H18   H     H_    0.413714 0.076375 0.243445 0.219913
H19   H     H_    0.441368 0.084076 0.354233 0.242378
O11   O     O_3   0.300699 0.426358 0.649166 -0.558110
C33   C     C_3   0.263526 0.300956 0.657156 0.094054
H20   H     H_    0.308139 0.247469 0.594975 0.136552
H21   H     H_    0.145447 0.293872 0.672852 0.199859
C34   C     C_3   0.307986 0.241586 0.735629 -0.746216
H22   H     H_    0.256939 0.290113 0.798954 0.264927
H23   H     H_    0.273931 0.144405 0.743979 0.219043
H24   H     H_    0.425682 0.245023 0.722528 0.281827
O12   O     O_3   0.604510 0.606687 0.475780 -0.527966
C35   C     C_3   0.670978 0.626634 0.383110 0.202340
H25   H     H_    0.679744 0.540855 0.344277 0.170005
H26   H     H_    0.778397 0.665528 0.373218 0.230277
C36   C     C_3   0.583961 0.719619 0.344824 -0.793125
H27   H     H_    0.572486 0.805998 0.382744 0.248454
H28   H     H_    0.639057 0.739553 0.272684 0.232799
H29   H     H_    0.475956 0.683453 0.349581 0.251699
Cl3   Cl    Cl    0.661679 0.339316 0.775213 -0.600495
Cl4   Cl    Cl    0.566604 0.438866 0.206744 -0.728621
O13   O     O_3   0.452380 0.526672 0.813837 -0.532534
C37   C     C_3   0.449219 0.655802 0.807275 0.026407
H30   H     H_    0.530767 0.696760 0.836235 0.143554
H31   H     H_    0.341265 0.692121 0.842840 0.144408
C38   C     C_3   0.482838 0.695619 0.708423 -0.634511
H32   H     H_    0.589162 0.659586 0.670651 0.270552
H33   H     H_    0.484386 0.797112 0.702617 0.191860
H34   H     H_    0.399867 0.661024 0.678307 0.264644

loop_
_geom_bond_atom_site_label_1
_geom_bond_atom_site_label_2
_ccdc_geom_bond_type
C37   H30   S    
Cu1   O1    S    
C28   Cl3   S    
Cu2   O4    S    
C24   C27   A    
C4    C8    A    
C17   Cl2   S    
C18   O9    S    
C29   H10   S    
C26   C27   A    
C6    Cl4   S    
C16   Cl1   S    
C5    C11   A    
C3    C7    A    
C36   H29   S    
C14   H6    S    
C5    C6    A    
C36   H27   S    
C23   O8    A    
C30   H12   S    
C31   H16   S    
C18   C19   D    
C33   H21   S    
C13   H2    S    
O11   C33   S    
C11   C15   A    
C1    O2    A    
C27   H9    S    
C16   C17   D    
Cu2   N2    S    
C9    C10   A    
C29   C30   S    
C29   H11   S    
C22   O6    A    
C13   C14   A    
C33   H20   S    
C34   H24   S    
C15   H5    S    
C35   H26   S    
C1    C19   S    
H3    N1    S    
C7    H1    S    
Cu1   O7    S    
C32   H19   S    
Cu2   O6    S    
O12   C35   S    
C34   H23   S    
O13   C37   S    
C8    C9    A    
C21   H4    S    
C35   H25   S    
O10   C31   S    
C32   H18   S    
C31   C32   S    
C2    C4    A    
Cu1   Cu2   S    
C38   H33   S    
C9    H7    S    
C21   N2    D    
C36   H28   S    
C22   O5    A    
Cu2   O8    S    
C37   H31   S    
Cu1   O3    S    
Cu2   O2    S    
C33   C34   S    
O9    C29   S    
C38   H34   S    
C35   C36   S    
C23   O7    A    
C20   O11   S    
C3    C26   A    
C26   H8    S    
C24   C28   A    
C34   H22   S    
C10   C13   A    
C6    C7    A    
C12   O4    A    
C19   O10   S    
C12   C24   S    
C17   C22   S    
C30   H14   S    
Cu1   O5    S    
C32   H17   S    
C2    C3    A    
C12   O3    A    
N2    O12   S    
C38   H32   S    
C20   N1    D    
Cu1   N1    S    
C30   H13   S    
C8    O13   S    
C23   C25   S    
C14   C25   A    
C31   H15   S    
C15   C25   A    
C10   C11   A    
C1    O1    A    
C4    C5    A    
C20   C21   S    
C16   C18   S    
C37   C38   S    
C2    C28   A    
