data_mof_unit_17705.cif
_audit_creation_date              2012-12-10T20:51:41-0500
_audit_creation_method            fapswitch 2.2
_symmetry_space_group_name_H-M    P1
_symmetry_Int_Tables_number       1
_space_group_crystal_system       triclinic
_cell_length_a                    8.095746
_cell_length_b                    8.937672
_cell_length_c                    16.692518
_cell_angle_alpha                 89.539012
_cell_angle_beta                  94.747187
_cell_angle_gamma                 90.01489
_cell_volume                      1203.64015329

loop_
_atom_site_label
_atom_site_type_symbol
_atom_type_description
_atom_site_fract_x
_atom_site_fract_y
_atom_site_fract_z
_atom_type_partial_charge
C1    C     C_R   0.499965 0.217936 0.500020 0.930131
C2    C     C_R   0.500035 0.782064 0.499980 0.930108
C3    C     C_R   0.521864 0.501572 0.654376 0.916944
C4    C     C_R   0.478138 0.498422 0.345623 0.916924
C5    C     C_R   0.535344 0.522242 0.741289 -0.129579
C6    C     C_R   0.464667 0.477700 0.258712 -0.129587
C7    C     C_R   0.396597 0.577466 0.776693 -0.313307
C8    C     C_R   0.603483 0.422596 0.223318 -0.313293
C9    C     C_R   0.401696 0.599504 0.859078 0.210811
C10   C     C_R   0.598395 0.400479 0.140940 0.210833
C11   C     C_R   0.547490 0.561744 0.906808 0.276369
C12   C     C_R   0.452541 0.438053 0.093205 0.276323
C13   C     C_R   0.689080 0.515264 0.871737 -0.356478
C14   C     C_R   0.310890 0.484405 0.128269 -0.356480
C15   C     C_R   0.684782 0.494376 0.788601 0.439885
C16   C     C_R   0.315182 0.505368 0.211400 0.439906
C17   C     C_1   0.499969 0.065170 0.500006 -0.176923
C18   C     C_1   0.500031 0.934830 0.499994 -0.176928
H1    H     H_    0.716838 0.396047 0.259878 0.202275
H2    H     H_    0.283286 0.604162 0.740130 0.202241
H3    H     H_    0.799787 0.487529 0.909968 0.148266
H4    H     H_    0.200144 0.512003 0.090036 0.148267
N1    N     N_1   0.073640 0.500030 0.499990 -0.014365
N2    N     N_1   0.926360 0.499970 0.500010 -0.014369
N3    N     N_2   0.547630 0.550495 0.990416 -0.171040
N4    N     N_2   0.452395 0.449302 0.009594 -0.171060
O1    O     O_R   0.636850 0.285340 0.500000 -0.614027
O2    O     O_R   0.363150 0.714660 0.500000 -0.614046
O3    O     O_R   0.363100 0.285350 0.500000 -0.617149
O4    O     O_R   0.636900 0.714650 0.500000 -0.617153
O5    O     O_R   0.652140 0.498630 0.616140 -0.555768
O6    O     O_R   0.347860 0.501370 0.383860 -0.555745
O7    O     O_R   0.378390 0.498650 0.616130 -0.637103
O8    O     O_R   0.621610 0.501350 0.383870 -0.637117
Zn1   Zn    Zn3+2 0.682780 0.499990 0.500010 1.024108
Zn2   Zn    Zn3+2 0.317220 0.500010 0.499990 1.024112
C19   C     C_3   0.750448 0.339986 0.105983 -0.872571
H5    H     H_    0.727505 0.313139 0.041256 0.251213
H6    H     H_    0.852244 0.423259 0.113444 0.233610
H7    H     H_    0.790794 0.235100 0.137945 0.241555
C20   C     C_3   0.249733 0.660179 0.894044 -0.872480
H8    H     H_    0.272588 0.686682 0.958818 0.251215
H9    H     H_    0.209764 0.765294 0.862206 0.241541
H10   H     H_    0.147680 0.577189 0.886412 0.233658
O9    O     O_3   0.821906 0.442067 0.753351 -0.745456
H11   H     H_    0.915090 0.428842 0.795260 0.328592
O10   O     O_3   0.177997 0.557561 0.246643 -0.745450
H12   H     H_    0.084766 0.570570 0.204743 0.328587

loop_
_geom_bond_atom_site_label_1
_geom_bond_atom_site_label_2
_ccdc_geom_bond_type
C6    C8    A    
N1    N2    T    
C19   H5    S    
C14   C16   A    
C2    C18   S    
C11   C13   A    
C20   H8    S    
C9    C20   S    
O10   H12   S    
C2    O4    A    
C14   H4    S    
C1    O3    A    
C17   C18   T    
C13   H3    S    
C19   H6    S    
O9    H11   S    
C3    O5    A    
C20   H9    S    
O3    Zn2   S    
C9    C11   A    
C4    O6    A    
C10   C12   A    
O4    Zn1   S    
C10   C19   S    
N1    Zn2   S    
O6    Zn2   S    
C16   O10   S    
C4    C6    S    
C12   C14   A    
O8    Zn1   S    
C19   H7    S    
C4    O8    A    
C13   C15   A    
C20   H10   S    
O5    Zn1   S    
C5    C15   A    
N2    Zn1   S    
C11   N3    S    
C6    C16   A    
C8    H1    S    
C7    C9    A    
O7    Zn2   S    
O2    Zn2   S    
C1    O1    A    
C7    H2    S    
C5    C7    A    
C3    O7    A    
C2    O2    A    
O1    Zn1   S    
N3    N4    D    
C1    C17   S    
C8    C10   A    
C12   N4    S    
C3    C5    S    
C15   O9    S    
