data_mof_unit_60828.cif
_audit_creation_date              2012-12-10T17:16:43-0500
_audit_creation_method            fapswitch 2.2
_symmetry_space_group_name_H-M    P1
_symmetry_Int_Tables_number       1
_space_group_crystal_system       triclinic
_cell_length_a                    18.809052
_cell_length_b                    18.880994
_cell_length_c                    18.805099
_cell_angle_alpha                 109.169484
_cell_angle_beta                  109.38736
_cell_angle_gamma                 109.627754
_cell_volume                      5155.39517379

loop_
_atom_site_label
_atom_site_type_symbol
_atom_type_description
_atom_site_fract_x
_atom_site_fract_y
_atom_site_fract_z
_atom_type_partial_charge
C1    C     C_R   0.618722 0.120645 0.001932 0.825711
C2    C     C_R   0.820215 0.240847 0.999755 0.085662
C3    C     C_R   0.815253 0.314469 0.001789 -0.179634
C4    C     C_R   0.746481 0.325641 0.006486 0.604419
C5    C     C_R   0.682034 0.264273 0.009186 0.019158
C6    C     C_R   0.685853 0.189524 0.004334 -0.124604
C7    C     C_R   0.515533 0.752494 0.828167 0.489961
C8    C     C_R   0.513852 0.688544 0.763451 0.519318
C9    C     C_R   0.496305 0.686877 0.684298 -0.317607
C10   C     C_R   0.478338 0.748864 0.668642 -0.043788
C11   C     C_R   0.480892 0.813415 0.734520 0.566399
C12   C     C_R   0.497161 0.114924 0.118401 0.793410
C13   C     C_R   0.499282 0.815297 0.814105 -0.420878
C14   C     C_R   0.314366 0.825143 0.074216 -0.288444
C15   C     C_R   0.250091 0.762823 0.075325 0.566946
C16   C     C_R   0.185495 0.685093 0.998330 -0.316168
C17   C     C_R   0.185858 0.670188 0.920204 0.550695
C18   C     C_R   0.250717 0.732478 0.918606 0.038907
C19   C     C_R   0.314606 0.811048 0.996528 -0.168705
C20   C     C_R   0.618789 0.500965 0.619812 0.841845
C21   C     C_R   0.498209 0.385501 0.382733 0.730806
C22   C     C_R   0.381009 0.503721 0.384537 0.873062
C23   C     C_R   0.381302 0.879983 0.998713 0.832163
C24   C     C_R   0.498738 0.621020 0.620004 0.914179
C25   C     C_R   0.882101 0.501639 0.881750 0.881469
C26   C     C_R   0.881709 0.381184 0.000747 0.857958
C27   C     C_R   0.118334 0.499234 0.117965 0.829162
C28   C     C_R   0.118671 0.618781 0.999439 0.864770
C29   C     C_R   0.759845 0.577796 0.751994 -0.166361
C30   C     C_R   0.825395 0.580567 0.817335 0.087761
C31   C     C_R   0.815888 0.502262 0.814751 -0.169474
C32   C     C_R   0.742765 0.422800 0.746490 0.602477
C33   C     C_R   0.677120 0.420118 0.680825 0.041227
C34   C     C_R   0.499965 0.881926 0.881588 0.919165
C35   C     C_R   0.685674 0.498889 0.684928 -0.132236
C36   C     C_R   0.332439 0.528551 0.259688 0.559633
C37   C     C_R   0.268921 0.528228 0.194547 -0.010614
C38   C     C_R   0.184823 0.499462 0.185011 -0.157697
C39   C     C_R   0.165470 0.472884 0.241600 -0.004106
C40   C     C_R   0.230692 0.475736 0.307474 0.555095
C41   C     C_R   0.313838 0.502894 0.316429 -0.349001
C42   C     C_2   0.427064 0.240442 0.258788 -0.289160
C43   C     C_2   0.494055 0.322059 0.309263 0.447130
C44   C     C_2   0.421214 0.177345 0.182114 0.208079
C45   C     C_2   0.493982 0.175586 0.187666 -0.204363
C46   C     C_R   0.755051 0.179132 0.001035 -0.184412
Cu1   Cu    Cu3+1 0.438200 0.000380 0.938580 1.021355
Cu2   Cu    Cu3+1 0.561800 0.999620 0.061420 1.042883
Cu3   Cu    Cu3+1 0.438220 0.441470 0.503160 1.056290
Cu4   Cu    Cu3+1 0.561830 0.565070 0.503150 1.063262
Cu5   Cu    Cu3+1 0.999900 0.438590 0.938490 1.059185
Cu6   Cu    Cu3+1 0.999930 0.561410 0.061340 1.069011
H1    H     H_    0.373270 0.220534 0.271298 0.143796
H2    H     H_    0.363664 0.885226 0.134055 0.187908
H3    H     H_    0.765967 0.637652 0.753822 0.172193
H4    H     H_    0.553886 0.215832 0.249856 0.175219
H5    H     H_    0.757312 0.121627 0.998083 0.168019
O1    O     O_R   0.537990 0.090490 0.948120 -0.564380
O2    O     O_R   0.642390 0.554900 0.592760 -0.594745
O3    O     O_R   0.447840 0.361480 0.413570 -0.634383
O4    O     O_R   0.552220 0.465860 0.413560 -0.516404
O5    O     O_R   0.357660 0.451630 0.413550 -0.535264
O6    O     O_R   0.462040 0.556010 0.413540 -0.536790
O7    O     O_R   0.447820 0.540680 0.592750 -0.533568
O8    O     O_R   0.552200 0.645050 0.592740 -0.601959
O9    O     O_R   0.909730 0.448730 0.858460 -0.531193
O10   O     O_R   0.909750 0.552440 0.962210 -0.583535
O11   O     O_R   0.909720 0.357980 0.948050 -0.580999
O12   O     O_R   0.642370 0.089850 0.051860 -0.591336
O13   O     O_R   0.909750 0.461690 0.051790 -0.544977
O14   O     O_R   0.090070 0.447560 0.037620 -0.599312
O15   O     O_R   0.090100 0.551270 0.141360 -0.570730
O16   O     O_R   0.090070 0.538310 0.948030 -0.544444
O17   O     O_R   0.090100 0.642020 0.051770 -0.545208
O18   O     O_R   0.447800 0.089920 0.037730 -0.583307
O19   O     O_R   0.552180 0.089280 0.141460 -0.587063
O20   O     O_R   0.357630 0.910150 0.948140 -0.595555
O21   O     O_R   0.462010 0.909510 0.051880 -0.565010
O22   O     O_R   0.447820 0.910720 0.858540 -0.538668
O23   O     O_R   0.552200 0.910080 0.962270 -0.535011
O24   O     O_R   0.538000 0.450530 0.592770 -0.569740
F1    F     F_    0.530943 0.628842 0.778495 -0.597702
C47   C     C_3   0.454005 0.747289 0.582801 -0.619389
H6    H     H_    0.443493 0.688614 0.531278 0.195799
H7    H     H_    0.392177 0.748570 0.559044 0.248631
H8    H     H_    0.505986 0.805089 0.591546 0.246253
F2    F     F_    0.466277 0.874952 0.721099 -0.624942
F3    F     F_    0.252138 0.777824 0.151914 -0.629493
F4    F     F_    0.122595 0.595298 0.845208 -0.636863
C48   C     C_3   0.250722 0.711388 0.833826 -0.651235
H9    H     H_    0.310015 0.759147 0.840689 0.203282
H10   H     H_    0.247459 0.647806 0.806449 0.255477
H11   H     H_    0.193066 0.707760 0.787006 0.241613
C49   C     C_3   0.905390 0.666782 0.887223 -0.755036
H12   H     H_    0.905068 0.719962 0.874145 0.225019
H13   H     H_    0.908455 0.682720 0.950830 0.255303
H14   H     H_    0.964695 0.664532 0.890851 0.219973
F5    F     F_    0.734824 0.348085 0.745443 -0.646586
F6    F     F_    0.555854 0.351307 0.287487 -0.639569
C50   C     C_3   0.600418 0.333612 0.606232 -0.696702
H15   H     H_    0.591347 0.330305 0.543540 0.198518
H16   H     H_    0.609390 0.278567 0.606657 0.274346
H17   H     H_    0.540617 0.324548 0.609994 0.246063
F7    F     F_    0.412438 0.553359 0.266941 -0.620127
C51   C     C_3   0.294569 0.560980 0.138504 -0.628363
H18   H     H_    0.243286 0.565575 0.093107 0.198579
H19   H     H_    0.352457 0.626991 0.180487 0.255281
H20   H     H_    0.311211 0.517358 0.099996 0.247474
C52   C     C_3   0.076426 0.440098 0.233808 -0.687514
H21   H     H_    0.026584 0.434559 0.177108 0.189239
H22   H     H_    0.052879 0.374613 0.227112 0.244183
H23   H     H_    0.080789 0.484409 0.293177 0.259235
F8    F     F_    0.212844 0.452738 0.363543 -0.630586
C53   C     C_3   0.332645 0.112689 0.102931 -0.771213
H24   H     H_    0.280836 0.120506 0.114426 0.223617
H25   H     H_    0.329475 0.122616 0.047217 0.252944
H26   H     H_    0.319119 0.045718 0.086501 0.218478
C54   C     C_3   0.894348 0.227313 0.997734 -0.768463
H27   H     H_    0.892008 0.171173 0.006152 0.225019
H28   H     H_    0.890889 0.214499 0.934379 0.257061
H29   H     H_    0.957571 0.285372 0.050950 0.215613
F9    F     F_    0.741762 0.396376 0.007814 -0.633248
C55   C     C_3   0.612875 0.282486 0.020099 -0.653788
H30   H     H_    0.575714 0.240373 0.039074 0.211052
H31   H     H_    0.643649 0.350023 0.072608 0.260107
H32   H     H_    0.567157 0.274356 0.958688 0.250734
F10   F     F_    0.531492 0.752027 0.903905 -0.582932

loop_
_geom_bond_atom_site_label_1
_geom_bond_atom_site_label_2
_ccdc_geom_bond_type
C16   C28   S    
C25   C31   S    
Cu2   O19   S    
C25   O10   A    
Cu1   O22   S    
Cu2   O12   S    
C28   O17   A    
C53   H24   S    
C2    C54   S    
C7    C8    A    
C2    C46   A    
C5    C6    A    
C51   H19   S    
C29   C30   A    
Cu3   O3    S    
Cu5   O14   S    
C8    F1    S    
Cu4   O2    S    
C36   C37   A    
C43   F6    S    
Cu6   O17   S    
C52   H22   S    
C42   H1    S    
C30   C31   A    
C55   H31   S    
C22   C41   S    
C27   C38   S    
Cu3   O24   S    
C15   C16   A    
C10   C47   S    
C18   C19   A    
Cu2   O21   S    
C54   H27   S    
C34   O23   A    
C22   O6    A    
C21   C43   S    
C20   C35   S    
C31   C32   A    
C45   H4    S    
C11   F2    S    
C8    C9    A    
C9    C10   A    
C21   O4    A    
C44   C53   S    
C24   O7    A    
Cu3   O7    S    
C20   O24   A    
Cu4   O6    S    
C36   C41   A    
C42   C44   S    
C28   O16   A    
C51   H20   S    
Cu5   Cu6   S    
C18   C48   S    
Cu1   Cu2   S    
C55   H30   S    
C17   F4    S    
C21   O3    A    
C52   H23   S    
C39   C40   A    
C16   C17   A    
C55   H32   S    
C29   H3    S    
C49   H14   S    
C50   H17   S    
C1    O12   A    
C1    C6    S    
Cu5   O9    S    
C19   C23   S    
C37   C51   S    
C37   C38   A    
Cu6   O15   S    
C34   O22   A    
C22   O5    A    
C48   H10   S    
C47   H6    S    
C7    C13   A    
C50   H16   S    
C17   C18   A    
C4    F9    S    
C23   O20   A    
C20   O2    A    
C49   H13   S    
Cu6   O10   S    
C24   O8    A    
C40   C41   A    
C14   H2    S    
C40   F8    S    
C12   O19   A    
C46   H5    S    
C26   O13   A    
C42   C43   D    
Cu1   O20   S    
C3    C4    A    
C27   O14   A    
C44   C45   D    
C48   H11   S    
C5    C55   S    
Cu3   O5    S    
C6    C46   A    
C47   H7    S    
C14   C19   A    
C3    C26   S    
C25   O9    A    
Cu5   O16   S    
C12   C45   S    
C53   H25   S    
C9    C24   S    
C51   H18   S    
C29   C35   A    
C36   F7    S    
C33   C50   S    
C26   O11   A    
C32   C33   A    
Cu2   O23   S    
C2    C3    A    
Cu1   O18   S    
C13   C34   S    
C30   C49   S    
C1    O1    A    
Cu1   O1    S    
C11   C13   A    
C48   H9    S    
C38   C39   A    
C4    C5    A    
C50   H15   S    
C33   C35   A    
C32   F5    S    
Cu5   O11   S    
C23   O21   A    
C49   H12   S    
Cu4   O8    S    
C54   H28   S    
C53   H26   S    
Cu6   O13   S    
C10   C11   A    
C39   C52   S    
C47   H8    S    
Cu3   Cu4   S    
C12   O18   A    
Cu4   O4    S    
C14   C15   A    
C7    F10   S    
C52   H21   S    
C54   H29   S    
C27   O15   A    
C15   F3    S    
