data_mof_unit_6909.cif
_audit_creation_date              2012-12-10T20:28:44-0500
_audit_creation_method            fapswitch 2.2
_symmetry_space_group_name_H-M    P1
_symmetry_Int_Tables_number       1
_space_group_crystal_system       triclinic
_cell_length_a                    10.663008
_cell_length_b                    10.713392
_cell_length_c                    9.920009
_cell_angle_alpha                 89.039597
_cell_angle_beta                  86.859357
_cell_angle_gamma                 90.799646
_cell_volume                      1131.24533275

loop_
_atom_site_label
_atom_site_type_symbol
_atom_type_description
_atom_site_fract_x
_atom_site_fract_y
_atom_site_fract_z
_atom_type_partial_charge
Br1   Br    Br    0.550897 0.108193 0.833311 -0.468312
Br2   Br    Br    0.676738 0.706421 0.830518 -0.415238
Br3   Br    Br    0.180335 0.652631 0.809723 -0.490577
Br4   Br    Br    0.021903 0.483426 0.054442 -0.535215
Br5   Br    Br    0.696135 0.148693 0.269211 -0.441872
C1    C     C_R   0.505810 0.260516 0.500355 0.900632
C2    C     C_R   0.572708 0.936005 0.394294 -0.210546
C3    C     C_R   0.497746 0.870988 0.493061 -0.096002
C4    C     C_R   0.259831 0.511837 0.503963 0.886234
C5    C     C_R   0.417401 0.934604 0.581140 0.042084
C6    C     C_3   0.390297 0.919545 0.729405 -0.395539
C7    C     C_3   0.403816 0.060017 0.736540 0.107772
C8    C     C_R   0.453036 0.400230 0.076195 0.251586
C9    C     C_R   0.564155 0.588599 0.067414 -0.133004
C10   C     C_R   0.566987 0.587369 0.923984 0.310721
C11   C     C_R   0.451735 0.400681 0.934362 0.222558
C12   C     C_R   0.050222 0.490635 0.628094 -0.005020
C13   C     C_3   0.320477 0.350883 0.942418 -0.474148
C14   C     C_3   0.324005 0.348095 0.095000 -0.424051
C15   C     C_R   0.500226 0.739409 0.498573 0.918389
C16   C     C_R   0.739707 0.490575 0.496632 0.884313
C17   C     C_R   0.077908 0.511638 0.764063 0.225908
C18   C     C_R   0.005340 0.449040 0.868505 0.274043
C19   C     C_R   0.909895 0.366055 0.837509 -0.169914
C20   C     C_R   0.871632 0.362276 0.706249 -0.175296
C21   C     C_R   0.932865 0.438808 0.605407 0.049150
C22   C     C_R   0.125339 0.530040 0.512718 -0.095526
C23   C     C_R   0.068825 0.560914 0.392953 -0.155187
C24   C     C_R   0.941426 0.543053 0.385030 -0.121025
C25   C     C_R   0.873604 0.480498 0.490344 -0.076859
C26   C     C_R   0.425709 0.061526 0.586282 -0.001883
C27   C     C_R   0.509588 0.128200 0.499300 -0.125130
C28   C     C_R   0.579570 0.065439 0.396884 0.265041
H1    H     H_    0.462975 0.867039 0.781416 0.270808
H2    H     H_    0.311976 0.256831 0.901286 0.215003
H3    H     H_    0.322856 0.252065 0.139306 0.221810
H4    H     H_    0.895748 0.579215 0.298030 0.206188
H5    H     H_    0.631302 0.886322 0.320959 0.188784
H6    H     H_    0.614770 0.660669 0.118054 0.181528
H7    H     H_    0.254782 0.418735 0.903853 0.247275
H8    H     H_    0.258852 0.413895 0.146588 0.253525
H9    H     H_    0.856545 0.314875 0.916944 0.217915
H10   H     H_    0.788591 0.307749 0.686079 0.194765
H11   H     H_    0.292354 0.887347 0.753680 0.222443
H12   H     H_    0.123164 0.599583 0.306254 0.202626
H13   H     H_    0.313663 0.103850 0.767393 0.118941
N1    N     N_R   0.499160 0.499140 0.142800 -0.134840
N2    N     N_R   0.499160 0.499180 0.857150 -0.134556
O1    O     O_R   0.500020 0.316790 0.614690 -0.602811
O2    O     O_R   0.500000 0.316760 0.385350 -0.589437
O3    O     O_R   0.316770 0.500020 0.614690 -0.596384
O4    O     O_R   0.316760 0.499980 0.385350 -0.627801
O5    O     O_R   0.500000 0.683240 0.614650 -0.571202
O6    O     O_R   0.499980 0.683210 0.385310 -0.636369
O7    O     O_R   0.683240 0.500020 0.614650 -0.586811
O8    O     O_R   0.683230 0.499980 0.385310 -0.607187
Zn1   Zn    Zn3+2 0.500010 0.500020 0.653130 1.023653
Zn2   Zn    Zn3+2 0.499990 0.499980 0.346870 0.994048

loop_
_geom_bond_atom_site_label_1
_geom_bond_atom_site_label_2
_ccdc_geom_bond_type
C16   O8    A    
C1    C27   S    
C6    C7    S    
C24   C25   A    
O3    Zn1   S    
C12   C17   A    
C19   H9    S    
C13   H2    S    
C16   C25   S    
C26   C27   A    
C4    O3    A    
C18   C19   A    
C27   C28   A    
C11   N2    A    
C9    H6    S    
C6    H11   S    
C7    C26   S    
C1    O2    A    
N1    Zn2   S    
Br2   C10   S    
C2    C28   A    
C20   H10   S    
C3    C15   S    
C4    O4    A    
O4    Zn2   S    
C10   N2    A    
C12   C21   A    
C15   O6    A    
C23   C24   A    
C2    H5    S    
O8    Zn2   S    
C21   C25   A    
C14   H3    S    
O7    Zn1   S    
C1    O1    A    
C3    C5    A    
C23   H12   S    
C5    C6    S    
C8    C14   S    
O2    Zn2   S    
C2    C3    A    
N2    Zn1   S    
O1    Zn1   S    
C19   C20   A    
C4    C22   S    
C11   C13   S    
C13   C14   S    
O6    Zn2   S    
C8    C11   A    
C24   H4    S    
C22   C23   A    
C16   O7    A    
Br4   C18   S    
C13   H7    S    
C9    C10   A    
Br3   C17   S    
O5    Zn1   S    
C20   C21   A    
C17   C18   A    
C9    N1    A    
C8    N1    A    
C5    C26   A    
C6    H1    S    
Br1   C7    S    
C14   H8    S    
Br5   C28   S    
C15   O5    A    
C7    H13   S    
C12   C22   A    
