data_mof_unit_52309.cif
_audit_creation_date              2013-03-05T16:41:45-0500
_audit_creation_method            fapswitch 2.2
_symmetry_space_group_name_H-M    P1
_symmetry_Int_Tables_number       1
_space_group_crystal_system       triclinic
_cell_length_a                    10.651718
_cell_length_b                    10.812579
_cell_length_c                    9.965273
_cell_angle_alpha                 88.218175
_cell_angle_beta                  85.152133
_cell_angle_gamma                 93.455432
_cell_volume                      1140.78502916

loop_
_atom_site_label
_atom_site_type_symbol
_atom_site_description
_atom_site_fract_x
_atom_site_fract_y
_atom_site_fract_z
_atom_type_partial_charge
O1    O     O_R   0.500020 0.316790 0.614690 -0.632523
O2    O     O_R   0.500000 0.316760 0.385350 -0.583506
C1    C     C_R   0.502956 0.260402 0.502011 0.902018
O3    O     O_R   0.316770 0.500020 0.614690 -0.581721
O4    O     O_R   0.316760 0.499980 0.385350 -0.569156
C2    C     C_R   0.260501 0.512812 0.505543 0.925869
Zn1   Zn    Zn3+2 0.500010 0.500020 0.653130 1.040602
Zn2   Zn    Zn3+2 0.499990 0.499980 0.346870 1.104246
O5    O     O_R   0.500000 0.683240 0.614650 -0.571762
O6    O     O_R   0.499980 0.683210 0.385310 -0.563248
O7    O     O_R   0.683240 0.500020 0.614650 -0.600591
O8    O     O_R   0.683230 0.499980 0.385310 -0.574488
C3    C     C_R   0.506886 0.740330 0.497709 0.904391
C4    C     C_R   0.740055 0.492295 0.495443 0.880269
C5    C     C_R   0.068718 0.502078 0.767470 0.265819
C6    C     C_R   0.988694 0.434899 0.870224 0.342729
C7    C     C_R   0.891015 0.354342 0.831775 -0.183814
H1    H     H_    0.832439 0.296540 0.905877 0.232625
C8    C     C_R   0.860007 0.356169 0.699323 -0.169636
H2    H     H_    0.776298 0.302284 0.675214 0.171984
C9    C     C_R   0.928603 0.437012 0.602550 0.056808
C10   C     C_R   0.046645 0.487742 0.629932 -0.052382
C11   C     C_R   0.127405 0.537441 0.518386 -0.184163
C12   C     C_R   0.075148 0.583640 0.403925 0.294082
H3    H     H_    0.906575 0.606957 0.312401 0.229610
C13   C     C_R   0.948162 0.560255 0.392374 -0.116991
C14   C     C_R   0.874992 0.484648 0.488685 -0.124176
C15   C     C_R   0.490604 0.057193 0.621992 0.049206
C16   C     C_R   0.523012 0.130429 0.505946 -0.166475
C17   C     C_R   0.582370 0.076986 0.394018 -0.155208
H4    H     H_    0.624740 0.134446 0.309753 0.248000
C18   C     C_R   0.578723 0.948744 0.385870 0.327873
C19   C     C_R   0.525299 0.873809 0.497545 -0.236589
C20   C     C_R   0.495294 0.930790 0.618817 0.090434
C21   C     C_3   0.380386 0.908341 0.714616 0.177120
C22   C     C_3   0.372052 0.046873 0.713206 -0.442756
H5    H     H_    0.300722 0.858474 0.669836 0.151056
H6    H     H_    0.289448 0.078702 0.663544 0.219460
H7    H     H_    0.385819 0.083166 0.813040 0.262660
C23   C     C_R   0.407154 0.434928 0.081061 0.095411
N1    N     N_R   0.499160 0.499140 0.142800 -0.146266
C24   C     C_R   0.591758 0.563992 0.059807 0.326212
C25   C     C_R   0.587743 0.570175 0.917590 0.299748
N2    N     N_R   0.499160 0.499180 0.857150 -0.165440
C26   C     C_R   0.405397 0.437260 0.938881 0.112531
C27   C     C_3   0.375332 0.302144 0.935512 -0.034598
C28   C     C_3   0.379485 0.296548 0.087772 0.414867
H8    H     H_    0.455201 0.258789 0.880237 0.150252
Br1   Br    Br    0.169299 0.694184 0.271522 -0.287351
Br2   Br    Br    0.421893 0.844538 0.889314 -0.259263
Br3   Br    Br    0.742995 0.625958 0.128120 -0.311013
Br4   Br    Br    0.708073 0.682096 0.812003 -0.331520
Br5   Br    Br    0.213831 0.259333 0.868264 -0.429778
Br6   Br    Br    0.223983 0.249967 0.200811 -0.267522
N3    N     N_R   0.483741 0.223291 0.122846 0.178340
O9    O     O_R   0.600048 0.268899 0.101518 -0.426927
O10   O     O_R   0.462967 0.103416 0.132383 -0.309487
Br7   Br    Br    0.173755 0.642115 0.813463 -0.345952
N4    N     N_R   0.006222 0.443824 0.011962 0.258351
O11   O     O_R   0.111826 0.488948 0.052310 -0.292968
O12   O     O_R   0.921739 0.392782 0.102157 -0.331022
Br8   Br    Br    0.638004 0.889620 0.216034 -0.264279

loop_
_geom_bond_atom_site_label_1
_geom_bond_atom_site_label_2
_geom_bond_distance
_ccdc_geom_bond_type
O4    Zn2   1.956971 S    
Zn1   O7    1.956970 S    
N3    O9    1.303269 A    
O6    C3    1.301122 A    
C3    C19   1.444688 S    
C16   C17   1.393806 A    
C4    C14   1.440672 S    
C23   C28   1.505779 S    
C5    Br7   1.918376 S    
N1    C24   1.375227 A    
C8    H2    1.083744 S    
C24   Br3   1.895008 S    
Zn2   O8    2.020572 S    
C18   C19   1.414256 A    
C21   Br2   1.947908 S    
C22   H6    1.112219 S    
C19   C20   1.395345 A    
C9    C14   1.409805 A    
C28   N3    1.461925 S    
C15   C20   1.371899 A    
N4    O11   1.299054 A    
N3    O10   1.300858 A    
O1    Zn1   2.029547 S    
Zn1   N2    2.032105 S    
Zn2   N1    2.034680 S    
C17   C18   1.389917 A    
C13   C14   1.394589 A    
C23   C26   1.418029 A    
O3    Zn1   2.020573 S    
O4    C2    1.308435 A    
C2    C11   1.454016 S    
C27   Br5   1.934120 S    
O3    C2    1.293152 A    
C23   N1    1.366552 A    
C8    C9    1.406933 A    
O8    C4    1.300180 A    
C7    H1    1.082424 S    
Zn1   O5    2.006118 S    
C28   Br6   1.953184 S    
C25   N2    1.371074 A    
C17   H4    1.079128 S    
O7    C4    1.294274 A    
C27   H8    1.109893 S    
C25   Br4   1.928806 S    
N4    O12   1.301847 A    
C24   C25   1.421109 A    
C11   C12   1.402081 A    
C18   Br8   1.899244 S    
C5    C6    1.426288 A    
C7    C8    1.387272 A    
C26   C27   1.478689 S    
N2    C26   1.362754 A    
C15   C22   1.488617 S    
Zn2   O6    2.029548 S    
C20   C21   1.490191 S    
C12   Br1   1.925898 S    
C1    C16   1.433989 S    
O5    C3    1.296087 A    
C27   C28   1.521119 S    
C15   C16   1.387877 A    
O2    C1    1.299355 A    
C21   H5    1.110724 S    
H3    C13   1.071435 S    
C9    C10   1.392992 A    
C22   H7    1.098758 S    
C5    C10   1.421669 A    
O2    Zn2   2.006118 S    
C10   C11   1.417711 A    
C21   C22   1.505559 S    
C12   C13   1.376096 A    
C6    C7    1.402464 A    
O1    C1    1.293256 A    
C6    N4    1.445715 S    
