data_mof_unit_28596.cif
_audit_creation_date              2013-03-05T15:44:20-0500
_audit_creation_method            fapswitch 2.2
_symmetry_space_group_name_H-M    P1
_symmetry_Int_Tables_number       1
_space_group_crystal_system       triclinic
_cell_length_a                    23.516723
_cell_length_b                    10.880797
_cell_length_c                    9.91769
_cell_angle_alpha                 88.296584
_cell_angle_beta                  91.271742
_cell_angle_gamma                 94.338716
_cell_volume                      2528.84803441

loop_
_atom_site_label
_atom_site_type_symbol
_atom_site_description
_atom_site_fract_x
_atom_site_fract_y
_atom_site_fract_z
_atom_type_partial_charge
O1    O     O_R   0.500010 0.321960 0.617040 -0.541520
O2    O     O_R   0.499990 0.321920 0.382900 -0.587406
C1    C     C_R   0.497811 0.265554 0.501742 0.870939
O3    O     O_R   0.417890 0.499980 0.617100 -0.549037
O4    O     O_R   0.417870 0.499940 0.382950 -0.536473
C2    C     C_R   0.391228 0.496655 0.498884 0.862669
Cu1   Cu    Cu3+1 0.500010 0.500020 0.638630 1.018507
Cu2   Cu    Cu3+1 0.499990 0.499980 0.361370 1.003198
O5    O     O_R   0.500010 0.678080 0.617100 -0.618945
O6    O     O_R   0.499990 0.678040 0.382960 -0.589184
O7    O     O_R   0.582130 0.500060 0.617050 -0.593790
O8    O     O_R   0.582110 0.500020 0.382900 -0.619922
C3    C     C_R   0.500132 0.734085 0.498652 0.796832
C4    C     C_R   0.608467 0.498347 0.500896 0.763921
C5    C     C_R   0.882425 0.596516 0.518052 0.571230
N1    N     N_R   0.850761 0.486197 0.505893 -0.445797
C6    C     C_R   0.876417 0.378215 0.493520 0.577059
C7    C     C_R   0.936097 0.378025 0.497477 -0.000465
C8    C     C_R   0.969233 0.490932 0.508295 -0.018522
C9    C     C_R   0.942232 0.601224 0.517216 -0.087342
C10   C     C_R   0.963256 0.268023 0.489496 -0.173572
C11   C     C_R   0.022572 0.270072 0.491671 -0.163409
C12   C     C_R   0.056025 0.382257 0.500287 0.010383
C13   C     C_R   0.029396 0.493512 0.508259 -0.072071
C14   C     C_R   0.062702 0.606985 0.514969 -0.132533
C15   C     C_R   0.034966 0.717481 0.526903 0.466614
C16   C     C_R   0.975345 0.713522 0.525052 -0.241477
C17   C     C_R   0.115670 0.385713 0.500748 0.548753
N2    N     N_R   0.147666 0.496236 0.502755 -0.460021
C18   C     C_R   0.122566 0.605701 0.507960 0.557854
O9    O     O_2   0.856091 0.701298 0.531820 -0.546058
O10   O     O_2   0.844298 0.271627 0.475647 -0.561119
H1    H     H_    0.938811 0.179982 0.481638 0.186519
H2    H     H_    0.042122 0.183561 0.484835 0.191468
O11   O     O_2   0.141576 0.279187 0.499973 -0.517018
O12   O     O_2   0.155556 0.712611 0.503985 -0.492625
H3    H     H_    0.955119 0.799470 0.529378 0.194700
C19   C     C_R   0.242362 0.547152 0.605623 -0.081943
H4    H     H_    0.222505 0.587054 0.689789 0.163008
C20   C     C_R   0.301475 0.545834 0.603974 -0.193531
H5    H     H_    0.326291 0.587410 0.686358 0.198738
C21   C     C_R   0.328359 0.492557 0.497270 -0.153705
C22   C     C_R   0.294519 0.438238 0.391457 0.302909
C23   C     C_R   0.235180 0.444418 0.392219 -0.145310
H6    H     H_    0.208965 0.403985 0.311446 0.189306
C24   C     C_R   0.208870 0.497167 0.499495 0.268848
C25   C     C_R   0.757433 0.419562 0.604837 0.504283
C26   C     C_R   0.697755 0.424261 0.602544 -0.335674
H7    H     H_    0.672442 0.374458 0.678874 0.149443
C27   C     C_R   0.670550 0.492322 0.501496 -0.057731
C28   C     C_R   0.702764 0.552231 0.398539 -0.229941
H8    H     H_    0.682378 0.603898 0.318436 0.147247
C29   C     C_R   0.761769 0.548187 0.399634 -0.178657
H9    H     H_    0.786228 0.596128 0.320272 0.167007
C30   C     C_R   0.789512 0.484469 0.503666 0.280072
C31   C     C_2   0.474917 0.930941 0.403181 -0.155064
C32   C     C_2   0.502557 0.867056 0.497703 -0.297451
H10   H     H_    0.450242 0.883352 0.323961 0.175189
H11   H     H_    0.527676 0.911680 0.577815 0.137688
C33   C     C_2   0.479288 0.066044 0.398117 -0.115642
C34   C     C_2   0.492023 0.132041 0.508144 -0.281249
H12   H     H_    0.470782 0.111516 0.301551 0.181705
H13   H     H_    0.495648 0.088339 0.607345 0.160525
C35   C     C_2   0.462017 0.437897 0.924704 0.509661
N3    N     N_2   0.499380 0.498660 0.846910 -0.054806
C36   C     C_2   0.470348 0.420574 0.077101 0.122765
N4    N     N_2   0.499370 0.498630 0.153040 -0.023745
H14   H     H_    0.449523 0.338673 0.124773 0.116222
N5    N     N_R   0.410516 0.381811 0.866870 0.086610
O13   O     O_R   0.361746 0.405660 0.915302 -0.313189
O14   O     O_R   0.412600 0.287753 0.789839 -0.336581
O15   O     O_3   0.552801 0.511325 0.902662 -0.542990
C37   C     C_3   0.583361 0.620498 0.851128 0.245179
H15   H     H_    0.571630 0.702612 0.900194 0.101761
H16   H     H_    0.573205 0.648936 0.749683 0.190837
C38   C     C_3   0.648077 0.609441 0.864612 -0.410928
H17   H     H_    0.662933 0.610823 0.971298 0.199052
H18   H     H_    0.658378 0.519791 0.826426 0.244761
C39   C     C_3   0.681694 0.713128 0.786774 -0.890766
H19   H     H_    0.670162 0.710711 0.677646 0.256043
H20   H     H_    0.728079 0.701762 0.798751 0.282017
H21   H     H_    0.672695 0.804073 0.825952 0.245883
O16   O     O_3   0.505332 0.614904 0.099200 -0.508390
C40   C     C_3   0.557614 0.675443 0.145931 0.257811
H22   H     H_    0.594088 0.637486 0.100510 0.105425
H23   H     H_    0.569355 0.660704 0.249997 0.176831
C41   C     C_3   0.557148 0.815651 0.122702 -0.415983
H24   H     H_    0.539730 0.840108 0.021428 0.222798
H25   H     H_    0.528590 0.852252 0.195733 0.236649
C42   C     C_3   0.616580 0.880043 0.141575 -0.949044
H26   H     H_    0.633642 0.860116 0.244632 0.258299
H27   H     H_    0.614245 0.981206 0.128168 0.272048
H28   H     H_    0.645985 0.848502 0.065968 0.263279
O17   O     O_3   0.065230 0.831417 0.532333 -0.565063
C43   C     C_3   0.079317 0.859279 0.668254 0.138559
H29   H     H_    0.120715 0.915737 0.668214 0.212518
H30   H     H_    0.085984 0.776023 0.733716 0.116643
C44   C     C_3   0.034163 0.934944 0.728398 -0.424517
H31   H     H_    0.025288 0.013026 0.658300 0.238317
H32   H     H_    0.993980 0.876018 0.742531 0.218647
C45   C     C_3   0.053943 0.985763 0.864740 -0.823679
H33   H     H_    0.062711 0.909132 0.936921 0.260739
H34   H     H_    0.020058 0.038607 0.906254 0.260950
H35   H     H_    0.093180 0.048436 0.853307 0.271453
N6    N     N_R   0.318827 0.370360 0.287744 0.138816
O18   O     O_R   0.355493 0.289993 0.319655 -0.352066
O19   O     O_R   0.296361 0.370565 0.166667 -0.298783
O20   O     O_3   0.786001 0.363997 0.711621 -0.609012
C46   C     C_3   0.764469 0.240350 0.736553 0.098069
H36   H     H_    0.800860 0.181202 0.732429 0.193427
H37   H     H_    0.732369 0.203887 0.660252 0.133192
C47   C     C_3   0.739847 0.227281 0.878240 -0.358779
H38   H     H_    0.773772 0.254843 0.953610 0.240963
H39   H     H_    0.704813 0.289348 0.887089 0.216226
C48   C     C_3   0.716861 0.094902 0.910066 -0.910811
H40   H     H_    0.681257 0.066956 0.839290 0.252781
H41   H     H_    0.700722 0.088234 0.014530 0.266868
H42   H     H_    0.751172 0.030846 0.902183 0.264621

loop_
_geom_bond_atom_site_label_1
_geom_bond_atom_site_label_2
_geom_bond_distance
_ccdc_geom_bond_type
C15   O17   1.383865 S    
C36   H14   1.084770 S    
C41   H24   1.108940 S    
N4    O16   1.357095 S    
C45   H33   1.110940 S    
C7    C10   1.403673 A    
C37   H15   1.086412 S    
C8    C9    1.405455 A    
C40   C41   1.536914 S    
C39   H21   1.110481 S    
C47   H39   1.110626 S    
C43   C44   1.533220 S    
Cu1   Cu2   2.749780 S    
C4    C27   1.466267 S    
C29   H9    1.082935 S    
O20   C46   1.417845 S    
Cu1   O7    1.947698 S    
N6    O19   1.301128 A    
C15   C16   1.399218 A    
C17   N2    1.369900 A    
C38   H18   1.102471 S    
C46   H37   1.116726 S    
C19   H4    1.082985 S    
O7    C4    1.321251 A    
C32   H11   1.083821 S    
C10   H1    1.083217 S    
C1    C34   1.448438 S    
C48   H40   1.110983 S    
C31   C32   1.336817 D    
C33   H12   1.086428 S    
C7    C8    1.409712 A    
C22   N6    1.437151 S    
N5    O14   1.299691 A    
O5    C3    1.307161 A    
C40   H22   1.091337 S    
C25   C26   1.407888 A    
C17   O11   1.349921 S    
N1    C6    1.370639 A    
C48   H41   1.109735 S    
C12   C13   1.409401 A    
C38   C39   1.527782 S    
C26   C27   1.400418 A    
C36   N4    1.296868 D    
C45   H34   1.110441 S    
C10   C11   1.393121 A    
C37   H16   1.071001 S    
N5    O13   1.300136 A    
O3    Cu1   1.938212 S    
C47   H38   1.111685 S    
C23   C24   1.401228 A    
C27   C28   1.400554 A    
C29   C30   1.402451 A    
C5    C9    1.403726 A    
C11   H2    1.082901 S    
C28   H8    1.083668 S    
C13   C14   1.413710 A    
O3    C2    1.317379 A    
C46   C47   1.530320 S    
C39   H20   1.110460 S    
C14   C15   1.419679 A    
C35   N5    1.430516 S    
C31   C33   1.465279 S    
C33   C34   1.340016 D    
C28   C29   1.391412 A    
C35   C36   1.527682 S    
C22   C23   1.402339 A    
N2    C18   1.371543 A    
Cu1   N3    2.065643 S    
C42   H27   1.110151 S    
O16   C40   1.425024 S    
Cu2   O8    1.938217 S    
C48   H42   1.110897 S    
C34   H13   1.084399 S    
C6    C7    1.403331 A    
C12   C17   1.400227 A    
C38   H17   1.107046 S    
C20   H5    1.083369 S    
O8    C4    1.312347 A    
C44   H31   1.110847 S    
C45   H35   1.110911 S    
C44   H32   1.110217 S    
C41   H25   1.101578 S    
C37   C38   1.538265 S    
C21   C22   1.418639 A    
N3    O15   1.360317 S    
C23   H6    1.083219 S    
C42   H28   1.110173 S    
C25   C30   1.409078 A    
C14   C18   1.412199 A    
Cu1   O5    1.942845 S    
C26   H7    1.080692 S    
O1    Cu1   1.955548 S    
O2    Cu2   1.942845 S    
C40   H23   1.073024 S    
O15   C37   1.428224 S    
O6    C3    1.315114 A    
O4    Cu2   1.947698 S    
C43   H30   1.117460 S    
C5    O9    1.349762 S    
C9    C16   1.401582 A    
C44   C45   1.525844 S    
N6    O18   1.301495 A    
C18   O12   1.348590 S    
N2    C24   1.439647 S    
C35   N3    1.310078 D    
O2    C1    1.312593 A    
N1    C30   1.438765 S    
C46   H36   1.111174 S    
C19   C20   1.391759 A    
C42   H26   1.111070 S    
O4    C2    1.319845 A    
C16   H3    1.083170 S    
C20   C21   1.406162 A    
C31   H10   1.086560 S    
C8    C13   1.412986 A    
O17   C43   1.417069 S    
C19   C24   1.398734 A    
C39   H19   1.110482 S    
C3    C32   1.443401 S    
Cu2   N4    2.066362 S    
Cu2   O6    1.955547 S    
C25   O20   1.389334 S    
C2    C21   1.475529 S    
C41   C42   1.525563 S    
C43   H29   1.111152 S    
C6    O10   1.349327 S    
C11   C12   1.405038 A    
O1    C1    1.311954 A    
C47   C48   1.526201 S    
C5    N1    1.370858 A    
