data_mof_unit_40176.cif
_audit_creation_date              2012-12-11T17:29:25-0500
_audit_creation_method            fapswitch 2.2
_symmetry_space_group_name_H-M    P1
_symmetry_Int_Tables_number       1
_space_group_crystal_system       triclinic
_cell_length_a                    6.97842
_cell_length_b                    21.473983
_cell_length_c                    23.667736
_cell_angle_alpha                 90.222426
_cell_angle_beta                  91.104311
_cell_angle_gamma                 90.736554
_cell_volume                      3545.73408497

loop_
_atom_site_label
_atom_site_type_symbol
_atom_type_description
_atom_site_fract_x
_atom_site_fract_y
_atom_site_fract_z
_atom_type_partial_charge
O1    O     O_R   0.385180 0.195030 0.193850 -0.534894
O2    O     O_R   0.614820 0.804970 0.806150 -0.534330
O3    O     O_R   0.714780 0.188250 0.308340 -0.536666
O4    O     O_R   0.285220 0.811750 0.691660 -0.537483
O5    O     O_R   0.885140 0.307540 0.308730 -0.534484
O6    O     O_R   0.114860 0.692460 0.691270 -0.534678
C1    C     C_R   0.546475 0.173300 0.327649 0.727315
C2    C     C_R   0.453568 0.826819 0.672439 0.728774
O7    O     O_R   0.714890 0.187670 0.194260 -0.534101
O8    O     O_R   0.285110 0.812330 0.805740 -0.541063
O9    O     O_R   0.885250 0.306950 0.193830 -0.535131
O10   O     O_R   0.114750 0.693050 0.806170 -0.534138
C3    C     C_R   0.543565 0.172541 0.174925 0.717784
C4    C     C_R   0.456194 0.827477 0.825044 0.728425
O11   O     O_R   0.385070 0.195610 0.308740 -0.535385
O12   O     O_R   0.614930 0.804390 0.691260 -0.532949
O13   O     O_3   0.551660 0.290420 0.251280 -0.366447
O14   O     O_3   0.448340 0.709580 0.748720 -0.366191
V1    V     V_3+5 0.826490 0.244020 0.251290 1.429376
V2    V     V_3+5 0.173510 0.755980 0.748710 1.409317
O15   O     O_R   0.214970 0.314310 0.194240 -0.535988
O16   O     O_R   0.785030 0.685690 0.805760 -0.535873
C5    C     C_R   0.045723 0.329217 0.174818 0.727692
C6    C     C_R   0.954288 0.670650 0.825071 0.727011
O17   O     O_R   0.214860 0.314890 0.308320 -0.536627
O18   O     O_R   0.785140 0.685110 0.691680 -0.535998
C7    C     C_R   0.048199 0.330026 0.327608 0.725456
C8    C     C_R   0.951846 0.670006 0.672366 0.727292
V3    V     V_3+5 0.326500 0.258540 0.251290 1.429142
V4    V     V_3+5 0.673500 0.741460 0.748710 1.420238
O19   O     O_3   0.051460 0.212150 0.251290 -0.367062
O20   O     O_3   0.948540 0.787850 0.748710 -0.370118
C9    C     C_3   0.937382 0.468308 0.547454 0.315590
C10   C     C_3   0.076031 0.526514 0.458074 0.432956
C11   C     C_3   0.130753 0.451406 0.519238 -0.452445
C12   C     C_3   0.882388 0.542385 0.485169 -0.375005
H1    H     H_    0.228169 0.413207 0.531668 0.133957
H2    H     H_    0.779352 0.578463 0.471369 0.166903
C13   C     C_1   0.044303 0.375237 0.373196 -0.195923
C14   C     C_1   0.956836 0.624022 0.627446 -0.211169
C15   C     C_3   0.838716 0.471592 0.488887 0.410308
C16   C     C_3   0.175593 0.522522 0.516586 0.416662
C17   C     C_3   0.028917 0.456373 0.460183 -0.045659
C18   C     C_3   0.983656 0.538718 0.544149 -0.081017
C19   C     C_1   0.039851 0.412281 0.412024 0.048381
C20   C     C_1   0.965623 0.585575 0.589868 0.014892
H3    H     H_    0.297397 0.543019 0.958484 0.112692
H4    H     H_    0.702615 0.455810 0.040563 0.112299
C21   C     C_R   0.179270 0.481283 0.020733 -0.152657
C22   C     C_R   0.820740 0.517521 0.978293 -0.152101
H5    H     H_    0.319082 0.467715 0.036688 0.112157
H6    H     H_    0.680928 0.531120 0.962361 0.111759
C23   C     C_R   0.012456 0.456200 0.044512 0.135365
C24   C     C_R   0.987555 0.542673 0.954568 0.135935
C25   C     C_R   0.833107 0.474608 0.022905 -0.152562
C26   C     C_R   0.166904 0.524193 0.976119 -0.151765
C27   C     C_1   0.025111 0.411669 0.090767 -0.056914
C28   C     C_1   0.974901 0.587525 0.908570 -0.055456
C29   C     C_1   0.964997 0.625209 0.870375 -0.185443
C30   C     C_1   0.035025 0.374309 0.129225 -0.186046
C31   C     C_R   0.320435 0.982212 0.520258 -0.154765
C32   C     C_R   0.679819 0.018975 0.480677 -0.154615
C33   C     C_R   0.486460 0.956471 0.544593 0.136050
C34   C     C_R   0.513787 0.044660 0.456300 0.137106
C35   C     C_R   0.666237 0.975204 0.524486 -0.153818
C36   C     C_R   0.334020 0.025986 0.476451 -0.153176
C37   C     C_1   0.472720 0.910890 0.589861 -0.057914
C38   C     C_1   0.527483 0.089925 0.410782 -0.053829
C39   C     C_1   0.537390 0.127781 0.372811 -0.187786
C40   C     C_1   0.462761 0.872694 0.627561 -0.186202
H7    H     H_    0.199101 0.018982 0.058812 0.184583
H8    H     H_    0.740046 0.998419 0.929818 0.162306
C41   C     C_R   0.302040 0.971369 0.984948 0.463700
C42   C     C_R   0.637554 0.044650 0.002584 0.456045
C43   C     C_R   0.465389 0.961484 0.950811 -0.054904
C44   C     C_R   0.487092 0.049344 0.040856 -0.059473
C45   C     C_R   0.624856 0.000940 0.958608 -0.280267
C46   C     C_R   0.319002 0.013763 0.030829 -0.244797
C47   C     C_1   0.474033 0.913139 0.907173 -0.028657
C48   C     C_1   0.505571 0.091498 0.089354 0.024439
C49   C     C_1   0.525127 0.127780 0.128774 -0.187472
C50   C     C_1   0.470982 0.873878 0.869854 -0.213001
O21   O     O_3   0.846560 0.442152 0.594793 -0.581867
C51   C     C_3   0.955911 0.393032 0.617033 0.065077
H9    H     H_    0.100723 0.410262 0.630808 0.127522
H10   H     H_    0.969760 0.355378 0.584904 0.114362
C52   C     C_3   0.854541 0.366296 0.668308 -0.294400
H11   H     H_    0.840166 0.403416 0.700769 0.199889
H12   H     H_    0.708600 0.349652 0.655381 0.187754
C53   C     C_3   0.965702 0.312261 0.693998 -0.840928
H13   H     H_    0.978772 0.274058 0.662578 0.230349
H14   H     H_    0.888646 0.294001 0.731185 0.233047
H15   H     H_    0.111168 0.328155 0.708019 0.230398
O22   O     O_3   0.156732 0.554426 0.410021 -0.555233
C54   C     C_3   0.168154 0.619899 0.416513 0.131031
H16   H     H_    0.314923 0.635160 0.404926 0.146504
H17   H     H_    0.146162 0.636812 0.460566 0.122304
C55   C     C_3   0.023648 0.650482 0.376293 -0.329116
H18   H     H_    0.054769 0.636845 0.332085 0.212824
H19   H     H_    0.876459 0.634012 0.386029 0.198469
C56   C     C_3   0.032458 0.721320 0.381424 -0.831353
H20   H     H_    0.997267 0.736028 0.425026 0.231956
H21   H     H_    0.926873 0.742060 0.351523 0.239420
H22   H     H_    0.177834 0.738999 0.371048 0.234947
O23   O     O_3   0.347912 0.555485 0.529160 -0.572685
C57   C     C_3   0.455803 0.526168 0.572434 0.145541
H23   H     H_    0.602251 0.545776 0.570458 0.176884
H24   H     H_    0.469186 0.475328 0.565671 0.150882
C58   C     C_3   0.381649 0.540142 0.631622 -0.372558
H25   H     H_    0.366581 0.591257 0.637050 0.218876
H26   H     H_    0.240453 0.517019 0.637194 0.196238
C59   C     C_3   0.517871 0.515832 0.677408 -0.784460
H27   H     H_    0.530499 0.464489 0.673684 0.233589
H28   H     H_    0.461064 0.527107 0.719685 0.222524
H29   H     H_    0.661965 0.537798 0.673798 0.245677
O24   O     O_3   0.660132 0.444759 0.472633 -0.554715
C60   C     C_3   0.653344 0.380987 0.487539 0.098659
H30   H     H_    0.591441 0.376405 0.530257 0.132702
H31   H     H_    0.796441 0.358471 0.488207 0.104670
C61   C     C_3   0.525455 0.345841 0.444868 -0.286413
H32   H     H_    0.380555 0.366105 0.444986 0.207552
H33   H     H_    0.584630 0.351073 0.401841 0.210286
C62   C     C_3   0.509640 0.276762 0.459087 -0.860003
H34   H     H_    0.652459 0.254690 0.457027 0.230318
H35   H     H_    0.411185 0.253266 0.428121 0.231826
H36   H     H_    0.451343 0.270493 0.502067 0.228382
H37   H     H_    0.204146 0.045232 0.458264 0.112239
H38   H     H_    0.796112 0.955926 0.542642 0.112465
H39   H     H_    0.180333 0.968427 0.535095 0.111543
H40   H     H_    0.819912 0.032723 0.465806 0.111544
O25   O     O_3   0.127424 0.939193 0.979490 -0.565151
C63   C     C_3   0.062043 0.925798 0.923393 0.127710
H41   H     H_    0.909482 0.911538 0.926547 0.149158
H42   H     H_    0.127162 0.882934 0.907032 0.125350
C64   C     C_3   0.075152 0.980884 0.881337 -0.382140
H43   H     H_    0.025530 0.024344 0.901295 0.198652
H44   H     H_    0.224302 0.990132 0.868529 0.195044
C65   C     C_3   0.958049 0.967439 0.827379 -0.817446
H45   H     H_    0.011744 0.924976 0.806250 0.244308
H46   H     H_    0.971701 0.007335 0.797962 0.229039
H47   H     H_    0.804198 0.960529 0.836865 0.228520
O26   O     O_3   0.805574 0.078843 0.010327 -0.565033
C66   C     C_3   0.780666 0.140341 0.990283 0.080906
H48   H     H_    0.857721 0.172360 0.020181 0.142084
H49   H     H_    0.628252 0.155722 0.988702 0.098736
C67   C     C_3   0.868767 0.147184 0.931900 -0.325772
H50   H     H_    0.022261 0.134048 0.934334 0.199082
H51   H     H_    0.792851 0.115520 0.901445 0.188960
C68   C     C_3   0.854318 0.213908 0.910451 -0.828739
H52   H     H_    0.701778 0.227763 0.906740 0.231173
H53   H     H_    0.919549 0.217293 0.868130 0.232486
H54   H     H_    0.931995 0.246436 0.939739 0.231091

loop_
_geom_bond_atom_site_label_1
_geom_bond_atom_site_label_2
_ccdc_geom_bond_type
C66   C67   S    
C52   H11   S    
C41   O25   S    
C56   H20   S    
C64   C65   S    
C60   H30   S    
O13   V3    S    
C32   H40   S    
C54   H16   S    
C10   C16   S    
C51   C52   S    
O4    C2    A    
V1    O19   S    
C33   C35   A    
C54   C55   S    
C62   H34   S    
C36   H37   S    
C14   C20   T    
O9    V1    S    
C22   C24   A    
C42   C44   A    
C34   C38   S    
C11   H1    S    
C51   H10   S    
O3    C1    A    
C60   H31   S    
V2    O20   S    
C62   H35   S    
C57   H23   S    
C8    C14   S    
O12   V4    S    
C66   H48   S    
C3    C49   S    
O24   C60   S    
C64   H44   S    
C2    O12   A    
O9    C5    A    
C31   C33   A    
C11   C16   S    
O7    C3    A    
C32   C34   A    
C58   H26   S    
C9    C11   S    
O5    C7    A    
C31   C36   A    
O7    V1    S    
O6    C8    A    
C7    C13   S    
C63   H41   S    
C21   H5    S    
C42   C45   A    
C22   H6    S    
C41   C46   A    
O3    V1    S    
O14   V4    S    
C11   C17   S    
C10   C12   S    
C61   C62   S    
C31   H39   S    
C13   C19   T    
C1    O11   A    
C42   O26   S    
H4    C25   S    
C56   H21   S    
C15   C17   S    
C12   C15   S    
C16   C18   S    
C59   H28   S    
C59   H27   S    
C18   C20   S    
O11   V3    S    
C67   H51   S    
C23   C25   A    
O17   V3    S    
C5    C30   S    
C24   C26   A    
C35   H38   S    
C44   C48   S    
C64   H43   S    
C51   H9    S    
O8    C4    A    
C68   H54   S    
O8    V2    S    
C23   C27   S    
C38   C39   T    
C62   H36   S    
C28   C29   T    
O15   V3    S    
C58   C59   S    
C34   C36   A    
C33   C37   S    
H8    C45   S    
C67   C68   S    
C9    O21   S    
C53   H14   S    
O21   C51   S    
V3    O19   S    
O10   V2    S    
O1    V3    S    
C43   C45   A    
C65   H46   S    
O18   V4    S    
C56   H22   S    
C55   H19   S    
O15   C5    A    
O16   C6    A    
C60   C61   S    
O1    C3    A    
C41   C43   A    
C15   O24   S    
O25   C63   S    
C21   C26   A    
C61   H32   S    
C61   H33   S    
C53   H15   S    
C67   H50   S    
C24   C28   S    
C66   H49   S    
O16   V4    S    
C32   C35   A    
C9    C18   S    
O18   C8    A    
C10   C17   S    
C10   O22   S    
C44   C46   A    
C48   C49   T    
C27   C30   T    
C65   H47   S    
C1    C39   S    
C47   C50   T    
C54   H17   S    
O5    V1    S    
O17   C7    A    
C55   C56   S    
O6    V2    S    
O23   C57   S    
O10   C6    A    
C2    C40   S    
C22   C25   A    
O2    V4    S    
C37   C40   T    
C9    C15   S    
C68   H53   S    
C17   C19   S    
C68   H52   S    
V4    O20   S    
C53   H13   S    
C57   H24   S    
C6    C29   S    
C21   C23   A    
C12   H2    S    
C63   C64   S    
O13   V1    S    
O14   V2    S    
H7    C46   S    
O22   C54   S    
O2    C4    A    
C16   O23   S    
C12   C18   S    
C65   H45   S    
O4    V2    S    
C63   H42   S    
C55   H18   S    
C52   C53   S    
C52   H12   S    
C4    C50   S    
O26   C66   S    
C58   H25   S    
C43   C47   S    
C59   H29   S    
H3    C26   S    
C57   C58   S    
