data_mof_unit_41717.cif
_audit_creation_date              2012-10-26T18:47:51-0400
_audit_creation_method            fapswitch 2.2
_symmetry_space_group_name_H-M    P1
_symmetry_Int_Tables_number       1
_space_group_crystal_system       triclinic
_cell_length_a                    15.785002
_cell_length_b                    8.822404
_cell_length_c                    7.780548
_cell_angle_alpha                 104.252475
_cell_angle_beta                  91.253053
_cell_angle_gamma                 92.129685
_cell_volume                      1048.91758756

loop_
_atom_site_label
_atom_site_type_symbol
_atom_type_description
_atom_site_fract_x
_atom_site_fract_y
_atom_site_fract_z
_atom_type_partial_charge
C1    C     C_R   0.497476 0.200991 0.453349 0.525747
C2    C     C_2   0.503879 0.968236 0.570060 -0.149343
C3    C     C_R   0.341671 0.507650 0.508007 0.530336
C4    C     C_R   0.502501 0.799007 0.546610 0.534749
C5    C     C_R   0.658155 0.492794 0.491892 0.537651
C6    C     C_3   0.049072 0.428196 0.646747 -0.080290
C7    C     C_3   0.059644 0.438065 0.321042 -0.086754
C8    C     C_3   0.961059 0.408848 0.301026 -0.216725
C9    C     C_1   0.746771 0.477659 0.469771 -0.027148
C10   C     C_3   0.083639 0.527877 0.516572 0.055466
C11   C     C_2   0.917513 0.230686 0.548112 0.154994
C12   C     C_3   0.947971 0.402902 0.620056 0.068475
C13   C     C_3   0.902618 0.441960 0.801334 -0.296847
C14   C     C_3   0.926661 0.595741 0.930003 -0.474721
C15   C     C_3   0.912801 0.735712 0.340856 -0.247790
C16   C     C_3   0.842836 0.851720 0.331830 -0.417690
C17   C     C_3   0.398807 0.378061 0.951446 -0.078016
C18   C     C_3   0.379172 0.222814 0.999420 -0.396745
C19   C     C_2   0.599812 0.609647 0.052200 0.468989
C20   C     C_3   0.096537 0.272947 0.645357 -0.247920
C21   C     C_3   0.180358 0.286704 0.752336 -0.471642
C22   C     C_3   0.095321 0.514536 0.175491 -0.303651
C23   C     C_3   0.915415 0.492795 0.476684 0.052922
C24   C     C_3   0.190924 0.531654 0.159186 -0.425753
C25   C     C_2   0.088512 0.826753 0.509474 0.162931
C26   C     C_3   0.881521 0.778633 0.665723 -0.238416
C27   C     C_3   0.920714 0.934508 0.777695 -0.460604
C28   C     C_3   0.938496 0.678928 0.515694 0.043576
C29   C     C_3   0.039848 0.694603 0.564247 -0.053761
C30   C     C_1   0.822270 0.473523 0.458621 -0.078999
C31   C     C_1   0.176987 0.537444 0.534631 0.017813
C32   C     C_1   0.252854 0.527392 0.528716 -0.017111
C33   C     C_2   0.496102 0.031744 0.429714 -0.153096
Cu1   Cu    Cu3+1 0.509300 0.517380 0.684380 0.973736
Cu2   Cu    Cu3+1 0.490700 0.482620 0.315620 0.949499
H1    H     H_    0.064306 0.501907 0.781327 0.125495
H2    H     H_    0.869200 0.654636 0.986251 0.166344
H3    H     H_    0.966187 0.577081 0.032200 0.118017
H4    H     H_    0.832554 0.435782 0.779956 0.171424
H5    H     H_    0.915447 0.349118 0.872105 0.126311
H6    H     H_    0.778422 0.794209 0.325850 0.134036
H7    H     H_    0.845227 0.952538 0.445379 0.193294
H8    H     H_    0.849077 0.895676 0.210343 0.156615
H9    H     H_    0.967412 0.772314 0.274043 0.131346
H10   H     H_    0.880664 0.636325 0.250204 0.161229
H11   H     H_    0.436585 0.152431 0.987401 0.166963
H12   H     H_    0.488575 0.958840 0.295214 0.126197
H13   H     H_    0.353644 0.239391 0.133471 0.184472
H14   H     H_    0.329702 0.153728 0.905757 0.099823
H15   H     H_    0.345426 0.456901 0.984518 0.123222
H16   H     H_    0.403430 0.341293 0.809849 0.197092
H17   H     H_    0.599376 0.711770 0.162557 0.079892
H18   H     H_    0.211199 0.403795 0.780115 0.145497
H19   H     H_    0.169943 0.256039 0.880514 0.144489
H20   H     H_    0.225246 0.202470 0.678045 0.171253
H21   H     H_    0.055641 0.196911 0.706016 0.180640
H22   H     H_    0.108435 0.207616 0.507829 0.195483
H23   H     H_    0.511583 0.041190 0.704397 0.132746
H24   H     H_    0.218535 0.633122 0.260659 0.210776
H25   H     H_    0.221718 0.421268 0.161890 0.152356
H26   H     H_    0.204071 0.564412 0.033950 0.123984
H27   H     H_    0.072010 0.438443 0.046570 0.144006
H28   H     H_    0.073817 0.634006 0.193727 0.158795
H29   H     H_    0.056584 0.911217 0.455248 0.166859
H30   H     H_    0.962726 0.919582 0.887473 0.135673
H31   H     H_    0.958062 0.993699 0.694014 0.188559
H32   H     H_    0.869734 0.012141 0.837578 0.133243
H33   H     H_    0.819466 0.803469 0.614439 0.138232
H34   H     H_    0.087500 0.321066 0.293143 0.144151
H35   H     H_    0.848905 0.711507 0.744398 0.155944
H36   H     H_    0.946292 0.282248 0.258271 0.175758
H37   H     H_    0.933615 0.428445 0.180469 0.085430
H38   H     H_    0.048960 0.736136 0.708709 0.114066
H39   H     H_    0.853267 0.196444 0.574630 0.103577
H40   H     H_    0.967242 0.673250 0.878716 0.147821
N1    N     N_2   0.476670 0.456430 0.038530 -0.155020
N2    N     N_2   0.523330 0.543570 0.961470 -0.156608
O1    O     O_R   0.506050 0.286130 0.619770 -0.521243
O2    O     O_2   0.667487 0.554140 0.003839 -0.526183
O3    O     O_2   0.164409 0.851294 0.543146 -0.540957
O4    O     O_R   0.490330 0.256780 0.308370 -0.509577
O5    O     O_R   0.387300 0.514690 0.655770 -0.538756
O6    O     O_R   0.371580 0.485340 0.344370 -0.518145
O7    O     O_R   0.509670 0.743220 0.691630 -0.504120
O8    O     O_R   0.493950 0.713870 0.380230 -0.527766
O9    O     O_R   0.628420 0.514660 0.655630 -0.457940
O10   O     O_R   0.612700 0.485310 0.344230 -0.491763
O11   O     O_2   0.959732 0.133151 0.452262 -0.616891

loop_
_geom_bond_atom_site_label_1
_geom_bond_atom_site_label_2
_ccdc_geom_bond_type
C7    C10   S    
C24   H26   S    
C25   O3    D    
C20   H21   S    
C17   H16   S    
Cu2   O4    S    
C1    C33   S    
C7    C8    S    
C12   C23   S    
C26   C27   S    
C28   C29   S    
C15   H9    S    
C19   H17   S    
Cu1   N2    S    
C6    C12   S    
C21   H19   S    
C14   H3    S    
C1    O4    A    
C15   C16   S    
C8    C23   S    
Cu1   Cu2   S    
Cu1   O9    S    
C19   N2    S    
C13   H5    S    
C22   H28   S    
Cu2   O10   S    
C10   C31   S    
C17   N1    S    
C13   C14   S    
C1    O1    A    
Cu1   O7    S    
C18   H11   S    
C25   C29   S    
Cu2   N1    S    
C8    H37   S    
C23   C30   S    
N1    N2    D    
C21   H20   S    
Cu2   O6    S    
C4    O8    A    
C25   H29   S    
C2    C4    S    
C5    C9    S    
C27   H30   S    
C22   H27   S    
C31   C32   T    
C4    O7    A    
C11   O11   D    
C24   H25   S    
C3    O5    A    
C17   C18   S    
C23   C28   S    
C12   C13   S    
C19   O2    D    
C16   H8    S    
C9    C30   T    
C5    O9    A    
C2    C33   D    
C3    O6    A    
C33   H12   S    
C22   C24   S    
C15   H10   S    
C16   H7    S    
C8    H36   S    
C11   H39   S    
C18   H13   S    
C17   H15   S    
C7    H34   S    
C11   C12   S    
C2    H23   S    
C7    C22   S    
C6    C20   S    
C26   C28   S    
C26   H33   S    
C14   H40   S    
C27   H31   S    
Cu1   O1    S    
C14   H2    S    
C21   H18   S    
Cu2   O8    S    
C10   C29   S    
C15   C28   S    
C24   H24   S    
C26   H35   S    
C6    H1    S    
C3    C32   S    
C13   H4    S    
C27   H32   S    
C6    C10   S    
C5    O10   A    
C29   H38   S    
C20   C21   S    
Cu1   O5    S    
C20   H22   S    
C16   H6    S    
C18   H14   S    
