data_mof_unit_55363.cif
_audit_creation_date              2013-03-05T16:48:19-0500
_audit_creation_method            fapswitch 2.2
_symmetry_space_group_name_H-M    P1
_symmetry_Int_Tables_number       1
_space_group_crystal_system       triclinic
_cell_length_a                    15.012147
_cell_length_b                    10.977177
_cell_length_c                    13.885669
_cell_angle_alpha                 91.364846
_cell_angle_beta                  91.318918
_cell_angle_gamma                 86.402789
_cell_volume                      2282.54572393

loop_
_atom_site_label
_atom_site_type_symbol
_atom_site_description
_atom_site_fract_x
_atom_site_fract_y
_atom_site_fract_z
_atom_type_partial_charge
O1    O     O_R   0.500000 0.319630 0.582270 -0.495845
O2    O     O_R   0.500000 0.680370 0.417730 -0.494862
O3    O     O_R   0.499990 0.319660 0.417730 -0.614698
O4    O     O_R   0.500010 0.680340 0.582270 -0.621279
C1    C     C_R   0.495341 0.262740 0.498820 0.841700
C2    C     C_R   0.503938 0.737372 0.501463 0.841428
O5    O     O_R   0.370260 0.499960 0.582280 -0.581446
O6    O     O_R   0.629740 0.500040 0.417720 -0.585706
O7    O     O_R   0.370250 0.499990 0.417740 -0.533966
O8    O     O_R   0.629750 0.500010 0.582260 -0.530442
C3    C     C_R   0.329247 0.502580 0.499333 0.801658
C4    C     C_R   0.670772 0.498809 0.500655 0.806290
Cu1   Cu    Cu3+1 0.500010 0.499980 0.597420 1.055461
Cu2   Cu    Cu3+1 0.499990 0.500020 0.402580 1.054579
C5    C     C_R   0.806766 0.603093 0.477460 -0.158167
C6    C     C_R   0.193255 0.399626 0.522603 -0.159893
C7    C     C_R   0.767356 0.496653 0.501374 -0.077292
C8    C     C_R   0.232738 0.505758 0.498721 -0.079232
C9    C     C_R   0.819346 0.388887 0.520399 -0.036739
C10   C     C_R   0.180963 0.613852 0.480250 -0.033735
C11   C     C_R   0.913064 0.391251 0.522587 0.023605
C12   C     C_R   0.087211 0.611865 0.478720 0.020700
C13   C     C_R   0.953180 0.500908 0.501490 0.026470
C14   C     C_R   0.046969 0.503075 0.501918 0.024380
C15   C     C_R   0.899572 0.607572 0.477996 0.000875
C16   C     C_R   0.100551 0.396576 0.525694 0.003884
C17   C     C_R   0.967448 0.286604 0.545596 -0.214850
C18   C     C_R   0.032934 0.715896 0.454168 -0.208231
C19   C     C_R   0.060208 0.288624 0.549155 0.336709
C20   C     C_R   0.940135 0.715088 0.453552 0.335544
H1    H     H_    0.763751 0.681845 0.457867 0.206520
H2    H     H_    0.236306 0.319513 0.538179 0.204284
H3    H     H_    0.938218 0.202650 0.563767 0.203079
H4    H     H_    0.062192 0.799548 0.435223 0.206608
H5    H     H_    0.440305 0.208021 0.046842 0.170836
H6    H     H_    0.507774 0.809243 0.962304 0.169204
C21   C     C_R   0.385273 0.197965 0.187649 -0.151213
C22   C     C_R   0.578357 0.804044 0.829353 -0.164612
H7    H     H_    0.320066 0.235146 0.163980 0.173588
H8    H     H_    0.638846 0.762996 0.862154 0.168433
C23   C     C_R   0.399590 0.159668 0.282673 0.034709
C24   C     C_R   0.575986 0.834595 0.731793 0.036423
C25   C     C_R   0.485180 0.112137 0.313203 0.117955
C26   C     C_R   0.496495 0.887389 0.689255 0.112375
C27   C     C_R   0.553662 0.099653 0.245476 -0.089882
C28   C     C_R   0.421071 0.908840 0.747269 -0.083004
H9    H     H_    0.618965 0.060305 0.266867 0.187215
H10   H     H_    0.359865 0.950521 0.716385 0.189874
C29   C     C_R   0.537026 0.130470 0.149239 -0.010877
C30   C     C_R   0.425480 0.883662 0.845659 -0.003767
C31   C     C_R   0.453439 0.182400 0.120951 -0.173594
C32   C     C_R   0.503973 0.830265 0.886400 -0.171979
C33   C     C_R   0.516296 0.931601 0.415731 0.344745
C34   C     C_R   0.483423 0.069114 0.586379 0.337707
C35   C     C_R   0.508201 0.871591 0.504030 -0.220378
C36   C     C_R   0.490180 0.128581 0.497608 -0.225465
C37   C     C_R   0.495362 0.941486 0.590890 -0.138611
C38   C     C_R   0.499863 0.058435 0.410876 -0.138924
C39   C     C_R   0.570357 0.443659 0.794307 0.495959
C40   C     C_R   0.430346 0.557895 0.205782 0.502054
N1    N     N_R   0.499960 0.499900 0.743810 -0.259089
N2    N     N_R   0.500040 0.500100 0.256190 -0.257665
C41   C     C_R   0.430401 0.557058 0.792707 0.058933
C42   C     C_R   0.568843 0.441025 0.207509 0.054564
C43   C     C_R   0.425772 0.551680 0.895522 -0.069210
C44   C     C_R   0.574116 0.447217 0.104799 -0.071870
C45   C     C_R   0.499881 0.498876 0.948342 0.042391
C46   C     C_R   0.500578 0.501301 0.051876 0.042460
C47   C     C_R   0.572415 0.441471 0.897592 -0.127834
C48   C     C_R   0.428519 0.560015 0.102588 -0.127119
C49   C     C_R   0.350758 0.600465 0.947611 -0.103175
C50   C     C_R   0.649480 0.399172 0.053061 -0.096125
C51   C     C_R   0.356177 0.616672 0.048267 -0.090961
C52   C     C_R   0.645341 0.385926 0.951998 -0.083950
N3    N     N_R   0.545263 0.864116 0.330732 0.129771
O9    O     O_R   0.492016 0.854196 0.256051 -0.334735
O10   O     O_R   0.625575 0.812215 0.328323 -0.346658
N4    N     N_R   0.459264 0.138061 0.672488 0.132135
O11   O     O_R   0.513785 0.139992 0.746677 -0.326604
O12   O     O_R   0.380447 0.194032 0.678226 -0.334395
N5    N     N_R   0.646512 0.397517 0.742541 0.114759
O13   O     O_R   0.718635 0.457765 0.745092 -0.384831
O14   O     O_R   0.647924 0.289218 0.702600 -0.315174
N6    N     N_R   0.354214 0.604521 0.257459 0.116342
O15   O     O_R   0.281531 0.545492 0.253826 -0.386997
O16   O     O_R   0.353305 0.712483 0.297938 -0.318457
C53   C     C_1   0.367049 0.634615 0.739057 0.344658
N7    N     N_1   0.315570 0.696536 0.696389 -0.288389
C54   C     C_1   0.629988 0.360364 0.261301 0.340218
N8    N     N_1   0.679370 0.295623 0.304140 -0.282420
C55   C     C_1   0.263786 0.625155 0.901171 0.264638
N9    N     N_1   0.194135 0.644538 0.865241 -0.200920
C56   C     C_1   0.735560 0.371940 0.100804 0.260331
N10   N     N_1   0.804484 0.350545 0.137810 -0.204309
C57   C     C_1   0.287774 0.698607 0.091798 0.402865
N11   N     N_1   0.232937 0.764361 0.125239 -0.161172
C58   C     C_1   0.715996 0.308190 0.908071 0.418912
N12   N     N_1   0.772630 0.245683 0.874461 -0.161904
C59   C     C_1   0.776255 0.275212 0.530558 0.338184
N13   N     N_1   0.742218 0.184196 0.537641 -0.172207
C60   C     C_1   0.224271 0.727247 0.469570 0.340973
N14   N     N_1   0.258460 0.818084 0.462105 -0.188146
N15   N     N_R   0.111954 0.180379 0.577814 0.130854
O17   O     O_R   0.090575 0.073977 0.544663 -0.314074
O18   O     O_R   0.168740 0.185552 0.649805 -0.309479
N16   N     N_R   0.888709 0.824173 0.426482 0.133006
O19   O     O_R   0.910321 0.882566 0.350839 -0.301279
O20   O     O_R   0.833161 0.877986 0.486712 -0.317350
C61   C     C_1   0.324054 0.160575 0.345048 0.270308
N17   N     N_1   0.263235 0.159986 0.394629 -0.221707
C62   C     C_1   0.656858 0.815236 0.678290 0.298132
N18   N     N_1   0.722103 0.799302 0.635956 -0.199212
C63   C     C_1   0.604464 0.102440 0.078771 0.268933
N19   N     N_1   0.658582 0.078654 0.022191 -0.231899
C64   C     C_1   0.349960 0.915953 0.905074 0.270921
N20   N     N_1   0.289235 0.942525 0.952706 -0.221138

loop_
_geom_bond_atom_site_label_1
_geom_bond_atom_site_label_2
_geom_bond_distance
_ccdc_geom_bond_type
C44   C46   1.418603 A    
C53   N7    1.158637 T    
C41   C43   1.433735 A    
C3    C8    1.446876 S    
C60   N14   1.157600 T    
C17   C19   1.393818 A    
C1    C36   1.479247 S    
C29   C63   1.438471 S    
C62   N18   1.155676 T    
C2    C35   1.478293 S    
C24   C62   1.439676 S    
N5    O13   1.303045 A    
C33   N3    1.439605 S    
C17   H3    1.082795 S    
O5    C3    1.293523 A    
C56   N10   1.157839 T    
O1    C1    1.305709 A    
C9    C11   1.408379 A    
C14   C16   1.418054 A    
C22   C24   1.402438 A    
C21   C31   1.395803 A    
N4    O12   1.301782 A    
C5    C15   1.397007 A    
C22   C32   1.395268 A    
N16   O19   1.301248 A    
C64   N20   1.157054 T    
Cu2   N2    2.032762 S    
C19   N15   1.437400 S    
C40   N2    1.375218 A    
C30   C64   1.438853 S    
O4    Cu1   1.995966 S    
N1    C41   1.369392 A    
N2    C42   1.368031 A    
C25   C38   1.497842 S    
C44   C50   1.420832 A    
C57   N11   1.158174 T    
C43   C45   1.418958 A    
C4    C7    1.448449 S    
C30   C32   1.396629 A    
C13   C14   1.409552 A    
C27   C29   1.399338 A    
H6    C32   1.083752 S    
C27   H9    1.084160 S    
C11   C17   1.405706 A    
C18   H4    1.082937 S    
C23   C61   1.442047 S    
Cu1   Cu2   2.705489 S    
C20   N16   1.436395 S    
C23   C25   1.415714 A    
O2    C2    1.309078 A    
C24   C26   1.416294 A    
C42   C54   1.443057 S    
N5    O14   1.298953 A    
C26   C28   1.409231 A    
C58   N12   1.158126 T    
C52   C58   1.454876 S    
C28   H10   1.084412 S    
C33   C35   1.416828 A    
C6    C16   1.395861 A    
C34   C36   1.417119 A    
C39   N1    1.376332 A    
C45   C46   1.437059 A    
N6    O15   1.302911 A    
O4    C2    1.302146 A    
C55   N9    1.157843 T    
C49   C51   1.405887 A    
C9    C59   1.452358 S    
N4    O11   1.301507 A    
C10   C60   1.452191 S    
C29   C31   1.397157 A    
C43   C49   1.421774 A    
C45   C47   1.416836 A    
C42   C44   1.433674 A    
O7    Cu2   1.963850 S    
O7    C3    1.300655 A    
C59   N13   1.157582 T    
C40   C48   1.433263 A    
C26   C37   1.501599 S    
O6    C4    1.293387 A    
C48   C51   1.426543 A    
C49   C55   1.455721 S    
C47   C52   1.428678 A    
N15   O18   1.301299 A    
C6    C8    1.390206 A    
C25   C27   1.407405 A    
O3    Cu2   1.995966 S    
O8    C4    1.301475 A    
C39   C47   1.434549 A    
C50   C56   1.456124 S    
C50   C52   1.407739 A    
C10   C12   1.408630 A    
C35   C37   1.424274 A    
H5    C31   1.083711 S    
C12   C14   1.418678 A    
O1    Cu1   1.985898 S    
C51   C57   1.454493 S    
C63   N19   1.156920 T    
C15   C20   1.413408 A    
C5    C7    1.392743 A    
N3    O9    1.301363 A    
O6    Cu2   1.954335 S    
C41   C53   1.442324 S    
C39   N5    1.424099 S    
N6    O16   1.298931 A    
O3    C1    1.306039 A    
O8    Cu1   1.963850 S    
C33   C38   1.401591 A    
C5    H1    1.082309 S    
C6    H2    1.081268 S    
C28   C30   1.399585 A    
C11   C13   1.418918 A    
C21   H7    1.083631 S    
C61   N17   1.156511 T    
C22   H8    1.083736 S    
C40   N6    1.424770 S    
N16   O20   1.300209 A    
C18   C20   1.393534 A    
C7    C9    1.402815 A    
C36   C38   1.419245 A    
C8    C10   1.402657 A    
C13   C15   1.418762 A    
C21   C23   1.402131 A    
O2    Cu2   1.985899 S    
O5    Cu1   1.954335 S    
Cu1   N1    2.032760 S    
C16   C19   1.412334 A    
C46   C48   1.416836 A    
N3    O10   1.301558 A    
N15   O17   1.301437 A    
C12   C18   1.404714 A    
C54   N8    1.158536 T    
C34   N4    1.440969 S    
C34   C37   1.403928 A    
