data_mof_unit_61676.cif
_audit_creation_date              2012-12-10T18:34:19-0500
_audit_creation_method            fapswitch 2.2
_symmetry_space_group_name_H-M    P1
_symmetry_Int_Tables_number       1
_space_group_crystal_system       triclinic
_cell_length_a                    36.145325
_cell_length_b                    36.148001
_cell_length_c                    25.555224
_cell_angle_alpha                 89.999708
_cell_angle_beta                  135.016372
_cell_angle_gamma                 90.000227
_cell_volume                      23603.5312251

loop_
_atom_site_label
_atom_site_type_symbol
_atom_type_description
_atom_site_fract_x
_atom_site_fract_y
_atom_site_fract_z
_atom_type_partial_charge
C1    C     C_R   0.849703 0.750054 0.699343 0.505889
C2    C     C_3   0.536831 0.249519 0.500402 0.052529
C3    C     C_3   0.279636 0.521432 0.575760 -0.235808
C4    C     C_3   0.778930 0.978184 0.476340 -0.086677
C5    C     C_3   0.778933 0.021816 0.476344 -0.086677
C6    C     C_3   0.278930 0.478184 0.476339 -0.086678
C7    C     C_3   0.278933 0.521816 0.476343 -0.086678
C8    C     C_1   0.750121 0.110702 0.499904 0.003182
C9    C     C_1   0.750121 0.889298 0.499904 0.003202
C10   C     C_1   0.250121 0.610702 0.499904 0.003185
C11   C     C_1   0.250121 0.389298 0.499904 0.003205
C12   C     C_3   0.750493 0.963400 0.497888 0.044499
C13   C     C_3   0.036806 0.250496 0.500353 0.052520
C14   C     C_3   0.750494 0.036600 0.497889 0.044505
C15   C     C_3   0.250493 0.463400 0.497888 0.044497
C16   C     C_3   0.250493 0.536600 0.497889 0.044503
C17   C     C_3   0.693653 0.021445 0.442269 -0.218972
C18   C     C_3   0.693653 0.978555 0.442271 -0.218970
C19   C     C_3   0.193653 0.521445 0.442269 -0.218971
C20   C     C_3   0.193653 0.478555 0.442271 -0.218969
C21   C     C_1   0.750262 0.077392 0.499307 -0.063080
C22   C     C_1   0.750262 0.922608 0.499306 -0.063068
C23   C     C_1   0.250262 0.577392 0.499307 -0.063078
C24   C     C_3   0.036829 0.749518 0.500399 0.052528
C25   C     C_1   0.250262 0.422608 0.499306 -0.063066
C26   C     C_3   0.798597 0.521472 0.578112 -0.213042
C27   C     C_3   0.798597 0.478527 0.578112 -0.213037
C28   C     C_3   0.298334 0.021472 0.578276 -0.213053
C29   C     C_3   0.298334 0.978527 0.578276 -0.213048
C30   C     C_3   0.700208 0.521472 0.477340 -0.213379
C31   C     C_3   0.700208 0.478528 0.477340 -0.213394
C32   C     C_3   0.199969 0.021472 0.476659 -0.213372
C33   C     C_3   0.199969 0.978527 0.476659 -0.213386
C34   C     C_1   0.750069 0.389348 0.500001 -0.006608
C35   C     C_3   0.485364 0.790767 0.513052 -0.080395
C36   C     C_1   0.750069 0.610652 0.500002 -0.006689
C37   C     C_1   0.250069 0.889348 0.500001 -0.006615
C38   C     C_1   0.250069 0.110652 0.500002 -0.006697
C39   C     C_R   0.750016 0.849687 0.499976 0.507259
C40   C     C_R   0.750016 0.150312 0.499975 0.507229
C41   C     C_R   0.250016 0.349687 0.499976 0.507262
C42   C     C_R   0.250016 0.650312 0.499975 0.507231
C43   C     C_3   0.750078 0.536524 0.500004 0.065747
C44   C     C_3   0.750078 0.463475 0.500004 0.065729
C45   C     C_3   0.250079 0.036525 0.500004 0.065752
C46   C     C_3   0.486885 0.209513 0.516096 -0.080385
C47   C     C_3   0.250078 0.963475 0.500004 0.065734
C48   C     C_3   0.751431 0.478528 0.444561 -0.213916
C49   C     C_3   0.751431 0.521473 0.444561 -0.213936
C50   C     C_3   0.251933 0.978528 0.445078 -0.213912
C51   C     C_3   0.251933 0.021473 0.445078 -0.213932
C52   C     C_1   0.750076 0.422710 0.500003 -0.074085
C53   C     C_1   0.750076 0.577290 0.500004 -0.074138
C54   C     C_1   0.250076 0.922710 0.500003 -0.074089
C55   C     C_1   0.250076 0.077290 0.500004 -0.074143
C56   C     C_R   0.849716 0.750027 0.500002 0.506750
C57   C     C_3   0.985282 0.290781 0.512888 -0.080397
C58   C     C_R   0.849716 0.249973 0.500003 0.506743
C59   C     C_R   0.349716 0.250027 0.500002 0.506751
C60   C     C_R   0.349716 0.749973 0.500003 0.506742
C61   C     C_R   0.650367 0.750046 0.500001 0.506040
C62   C     C_R   0.650367 0.249954 0.500000 0.506042
C63   C     C_R   0.150367 0.250046 0.500001 0.506040
C64   C     C_R   0.150367 0.749954 0.500000 0.506042
C65   C     C_3   0.528842 0.790250 0.513725 -0.207862
C66   C     C_3   0.530339 0.210040 0.516721 -0.207842
C67   C     C_3   0.028761 0.290264 0.513564 -0.207863
C68   C     C_3   0.986788 0.709493 0.515902 -0.080386
C69   C     C_3   0.030243 0.710020 0.516530 -0.207843
C70   C     C_3   0.484011 0.736469 0.425238 -0.219572
C71   C     C_3   0.483538 0.262140 0.424292 -0.219592
C72   C     C_3   0.984038 0.236394 0.425292 -0.219571
C73   C     C_3   0.983567 0.762230 0.424349 -0.219591
C74   C     C_3   0.441271 0.736546 0.425604 -0.230989
C75   C     C_3   0.440798 0.262066 0.424660 -0.231041
C76   C     C_3   0.941297 0.236471 0.425658 -0.230986
C77   C     C_3   0.940827 0.762155 0.424717 -0.231038
C78   C     C_1   0.505200 0.807791 0.581588 0.177580
C79   C     C_3   0.463990 0.750789 0.500923 0.055725
C80   C     C_1   0.507335 0.193780 0.585858 0.177711
C81   C     C_1   0.005082 0.307873 0.581354 0.177576
C82   C     C_1   0.007200 0.693677 0.585588 0.177706
C83   C     C_1   0.756958 0.961544 0.406036 0.199446
C84   C     C_1   0.756968 0.038460 0.406047 0.199438
C85   C     C_1   0.256958 0.461544 0.406036 0.199447
C86   C     C_1   0.256968 0.538460 0.406047 0.199438
C87   C     C_3   0.464023 0.249238 0.500990 0.055728
C88   C     C_3   0.963988 0.250790 0.500919 0.055724
C89   C     C_R   0.849703 0.249946 0.699343 0.505842
C90   C     C_3   0.964021 0.749236 0.500986 0.055727
C91   C     C_3   0.509907 0.724877 0.562447 -0.214713
C92   C     C_3   0.508952 0.276278 0.560537 -0.214704
C93   C     C_3   0.009957 0.224941 0.562548 -0.214715
C94   C     C_3   0.009015 0.776205 0.560662 -0.214705
C95   C     C_3   0.552926 0.725115 0.562646 -0.218050
C96   C     C_3   0.551984 0.276039 0.560761 -0.218059
C97   C     C_3   0.052975 0.225178 0.562745 -0.218050
C98   C     C_3   0.052046 0.775966 0.560885 -0.218058
C99   C     C_1   0.422843 0.750288 0.500269 -0.062740
C100  C     C_R   0.349703 0.250054 0.699343 0.505892
C101  C     C_1   0.422858 0.249725 0.500300 -0.062747
C102  C     C_1   0.922842 0.250289 0.500267 -0.062739
C103  C     C_1   0.922857 0.749724 0.500297 -0.062746
C104  C     C_1   0.577397 0.750214 0.500059 -0.073057
C105  C     C_1   0.577408 0.249793 0.500083 -0.073058
C106  C     C_1   0.077396 0.250214 0.500058 -0.073056
C107  C     C_1   0.077408 0.749792 0.500081 -0.073057
C108  C     C_1   0.610690 0.750087 0.499963 -0.006389
C109  C     C_1   0.610694 0.249916 0.499972 -0.006390
C110  C     C_1   0.110689 0.250087 0.499962 -0.006388
C111  C     C_R   0.349703 0.749946 0.699343 0.505844
C112  C     C_1   0.110694 0.749916 0.499972 -0.006389
C113  C     C_3   0.481928 0.743270 0.042958 -0.213557
C114  C     C_3   0.481938 0.256792 0.042957 -0.213559
C115  C     C_3   0.981865 0.243643 0.042955 -0.213564
C116  C     C_3   0.982015 0.757220 0.042959 -0.213553
C117  C     C_R   0.650385 0.750019 0.300654 0.506103
C118  C     C_R   0.650385 0.249981 0.300654 0.506119
C119  C     C_R   0.150385 0.250019 0.300654 0.506102
C120  C     C_R   0.150385 0.749981 0.300654 0.506118
C121  C     C_3   0.535510 0.787640 0.042938 -0.212359
C122  C     C_1   0.389374 0.750054 0.500009 0.003723
C123  C     C_3   0.535450 0.212337 0.042939 -0.212363
C124  C     C_3   0.035863 0.287507 0.042938 -0.212354
C125  C     C_3   0.035041 0.712189 0.042938 -0.212370
C126  C     C_3   0.492545 0.787629 0.957020 -0.213077
C127  C     C_3   0.492486 0.212349 0.957021 -0.213075
C128  C     C_3   0.992900 0.287496 0.957021 -0.213065
C129  C     C_3   0.992076 0.712200 0.957021 -0.213089
C130  C     C_1   0.389392 0.749952 0.778713 -0.005999
C131  C     C_1   0.389392 0.250048 0.778713 -0.005926
C132  C     C_1   0.889393 0.249951 0.778713 -0.006002
C133  C     C_1   0.389379 0.249952 0.500020 0.003720
C134  C     C_1   0.889392 0.750048 0.778714 -0.005931
C135  C     C_3   0.536579 0.749990 0.073047 0.065326
C136  C     C_3   0.536579 0.250010 0.073047 0.065317
C137  C     C_3   0.036578 0.249990 0.073046 0.065325
C138  C     C_3   0.036579 0.750010 0.073047 0.065319
C139  C     C_3   0.438964 0.743258 0.957041 -0.213474
C140  C     C_3   0.438975 0.256804 0.957040 -0.213495
C141  C     C_3   0.938903 0.243630 0.957037 -0.213482
C142  C     C_3   0.939051 0.757232 0.957042 -0.213482
C143  C     C_3   0.463522 0.749971 0.926951 0.065450
C144  C     C_1   0.889373 0.250054 0.500008 0.003724
C145  C     C_3   0.463522 0.250029 0.926950 0.065430
C146  C     C_3   0.963524 0.249970 0.926950 0.065449
C147  C     C_3   0.963521 0.750029 0.926951 0.065433
C148  C     C_3   0.504198 0.719037 0.957058 -0.213919
C149  C     C_3   0.504247 0.280923 0.957058 -0.213908
C150  C     C_3   0.003908 0.218797 0.957060 -0.213921
C151  C     C_3   0.004578 0.780643 0.957057 -0.213906
C152  C     C_3   0.547160 0.719047 0.042976 -0.214310
C153  C     C_3   0.547209 0.280912 0.042975 -0.214313
C154  C     C_3   0.046869 0.218808 0.042977 -0.214311
C155  C     C_1   0.889379 0.749951 0.500020 0.003720
C156  C     C_3   0.047541 0.780632 0.042974 -0.214314
C157  C     C_1   0.422759 0.749959 0.845436 -0.073839
C158  C     C_1   0.422759 0.250040 0.845436 -0.073789
C159  C     C_1   0.922761 0.249959 0.845436 -0.073843
C160  C     C_1   0.922758 0.750040 0.845436 -0.073792
C161  C     C_1   0.577340 0.750001 0.154561 -0.073834
C162  C     C_1   0.577340 0.249999 0.154561 -0.073824
C163  C     C_1   0.077339 0.250001 0.154560 -0.073835
C164  C     C_1   0.077340 0.749999 0.154561 -0.073824
C165  C     C_R   0.750059 0.650346 0.499999 0.505717
C166  C     C_3   0.536808 0.750495 0.500356 0.052521
C167  C     C_R   0.750059 0.349654 0.499999 0.505776
C168  C     C_R   0.250059 0.150346 0.499999 0.505712
C169  C     C_R   0.250059 0.849653 0.499999 0.505772
C170  C     C_1   0.610703 0.750010 0.221283 -0.005939
C171  C     C_1   0.610702 0.249990 0.221283 -0.005926
C172  C     C_1   0.110702 0.250010 0.221283 -0.005940
C173  C     C_1   0.110703 0.749990 0.221283 -0.005927
C174  C     C_3   0.779637 0.978567 0.575760 -0.235806
C175  C     C_3   0.779635 0.021432 0.575760 -0.235808
C176  C     C_3   0.279637 0.478567 0.575760 -0.235806
H1    H     H_    0.452641 0.808528 0.466320 0.099296
H2    H     H_    0.493184 0.304820 0.549089 0.114450
H3    H     H_    0.217551 0.968255 0.388229 0.114499
H4    H     H_    0.835070 0.531745 0.595731 0.121369
H5    H     H_    0.835070 0.468255 0.595731 0.121434
H6    H     H_    0.334972 0.031745 0.596383 0.121345
H7    H     H_    0.334972 0.968255 0.596384 0.121410
H8    H     H_    0.471364 0.754406 0.379520 0.116973
H9    H     H_    0.471576 0.243368 0.379938 0.116824
H10   H     H_    0.971354 0.254286 0.379502 0.116982
H11   H     H_    0.971560 0.743510 0.379906 0.116834
H12   H     H_    0.408057 0.754389 0.379829 0.113532
H13   H     H_    0.995315 0.196197 0.553363 0.114227
H14   H     H_    0.408270 0.243380 0.380250 0.113325
H15   H     H_    0.908048 0.254268 0.379811 0.113545
H16   H     H_    0.908254 0.743522 0.380218 0.113338
H17   H     H_    0.425622 0.708021 0.414933 0.124262
H18   H     H_    0.424084 0.290371 0.411861 0.124239
H19   H     H_    0.925708 0.207935 0.415102 0.124263
H20   H     H_    0.924181 0.790475 0.412053 0.124241
H21   H     H_    0.590455 0.734933 0.617401 0.121657
H22   H     H_    0.589856 0.267242 0.616210 0.121556
H23   H     H_    0.090485 0.235050 0.617460 0.121662
H24   H     H_    0.993314 0.804761 0.549350 0.114436
H25   H     H_    0.089897 0.767104 0.616291 0.121563
H26   H     H_    0.559452 0.696403 0.554854 0.116718
H27   H     H_    0.557452 0.304585 0.550845 0.116848
H28   H     H_    0.059558 0.196459 0.555067 0.116711
H29   H     H_    0.057582 0.804524 0.551104 0.116838
H30   H     H_    0.527052 0.733701 0.617615 0.133902
H31   H     H_    0.526404 0.268492 0.616325 0.133800
H32   H     H_    0.027085 0.233821 0.617680 0.133908
H33   H     H_    0.026447 0.768353 0.616412 0.133805
H34   H     H_    0.510769 0.793116 0.936461 0.121496
H35   H     H_    0.409670 0.765194 0.936469 0.115157
H36   H     H_    0.510702 0.206817 0.936463 0.121626
H37   H     H_    0.011176 0.292714 0.936464 0.121481
H38   H     H_    0.010230 0.706360 0.936461 0.121625
H39   H     H_    0.484426 0.691605 0.936514 0.115055
H40   H     H_    0.484519 0.308370 0.936513 0.115067
H41   H     H_    0.983880 0.191456 0.936515 0.115081
H42   H     H_    0.985148 0.808191 0.936513 0.115033
H43   H     H_    0.409646 0.234898 0.936469 0.115112
H44   H     H_    0.909815 0.265744 0.936464 0.115141
H45   H     H_    0.909486 0.735533 0.936472 0.115138
H46   H     H_    0.473193 0.765214 0.063500 0.115288
H47   H     H_    0.473169 0.234879 0.063500 0.115257
H48   H     H_    0.973336 0.265763 0.063495 0.115284
H49   H     H_    0.454840 0.190893 0.470724 0.099377
H50   H     H_    0.973010 0.735514 0.063503 0.115270
H51   H     H_    0.574294 0.793132 0.063494 0.121500
H52   H     H_    0.574226 0.206801 0.063495 0.121563
H53   H     H_    0.074699 0.292730 0.063498 0.121457
H54   H     H_    0.073755 0.706345 0.063493 0.121604
H55   H     H_    0.527772 0.810408 0.063482 0.118583
H56   H     H_    0.527677 0.189599 0.063483 0.118566
H57   H     H_    0.028339 0.310442 0.063481 0.118651
H58   H     H_    0.027024 0.689646 0.063484 0.118492
H59   H     H_    0.464247 0.810390 0.936451 0.116759
H60   H     H_    0.952523 0.308494 0.466083 0.099297
H61   H     H_    0.464152 0.189616 0.936452 0.116738
H62   H     H_    0.964816 0.310425 0.936449 0.116815
H63   H     H_    0.963498 0.689663 0.936453 0.116678
H64   H     H_    0.547945 0.691621 0.063545 0.114863
H65   H     H_    0.548037 0.308353 0.063544 0.114874
H66   H     H_    0.047396 0.191472 0.063546 0.114891
H67   H     H_    0.048668 0.808174 0.063543 0.114839
H68   H     H_    0.517292 0.809003 0.469600 0.104003
H69   H     H_    0.519496 0.190480 0.474018 0.104101
H70   H     H_    0.017174 0.308974 0.469364 0.104002
H71   H     H_    0.954699 0.690928 0.470442 0.099375
H72   H     H_    0.019355 0.690511 0.473734 0.104098
H73   H     H_    0.586162 0.723264 0.063534 0.115791
H74   H     H_    0.586204 0.276650 0.063534 0.115874
H75   H     H_    0.085911 0.222754 0.063539 0.115738
H76   H     H_    0.086488 0.776060 0.063532 0.115924
H77   H     H_    0.481504 0.716294 0.063530 0.117331
H78   H     H_    0.481557 0.283785 0.063528 0.117313
H79   H     H_    0.981187 0.216768 0.063525 0.117333
H80   H     H_    0.981927 0.784327 0.063531 0.117311
H81   H     H_    0.417983 0.716275 0.936499 0.117794
H82   H     H_    0.566769 0.800861 0.567129 0.128730
H83   H     H_    0.418036 0.283804 0.936498 0.117765
H84   H     H_    0.917669 0.216749 0.936495 0.117799
H85   H     H_    0.918404 0.784346 0.936500 0.117761
H86   H     H_    0.522641 0.723250 0.936504 0.116802
H87   H     H_    0.522683 0.276663 0.936503 0.116967
H88   H     H_    0.022391 0.222741 0.936508 0.116738
H89   H     H_    0.022966 0.776073 0.936501 0.117023
H90   H     H_    0.820707 0.031695 0.617272 0.113887
H91   H     H_    0.820710 0.968306 0.617270 0.113898
H92   H     H_    0.320707 0.531695 0.617272 0.113889
H93   H     H_    0.568642 0.200427 0.570874 0.128732
H94   H     H_    0.320710 0.468306 0.617270 0.113900
H95   H     H_    0.820421 0.968843 0.519553 0.088538
H96   H     H_    0.820425 0.031155 0.519563 0.088527
H97   H     H_    0.320421 0.468843 0.519552 0.088540
H98   H     H_    0.320424 0.531155 0.519562 0.088529
H99   H     H_    0.673177 0.968365 0.457431 0.115953
H100  H     H_    0.673174 0.031637 0.457423 0.115935
H101  H     H_    0.173177 0.468365 0.457431 0.115958
H102  H     H_    0.173174 0.531637 0.457423 0.115940
H103  H     H_    0.671216 0.968242 0.385491 0.135998
H104  H     H_    0.066666 0.300929 0.566925 0.128731
H105  H     H_    0.671220 0.031756 0.385489 0.135999
H106  H     H_    0.171216 0.468242 0.385491 0.136000
H107  H     H_    0.171220 0.531756 0.385489 0.136000
H108  H     H_    0.488734 0.707930 0.414303 0.122277
H109  H     H_    0.487203 0.290457 0.411245 0.122292
H110  H     H_    0.988818 0.207845 0.414470 0.122275
H111  H     H_    0.987299 0.790562 0.411438 0.122291
H112  H     H_    0.760498 0.968355 0.592988 0.125505
H113  H     H_    0.760493 0.031642 0.592983 0.125498
H114  H     H_    0.260498 0.468355 0.592988 0.125509
H115  H     H_    0.068524 0.700342 0.570637 0.128733
H116  H     H_    0.260493 0.531642 0.592983 0.125502
H117  H     H_    0.798537 0.468255 0.619111 0.115528
H118  H     H_    0.798538 0.531745 0.619111 0.115529
H119  H     H_    0.297911 0.968255 0.618910 0.115485
H120  H     H_    0.297911 0.031745 0.618910 0.115487
H121  H     H_    0.664674 0.531745 0.421210 0.117049
H122  H     H_    0.664674 0.468255 0.421209 0.117049
H123  H     H_    0.164619 0.031745 0.420399 0.117040
H124  H     H_    0.164619 0.968255 0.420399 0.117039
H125  H     H_    0.698314 0.531744 0.516460 0.114846
H126  H     H_    0.495207 0.696143 0.553145 0.114239
H127  H     H_    0.698314 0.468255 0.516460 0.114846
H128  H     H_    0.197712 0.031744 0.515399 0.114866
H129  H     H_    0.197712 0.968255 0.515399 0.114867
H130  H     H_    0.787025 0.531745 0.459694 0.117764
H131  H     H_    0.787025 0.468255 0.459693 0.117861
H132  H     H_    0.287707 0.031745 0.460705 0.117808
H133  H     H_    0.287707 0.968255 0.460705 0.117907
H134  H     H_    0.716852 0.531745 0.387821 0.114507
H135  H     H_    0.716852 0.468255 0.387820 0.114519
H136  H     H_    0.217551 0.031745 0.388229 0.114486
N1    N     N_1   0.520717 0.821107 0.635259 -0.298817
N2    N     N_1   0.523333 0.181474 0.640486 -0.298848
N3    N     N_1   0.020573 0.321244 0.634971 -0.298811
N4    N     N_1   0.023169 0.681307 0.640158 -0.298838
N5    N     N_1   0.739819 0.948511 0.351241 -0.282618
N6    N     N_1   0.739835 0.051496 0.351257 -0.282609
N7    N     N_1   0.239818 0.448511 0.351240 -0.282617
N8    N     N_1   0.239834 0.551496 0.351256 -0.282608
O1    O     O_3   0.750040 0.750040 0.500000 -0.435688
O2    O     O_R   0.750020 0.167970 0.542980 -0.540661
O3    O     O_R   0.250020 0.332030 0.542980 -0.540638
O4    O     O_R   0.250020 0.667970 0.542980 -0.540659
O5    O     O_R   0.853500 0.728560 0.663950 -0.534878
O6    O     O_R   0.853500 0.271440 0.663950 -0.534993
O7    O     O_R   0.353500 0.228560 0.663950 -0.534872
O8    O     O_R   0.353500 0.771440 0.663950 -0.534986
O9    O     O_R   0.689570 0.771520 0.336050 -0.534289
O10   O     O_R   0.689570 0.228480 0.336050 -0.534264
O11   O     O_R   0.189570 0.271520 0.336050 -0.534291
O12   O     O_3   0.750040 0.249960 0.500000 -0.435689
O13   O     O_R   0.189570 0.728480 0.336050 -0.534264
O14   O     O_R   0.810510 0.771550 0.663950 -0.538575
O15   O     O_R   0.810510 0.228450 0.663950 -0.538544
O16   O     O_R   0.310510 0.271550 0.663950 -0.538576
O17   O     O_R   0.310510 0.728450 0.663950 -0.538546
O18   O     O_R   0.646590 0.728530 0.336050 -0.539046
O19   O     O_R   0.646590 0.271470 0.336050 -0.539051
O20   O     O_R   0.146590 0.228530 0.336050 -0.539045
O21   O     O_R   0.146590 0.771470 0.336050 -0.539052
O22   O     O_R   0.793040 0.668060 0.542980 -0.534945
O23   O     O_3   0.250040 0.250040 0.500000 -0.435688
O24   O     O_R   0.793040 0.331940 0.542980 -0.534834
O25   O     O_R   0.293040 0.168060 0.542980 -0.534953
O26   O     O_R   0.293040 0.831940 0.542980 -0.534840
O27   O     O_R   0.750030 0.832020 0.457020 -0.529454
O28   O     O_R   0.750030 0.167980 0.457020 -0.529465
O29   O     O_R   0.250030 0.332020 0.457020 -0.529452
O30   O     O_R   0.250030 0.667980 0.457020 -0.529464
O31   O     O_R   0.853520 0.728540 0.542980 -0.530480
O32   O     O_R   0.853520 0.271460 0.542980 -0.530471
O33   O     O_R   0.353520 0.228540 0.542980 -0.530482
O34   O     O_3   0.250040 0.749960 0.500000 -0.435689
O35   O     O_R   0.353520 0.771460 0.542980 -0.530472
O36   O     O_R   0.689540 0.771550 0.542990 -0.537062
O37   O     O_R   0.689540 0.228450 0.542990 -0.537056
O38   O     O_R   0.189540 0.271550 0.542990 -0.537061
O39   O     O_R   0.189540 0.728450 0.542990 -0.537055
O40   O     O_R   0.810530 0.771520 0.457010 -0.538314
O41   O     O_R   0.810530 0.228480 0.457010 -0.538315
O42   O     O_R   0.310530 0.271520 0.457010 -0.538314
O43   O     O_R   0.310530 0.728480 0.457010 -0.538314
O44   O     O_R   0.646570 0.728550 0.457020 -0.538225
O45   O     O_R   0.707070 0.668050 0.457020 -0.538999
O46   O     O_R   0.646570 0.271450 0.457020 -0.538233
O47   O     O_R   0.146570 0.228550 0.457020 -0.538225
O48   O     O_R   0.146570 0.771450 0.457020 -0.538233
O49   O     O_R   0.707070 0.331950 0.457020 -0.539011
O50   O     O_R   0.207070 0.168050 0.457020 -0.538999
O51   O     O_R   0.207070 0.831950 0.457020 -0.539011
O52   O     O_R   0.750020 0.832030 0.542980 -0.540640
Zn1   Zn    Zn3+2 0.688630 0.719330 0.438590 0.938765
Zn2   Zn    Zn3+2 0.750040 0.219260 0.438590 0.949662
Zn3   Zn    Zn3+2 0.250040 0.280740 0.438590 0.949662
Zn4   Zn    Zn3+2 0.250040 0.719260 0.438590 0.949663
Zn5   Zn    Zn3+2 0.750030 0.780760 0.561410 0.940001
Zn6   Zn    Zn3+2 0.750030 0.219240 0.561410 0.939970
Zn7   Zn    Zn3+2 0.250030 0.280760 0.561410 0.940005
Zn8   Zn    Zn3+2 0.250030 0.719240 0.561410 0.939973
Zn9   Zn    Zn3+2 0.688630 0.280670 0.438590 0.938792
Zn10  Zn    Zn3+2 0.188630 0.219330 0.438590 0.938762
Zn11  Zn    Zn3+2 0.188630 0.780670 0.438590 0.938788
Zn12  Zn    Zn3+2 0.811460 0.719330 0.561410 0.949132
Zn13  Zn    Zn3+2 0.811460 0.280670 0.561410 0.949139
Zn14  Zn    Zn3+2 0.311460 0.219330 0.561410 0.949129
Zn15  Zn    Zn3+2 0.311460 0.780670 0.561410 0.949138
Zn16  Zn    Zn3+2 0.750040 0.780740 0.438590 0.949662

loop_
_geom_bond_atom_site_label_1
_geom_bond_atom_site_label_2
_ccdc_geom_bond_type
C115  C141  S    
C107  C112  T    
C19   C20   S    
O13   Zn4   S    
O1    Zn16  S    
O45   Zn1   S    
C136  C162  S    
C95   H26   S    
C89   O15   A    
C6    C85   S    
C24   C98   S    
C14   C21   S    
C79   C99   S    
C71   H9    S    
C67   H70   S    
C64   C112  S    
O49   Zn9   S    
C126  C143  S    
C9    C39   S    
O51   Zn11  S    
O36   Zn5   S    
C32   C45   S    
C129  H38   S    
C6    H97   S    
C149  C153  S    
C36   C53   T    
C146  C150  S    
C117  C170  S    
C38   C55   T    
C91   H126  S    
C70   C74   S    
C68   C90   S    
C111  O17   A    
C114  H47   S    
C4    C12   S    
O39   Zn8   S    
C32   H123  S    
C15   C20   S    
C114  H78   S    
C65   H68   S    
O17   Zn8   S    
C115  H48   S    
C75   H14   S    
C49   H130  S    
C35   C65   S    
C13   C106  S    
C65   C166  S    
C83   N5    T    
C69   H115  S    
C131  C158  T    
C38   C168  S    
C14   C175  S    
C76   H19   S    
C111  C130  S    
C95   H21   S    
C60   O35   A    
C174  H112  S    
O47   Zn10  S    
C164  C173  T    
C24   C107  S    
C121  C135  S    
C163  C172  T    
C127  C145  S    
C116  C142  S    
C74   C79   S    
C33   C47   S    
C30   C43   S    
C97   H28   S    
C2    C71   S    
C95   C166  S    
C165  O22   A    
C91   H30   S    
C12   C174  S    
C51   H136  S    
C116  H80   S    
C61   O44   A    
C58   O32   A    
C3    H92   S    
C77   H16   S    
C41   O29   A    
C4    C5    S    
C140  C145  S    
C88   C102  S    
C6    C7    S    
C146  C159  S    
C13   C72   S    
C101  C133  T    
C125  C138  S    
C19   H107  S    
C35   C78   S    
C121  H51   S    
O35   Zn15  S    
C2    C96   S    
C40   O2    A    
C42   O4    A    
C136  C153  S    
C32   H128  S    
C119  O20   A    
C118  C171  S    
C141  H84   S    
C13   C97   S    
C129  C147  S    
C18   H103  S    
C125  C129  S    
C3    C176  S    
C19   H102  S    
C56   O40   A    
C113  C135  S    
C73   C77   S    
C31   H127  S    
C8    C40   S    
C148  H86   S    
C149  H87   S    
C44   C48   S    
C174  H91   S    
C134  C160  T    
C153  H65   S    
O4    Zn8   S    
C96   H22   S    
C29   C47   S    
C130  C157  T    
O23   Zn14  S    
C141  H44   S    
C37   C169  S    
C59   O33   A    
C15   C25   S    
C7    C86   S    
C11   C25   T    
C135  C152  S    
C12   C22   S    
C92   C96   S    
O14   Zn5   S    
C28   H6    S    
C174  C175  S    
C80   N2    T    
C87   C101  S    
C139  C143  S    
C27   C44   S    
C123  H56   S    
C115  C137  S    
O34   Zn15  S    
O2    Zn6   S    
C142  H85   S    
C114  C140  S    
C79   C91   S    
C44   C52   S    
C42   O30   A    
C129  H63   S    
C135  C161  S    
C14   C17   S    
C102  C144  T    
C3    H116  S    
C27   H117  S    
C147  C160  S    
C175  H90   S    
C8    C21   T    
C47   C50   S    
C143  C148  S    
C113  H46   S    
C132  C159  T    
O52   Zn5   S    
C162  C171  T    
O11   Zn3   S    
C39   O52   A    
C137  C163  S    
C5    C84   S    
C167  O49   A    
C147  C151  S    
C27   H5    S    
C84   N6    T    
C168  O25   A    
C85   N7    T    
O12   Zn13  S    
C123  C127  S    
C17   C18   S    
C169  O51   A    
C117  O9    A    
O26   Zn15  S    
C70   H8    S    
O34   Zn11  S    
C16   C23   S    
O41   Zn2   S    
O21   Zn11  S    
C28   H120  S    
C49   H134  S    
C93   C97   S    
O43   Zn4   S    
C46   C87   S    
C75   C87   S    
C105  C109  T    
C5    H96   S    
C114  C136  S    
C142  C147  S    
C48   H131  S    
C148  C152  S    
C2    C66   S    
O34   Zn4   S    
C93   H13   S    
C153  H74   S    
C68   C82   S    
C50   H3    S    
C92   H31   S    
O7    Zn14  S    
C46   C80   S    
C57   C67   S    
C128  C146  S    
C62   C109  S    
C35   C79   S    
C36   C165  S    
C150  H41   S    
O9    Zn16  S    
C59   O42   A    
O46   Zn9   S    
C91   C95   S    
C51   H132  S    
C75   H18   S    
C58   C144  S    
C127  H36   S    
C45   C55   S    
C26   H118  S    
C93   H32   S    
C3    C16   S    
C150  H88   S    
O32   Zn13  S    
O16   Zn7   S    
C35   H1    S    
C121  H55   S    
C10   C42   S    
C97   H23   S    
C98   H25   S    
C62   O46   A    
C7    H98   S    
C29   H119  S    
C40   O28   A    
O34   Zn8   S    
C26   C27   S    
C60   O43   A    
C15   C176  S    
O8    Zn15  S    
C28   C29   S    
C46   C66   S    
C13   C67   S    
C30   C31   S    
O50   Zn10  S    
C24   C73   S    
C94   C98   S    
C128  H62   S    
C100  O7    A    
O48   Zn11  S    
C125  H58   S    
C120  O21   A    
C43   C53   S    
C68   C69   S    
C111  O8    A    
C142  H45   S    
C124  H53   S    
C124  C128  S    
C17   H105  S    
C4    H95   S    
C100  O16   A    
C74   H17   S    
C87   C92   S    
O12   Zn9   S    
C20   H106  S    
O24   Zn13  S    
C117  O18   A    
C73   H11   S    
C90   C94   S    
C74   H12   S    
O20   Zn10  S    
O10   Zn2   S    
C77   C90   S    
C113  H77   S    
O22   Zn12  S    
C175  H113  S    
C72   H110  S    
C123  H52   S    
O6    Zn13  S    
O12   Zn2   S    
C64   O39   A    
O23   Zn3   S    
C31   H122  S    
C124  C137  S    
C30   H125  S    
C50   C51   S    
C41   O3    A    
C151  C156  S    
C60   C122  S    
C72   H10   S    
C5    C14   S    
C141  C146  S    
C99   C122  T    
C124  H57   S    
C103  C155  T    
C7    C16   S    
C127  H61   S    
C64   O48   A    
C161  C170  T    
O38   Zn7   S    
C104  C108  T    
C57   H60   S    
C151  H89   S    
O44   Zn1   S    
O3    Zn7   S    
C156  H76   S    
C26   H4    S    
C34   C52   T    
O37   Zn6   S    
C62   O37   A    
O12   Zn6   S    
C32   C33   S    
C65   H82   S    
C66   H93   S    
O23   Zn7   S    
C145  C158  S    
C4    C83   S    
C16   C19   S    
C120  O13   A    
C139  H81   S    
C39   O27   A    
C137  C154  S    
C94   H24   S    
C90   C103  S    
C104  C166  S    
O1    Zn1   S    
O23   Zn10  S    
C145  C149  S    
C66   H69   S    
C154  H66   S    
C140  H83   S    
O42   Zn3   S    
C48   H135  S    
C72   C76   S    
C100  C131  S    
C176  H94   S    
C89   C132  S    
C77   H20   S    
O33   Zn14  S    
C70   C166  S    
C9    C22   T    
C61   O36   A    
C154  H75   S    
C45   C51   S    
C86   N8    T    
C119  O11   A    
C61   C108  S    
O28   Zn2   S    
C140  H43   S    
C6    C15   S    
C33   H124  S    
O30   Zn4   S    
O31   Zn12  S    
C46   H49   S    
O5    Zn12  S    
C82   N4    T    
C98   H29   S    
O1    Zn5   S    
C76   C88   S    
C119  C172  S    
C58   O41   A    
C78   N1    T    
C89   O6    A    
O19   Zn9   S    
C56   C155  S    
C152  H73   S    
C81   N3    T    
C24   C69   S    
C143  C157  S    
C116  C138  S    
C68   H71   S    
C63   O47   A    
O15   Zn6   S    
C28   C45   S    
C31   C44   S    
C50   H133  S    
O1    Zn12  S    
C20   H101  S    
C125  H54   S    
C126  H34   S    
C43   C49   S    
O27   Zn16  S    
C139  H35   S    
C59   C133  S    
C168  O50   A    
O25   Zn14  S    
C116  H50   S    
C56   O31   A    
C156  H67   S    
C73   H111  S    
C69   H72   S    
C165  O45   A    
C152  H64   S    
C113  C139  S    
C169  O26   A    
C151  H42   S    
C126  H59   S    
C118  O10   A    
C92   H2    S    
C37   C54   T    
C167  O24   A    
C26   C43   S    
C47   C54   S    
O40   Zn16  S    
C71   H109  S    
C57   C81   S    
C176  H114  S    
C33   H129  S    
C1    C134  S    
C148  H39   S    
C17   H100  S    
C96   H27   S    
C18   H99   S    
C106  C110  T    
C138  C156  S    
C88   C93   S    
C48   C49   S    
C29   H7    S    
C118  O19   A    
C30   H121  S    
C10   C23   T    
C128  H37   S    
C2    C105  S    
C57   C88   S    
C123  C136  S    
C63   C110  S    
C149  H40   S    
C121  C126  S    
C76   H15   S    
C71   C75   S    
C1    O14   A    
C63   O38   A    
C70   H108  S    
C11   C41   S    
C120  C173  S    
C115  H79   S    
C94   H33   S    
C150  C154  S    
C12   C18   S    
C138  C164  S    
O29   Zn3   S    
O18   Zn1   S    
C67   H104  S    
C1    O5    A    
C34   C167  S    
