data_mof_unit_28307.cif
_audit_creation_date              2012-12-10T18:45:07-0500
_audit_creation_method            fapswitch 2.2
_symmetry_space_group_name_H-M    P1
_symmetry_Int_Tables_number       1
_space_group_crystal_system       triclinic
_cell_length_a                    10.716305
_cell_length_b                    9.824172
_cell_length_c                    10.646817
_cell_angle_alpha                 90.000013
_cell_angle_beta                  90.481243
_cell_angle_gamma                 90.0
_cell_volume                      1120.8448303

loop_
_atom_site_label
_atom_site_type_symbol
_atom_type_description
_atom_site_fract_x
_atom_site_fract_y
_atom_site_fract_z
_atom_type_partial_charge
C1    C     C_R   0.259836 0.499935 0.500415 0.840985
C2    C     C_R   0.740164 0.499935 0.499585 0.840984
C3    C     C_R   0.936134 0.624133 0.499752 -0.201864
C4    C     C_R   0.063866 0.624133 0.500255 -0.201865
C5    C     C_R   0.566062 0.072477 0.589625 0.473985
C6    C     C_R   0.433938 0.072477 0.410374 0.473986
C7    C     C_R   0.563126 0.927515 0.590490 -0.238904
C8    C     C_R   0.436874 0.927515 0.409510 -0.238904
C9    C     C_R   0.514795 0.500901 0.260104 0.919764
C10   C     C_R   0.485205 0.500901 0.739896 0.919765
C11   C     C_R   0.562182 0.756387 0.114600 -0.132887
C12   C     C_R   0.437820 0.756388 0.885400 -0.132887
C13   C     C_R   0.531881 0.879092 0.056772 -0.160947
C14   C     C_R   0.468121 0.879092 0.943228 -0.160949
C15   C     C_R   0.475797 0.630623 0.938953 0.064891
C16   C     C_R   0.524204 0.630623 0.061048 0.064890
C17   C     C_R   0.532333 0.504787 0.125317 -0.397515
C18   C     C_R   0.467668 0.504787 0.874683 -0.397514
C19   C     C_R   0.526419 0.380531 0.059512 0.407061
C20   C     C_R   0.473582 0.380531 0.940488 0.407061
C21   C     C_R   0.063841 0.375777 0.501252 -0.221712
C22   C     C_R   0.936159 0.375777 0.498742 -0.221716
C23   C     C_R   0.872589 0.499932 0.499058 -0.001056
C24   C     C_R   0.127410 0.499932 0.500943 -0.001056
H1    H     H_    0.554931 0.974429 0.101280 0.213511
H2    H     H_    0.445072 0.974430 0.898720 0.213511
H3    H     H_    0.112210 0.278993 0.503182 0.144155
H4    H     H_    0.887790 0.278994 0.496808 0.144155
H5    H     H_    0.887675 0.720955 0.499815 0.154308
H6    H     H_    0.112325 0.720955 0.500197 0.154309
N1    N     N_R   0.500000 0.857200 0.500000 -0.120078
N2    N     N_R   0.500000 0.142810 0.500000 -0.168850
O1    O     O_R   0.316770 0.614620 0.499990 -0.629901
O2    O     O_R   0.683230 0.614620 0.500010 -0.629901
O3    O     O_R   0.316800 0.385290 0.500000 -0.621495
O4    O     O_R   0.683200 0.385290 0.500000 -0.621495
O5    O     O_R   0.500010 0.614690 0.316770 -0.631853
O6    O     O_R   0.499990 0.614690 0.683230 -0.631853
O7    O     O_R   0.500040 0.385360 0.316770 -0.521917
O8    O     O_R   0.499960 0.385360 0.683230 -0.521917
Zn1   Zn    Zn3+2 0.500000 0.653120 0.500000 0.921802
Zn2   Zn    Zn3+2 0.500000 0.346880 0.500000 1.026118
O9    O     O_3   0.566409 0.258427 0.112219 -0.548171
C25   C     C_3   0.696143 0.268546 0.139856 0.154977
H7    H     H_    0.716951 0.352913 0.206455 0.122632
H8    H     H_    0.750251 0.286469 0.052574 0.114595
C26   C     C_3   0.743397 0.138529 0.201877 -0.860061
H9    H     H_    0.750710 0.055599 0.131751 0.231992
H10   H     H_    0.837974 0.156196 0.242180 0.201297
H11   H     H_    0.680102 0.107396 0.278762 0.263116
O10   O     O_3   0.433592 0.258427 0.887781 -0.548171
C27   C     C_3   0.303858 0.268546 0.860145 0.154973
H12   H     H_    0.283048 0.352914 0.793547 0.122631
H13   H     H_    0.249750 0.286466 0.947427 0.114597
C28   C     C_3   0.256605 0.138529 0.798122 -0.860057
H14   H     H_    0.249293 0.055598 0.868246 0.231991
H15   H     H_    0.162028 0.156196 0.757819 0.201298
H16   H     H_    0.319899 0.107399 0.721236 0.263117
H17   H     H_    0.617475 0.761564 0.199878 0.160565
H18   H     H_    0.382527 0.761565 0.800123 0.160565
O11   O     O_3   0.624671 0.145123 0.684774 -0.543652
C29   C     C_3   0.750863 0.105696 0.701377 0.104192
H19   H     H_    0.808586 0.199454 0.699052 0.164693
H20   H     H_    0.787945 0.037299 0.626741 0.092303
C30   C     C_3   0.769086 0.040649 0.830142 -0.866805
H21   H     H_    0.723192 0.939709 0.834326 0.249880
H22   H     H_    0.870225 0.027250 0.850047 0.207759
H23   H     H_    0.728214 0.106954 0.903232 0.285298
O12   O     O_3   0.375331 0.145123 0.315225 -0.543653
C31   C     C_3   0.249140 0.105695 0.298618 0.104191
H24   H     H_    0.191415 0.199453 0.300941 0.164692
H25   H     H_    0.212055 0.037299 0.373254 0.092304
C32   C     C_3   0.230921 0.040647 0.169854 -0.866807
H26   H     H_    0.276810 0.939704 0.165674 0.249878
H27   H     H_    0.129782 0.027252 0.149943 0.207760
H28   H     H_    0.271800 0.106948 0.096765 0.285303
H29   H     H_    0.610813 0.870897 0.663240 0.177286
H30   H     H_    0.389187 0.870897 0.336760 0.177286

loop_
_geom_bond_atom_site_label_1
_geom_bond_atom_site_label_2
_ccdc_geom_bond_type
C15   C18   A    
C6    N2    A    
C28   H14   S    
C6    O12   S    
C32   H26   S    
C3    C23   A    
C19   C20   A    
C1    O1    A    
C26   H10   S    
C27   H12   S    
C20   O10   S    
C4    C24   A    
C15   C16   A    
C9    O7    A    
C10   O8    A    
C3    H5    S    
O3    Zn2   S    
C29   H20   S    
O4    Zn2   S    
C27   H13   S    
C16   C17   A    
C30   H22   S    
C19   O9    S    
C31   H24   S    
C26   H11   S    
C25   C26   S    
C7    H29   S    
C5    N2    A    
C2    O2    A    
O8    Zn2   S    
C21   H3    S    
C22   H4    S    
C21   C22   A    
C8    H30   S    
C32   H27   S    
C13   H1    S    
O11   C29   S    
O2    Zn1   S    
C11   H17   S    
C25   H8    S    
O7    Zn2   S    
C7    N1    A    
O10   C27   S    
O6    Zn1   S    
C5    C7    A    
C6    C8    A    
O9    C25   S    
C29   H19   S    
C11   C16   A    
C26   H9    S    
C12   C15   A    
C30   H23   S    
C31   C32   S    
C9    O5    A    
C5    O11   S    
C14   H2    S    
C9    C17   S    
C12   C14   A    
C28   H15   S    
C32   H28   S    
C28   H16   S    
C3    C4    A    
C25   H7    S    
C1    O3    A    
C2    O4    A    
N1    Zn1   S    
C29   C30   S    
C8    N1    A    
C27   C28   S    
C10   O6    A    
O1    Zn1   S    
C11   C13   A    
C10   C18   S    
C17   C19   A    
C18   C20   A    
O5    Zn1   S    
O12   C31   S    
C12   H18   S    
C1    C24   S    
C30   H21   S    
C21   C24   A    
C2    C23   S    
N2    Zn2   S    
C22   C23   A    
C31   H25   S    
C13   C14   A    
C4    H6    S    
