data_mof_unit_44383.cif
_audit_creation_date              2012-12-11T20:19:43-0500
_audit_creation_method            fapswitch 2.2
_symmetry_space_group_name_H-M    P1
_symmetry_Int_Tables_number       1
_space_group_crystal_system       triclinic
_cell_length_a                    8.39514
_cell_length_b                    17.375895
_cell_length_c                    22.775289
_cell_angle_alpha                 99.940339
_cell_angle_beta                  89.178948
_cell_angle_gamma                 99.095974
_cell_volume                      3230.98915596

loop_
_atom_site_label
_atom_site_type_symbol
_atom_type_description
_atom_site_fract_x
_atom_site_fract_y
_atom_site_fract_z
_atom_type_partial_charge
Ba1   Ba    Ba6+2 0.857050 0.537370 0.474190 1.847507
Ba2   Ba    Ba6+2 0.332790 0.462700 0.525820 1.783895
C1    C     C_3   0.613434 0.776016 0.265764 -0.201038
C2    C     C_R   0.084979 0.574159 0.946585 -0.090080
C3    C     C_R   0.043185 0.568590 0.885499 0.610296
C4    C     C_3   0.153169 0.762926 0.324774 1.008968
C5    C     C_R   0.942159 0.430479 0.879316 0.590358
C6    C     C_R   0.988049 0.433801 0.939336 -0.051129
C7    C     C_R   0.058781 0.506098 0.973444 -0.059279
C8    C     C_R   0.149651 0.646742 0.981636 -0.044290
C9    C     C_R   0.185172 0.652952 0.042356 0.401154
C10   C     C_R   0.168147 0.583892 0.069415 -0.088241
C11   C     C_R   0.102976 0.510249 0.034437 -0.156079
C12   C     C_3   0.644279 0.740276 0.320423 0.694692
C13   C     C_R   0.963919 0.365636 0.965680 -0.128418
C14   C     C_R   0.010807 0.367821 0.025053 0.420444
C15   C     C_R   0.081932 0.440598 0.060058 -0.026804
C16   C     C_3   0.070462 0.789178 0.273680 -0.158098
C17   C     C_R   0.133377 0.445357 0.119917 0.623741
C18   C     C_R   0.216732 0.585687 0.129507 0.609128
C19   C     C_2   0.783131 0.453779 0.767359 -0.072635
C20   C     C_3   0.756439 0.430043 0.700835 0.054828
C21   C     C_1   0.004432 0.519935 0.688163 0.066927
C22   C     C_2   0.049141 0.522974 0.744830 -0.121421
C23   C     C_3   0.472820 0.294554 0.330820 0.955454
C24   C     C_2   0.930217 0.491273 0.788896 0.176504
C25   C     C_R   0.407464 0.552572 0.235675 -0.166464
C26   C     C_R   0.457075 0.550608 0.294025 -0.049050
C27   C     C_R   0.191195 0.483136 0.314419 -0.009355
C28   C     C_3   0.234526 0.702853 0.602845 0.398721
C29   C     C_R   0.140453 0.486140 0.256314 -0.096777
C30   C     C_R   0.248389 0.519688 0.215787 0.252204
C31   C     C_2   0.860520 0.484759 0.666678 -0.234815
C32   C     C_2   0.450437 0.720415 0.479142 0.028903
C33   C     C_3   0.373929 0.772804 0.445292 -0.008223
C34   C     C_3   0.457278 0.236370 0.271588 -0.155333
C35   C     C_2   0.426766 0.859505 0.466699 -0.095725
C36   C     C_2   0.558550 0.885581 0.501995 -0.014771
C37   C     C_2   0.643028 0.826248 0.525644 0.243486
C38   C     C_1   0.579441 0.749448 0.514676 0.032143
C39   C     C_R   0.773133 0.143130 0.548771 -0.232321
C40   C     C_3   0.256301 0.792912 0.618923 0.255194
C41   C     C_R   0.840046 0.222536 0.551138 0.039939
C42   C     C_R   0.606031 0.243959 0.497945 -0.010667
C43   C     C_R   0.539891 0.164250 0.495269 -0.201405
C44   C     C_R   0.619323 0.114032 0.522819 -0.074984
C45   C     C_3   0.043167 0.293718 0.689836 0.637772
C46   C     C_2   0.629798 0.970965 0.509970 -0.031422
C47   C     C_2   0.541883 0.030416 0.522222 0.389470
C48   C     C_R   0.750182 0.274160 0.529927 0.149820
C49   C     C_3   0.935504 0.290730 0.383762 0.670427
C50   C     C_3   0.883414 0.203430 0.354564 0.206233
C51   C     C_3   0.697989 0.652740 0.662869 0.656983
C52   C     C_3   0.628733 0.665691 0.725819 0.248242
C53   C     C_3   0.099025 0.282043 0.751338 0.295299
C54   C     C_3   0.484209 0.257927 0.653539 0.316034
C55   C     C_3   0.452854 0.181222 0.678998 0.201129
C56   C     C_R   0.351746 0.513079 0.332004 0.224030
H1    H     H_    0.137994 0.811187 0.631937 0.114024
H2    H     H_    0.408733 0.250751 0.612799 0.034163
H3    H     H_    0.322308 0.165164 0.687964 0.058113
H4    H     H_    0.909349 0.309628 0.939746 0.140896
H5    H     H_    0.171567 0.548320 0.759465 0.126366
H6    H     H_    0.691318 0.431570 0.796945 0.119525
H7    H     H_    0.018061 0.460884 0.242117 0.130992
H8    H     H_    0.820680 0.489017 0.622412 0.105075
H9    H     H_    0.428577 0.140893 0.470457 0.114613
H10   H     H_    0.974519 0.741964 0.252333 0.126179
H11   H     H_    0.351641 0.684304 0.590205 -0.089938
H12   H     H_    0.828026 0.317934 0.397839 -0.047515
H13   H     H_    0.733925 0.775532 0.399812 0.304358
H14   H     H_    0.475043 0.823677 0.649740 0.321732
H15   H     H_    0.298302 0.820074 0.579554 -0.043697
H16   H     H_    0.994545 0.250815 0.453242 0.228666
H17   H     H_    0.899223 0.202141 0.269441 0.328477
H18   H     H_    0.795119 0.173887 0.383638 0.021135
H19   H     H_    0.907374 0.715709 0.683774 0.307020
H20   H     H_    0.646372 0.592085 0.640459 0.005924
H21   H     H_    0.728122 0.792869 0.243017 0.081130
H22   H     H_    0.688110 0.723372 0.751302 0.060577
H23   H     H_    0.989336 0.171516 0.350203 0.010182
H24   H     H_    0.653475 0.617546 0.749248 -0.003607
H25   H     H_    0.424843 0.671854 0.764888 0.317707
H26   H     H_    0.525448 0.716418 0.337584 -0.062583
H27   H     H_    0.256013 0.257385 0.353485 0.290071
H28   H     H_    0.601770 0.397309 0.358988 0.319668
H29   H     H_    0.401373 0.176335 0.278614 0.045419
H30   H     H_    0.380522 0.256479 0.239742 0.085794
H31   H     H_    0.531733 0.732380 0.233917 0.104164
H32   H     H_    0.838264 0.222647 0.680736 0.336601
H33   H     H_    0.226553 0.273700 0.751540 0.032490
H34   H     H_    0.557843 0.830153 0.278666 0.145016
H35   H     H_    0.034328 0.169225 0.746909 0.309052
H36   H     H_    0.487558 0.132570 0.645482 0.059115
H37   H     H_    0.257152 0.671100 0.329970 0.262719
H38   H     H_    0.487549 0.216292 0.763985 0.339696
H39   H     H_    0.935925 0.254332 0.019259 0.309683
H40   H     H_    0.166679 0.734525 0.109210 0.328421
H41   H     H_    0.492983 0.578208 0.205655 0.103168
H42   H     H_    0.167940 0.700316 0.962446 0.153111
H43   H     H_    0.381930 0.448846 0.390361 0.326288
H44   H     H_    0.286067 0.866170 0.346947 0.266798
H45   H     H_    0.576833 0.232991 0.250967 0.155771
H46   H     H_    0.336503 0.062960 0.546642 0.305701
H47   H     H_    0.798530 0.908500 0.572667 0.306280
H48   H     H_    0.840540 0.104670 0.567431 0.089849
H49   H     H_    0.758502 0.984639 0.502625 0.043325
H50   H     H_    0.369388 0.900668 0.446806 0.133428
H51   H     H_    0.330047 0.621673 0.488373 0.306944
H52   H     H_    0.851646 0.367296 0.502923 0.313281
H53   H     H_    0.018639 0.843827 0.290110 0.064374
H54   H     H_    0.148115 0.684143 0.564754 -0.018838
H55   H     H_    0.159275 0.801390 0.238471 0.086102
H56   H     H_    0.088637 0.356012 0.685101 -0.020821
H57   H     H_    0.091860 0.336457 0.783851 0.079762
H58   H     H_    0.612038 0.267347 0.640318 0.032610
N1    N     N_R   0.972978 0.497026 0.852090 -0.427165
N2    N     N_R   0.198182 0.517142 0.154082 -0.436505
O1    O     O_2   0.889310 0.456460 0.358460 -0.465864
O2    O     O_2   0.165709 0.215912 0.530071 -0.505267
O3    O     O_3   0.107736 0.241918 0.644541 -0.663635
O4    O     O_3   0.129890 0.457280 0.429550 -0.430624
O5    O     O_3   0.576930 0.595420 0.534060 -0.458767
O6    O     O_2   0.340570 0.306450 0.462190 -0.388451
O7    O     O_3   0.546207 0.260527 0.373607 -0.681498
O8    O     O_2   0.442543 0.473044 0.707348 -0.506364
O9    O     O_3   0.445625 0.321333 0.695857 -0.621715
O10   O     O_2   0.066687 0.627886 0.862540 -0.583013
O11   O     O_2   0.875025 0.367681 0.851242 -0.553076
O12   O     O_3   0.660663 0.710840 0.632053 -0.625985
O13   O     O_2   0.123344 0.385113 0.141482 -0.519436
O14   O     O_2   0.276677 0.648135 0.159959 -0.573134
O15   O     O_3   0.674650 0.600620 0.400940 -0.382017
O16   O     O_2   0.780961 0.536967 0.295108 -0.449103
O17   O     O_3   0.020284 0.330431 0.341874 -0.591612
O18   O     O_3   0.745663 0.683100 0.303569 -0.620226
O19   O     O_2   0.849130 0.693580 0.537840 -0.424763
O20   O     O_3   0.093680 0.641380 0.431770 -0.464442
O21   O     O_2   0.064802 0.782614 0.492963 -0.464698
O22   O     O_3   0.722560 0.800316 0.364302 -0.709719
O23   O     O_3   0.056673 0.771591 0.376553 -0.577252
O24   O     O_3   0.365275 0.820273 0.666827 -0.654607
O25   O     O_3   0.035844 0.295715 0.433137 -0.711840
O26   O     O_3   0.810851 0.197711 0.298692 -0.711150
O27   O     O_3   0.864927 0.659468 0.667510 -0.805309
O28   O     O_3   0.462489 0.665799 0.723084 -0.669479
O29   O     O_3   0.318615 0.309048 0.347905 -0.742034
O30   O     O_3   0.568820 0.364361 0.320113 -0.734880
O31   O     O_3   0.874146 0.280761 0.687143 -0.749626
O32   O     O_3   0.003143 0.217823 0.770852 -0.649108
O33   O     O_3   0.169879 0.683110 0.305970 -0.717248
O34   O     O_2   0.300380 0.543560 0.641570 -0.439738
O35   O     O_3   0.545566 0.187952 0.730887 -0.657035
O36   O     O_3   0.986449 0.299370 0.049475 -0.655060
O37   O     O_3   0.235614 0.727855 0.073578 -0.682941
O38   O     O_3   0.410924 0.504739 0.386071 -0.660938
O39   O     O_3   0.304996 0.810650 0.335036 -0.815405
O40   O     O_3   0.379022 0.012759 0.533652 -0.729573
O41   O     O_3   0.779187 0.850215 0.561929 -0.692753
O42   O     O_3   0.410029 0.640770 0.459650 -0.664536
O43   O     O_3   0.803843 0.354058 0.540547 -0.717996
O44   O     O_3   0.059830 0.542790 0.570460 -0.499029
O45   O     O_3   0.515070 0.399440 0.599070 -0.455783
O46   O     O_3   0.176784 0.670340 0.652523 -0.540708
O47   O     O_3   0.612780 0.404640 0.465950 -0.463907
O48   O     O_3   0.096040 0.358680 0.568240 -0.418310
P1    P     P_3+3 0.055640 0.433080 0.366120 1.116004
P2    P     P_3+3 0.671420 0.681950 0.554390 1.108240
P3    P     P_3+3 0.148544 0.743825 0.437196 1.012714
P4    P     P_3+3 0.134070 0.566990 0.633890 1.095718
P5    P     P_3+3 0.052707 0.258651 0.574242 1.001352
P6    P     P_3+3 0.662833 0.592295 0.322839 1.063692
P7    P     P_3+3 0.524939 0.303812 0.449302 0.979580
P8    P     P_3+3 0.540627 0.409791 0.676143 0.970369

loop_
_geom_bond_atom_site_label_1
_geom_bond_atom_site_label_2
_ccdc_geom_bond_type
C45   H56   S    
H16   O25   S    
O1    P1    D    
C5    N1    Am   
O46   P4    S    
C24   N1    S    
C12   H26   S    
C19   C24   D    
O7    P7    S    
Ba2   O44   S    
C18   N2    Am   
C5    C6    A    
C51   C52   S    
C34   H30   S    
H14   O24   S    
C44   C47   S    
C25   H41   S    
C50   O26   S    
C53   H57   S    
C34   H45   S    
C32   C38   D    
C27   C56   A    
C33   C35   S    
O15   P6    S    
C22   C24   S    
C32   C33   S    
C36   C37   S    
C45   O3    S    
C46   H49   S    
Ba1   P1    S    
C16   H10   S    
C13   C14   A    
C54   C55   S    
C16   H55   S    
Ba1   Ba2   S    
Ba1   O1    S    
C54   O9    S    
C7    C11   A    
Ba1   O4    S    
C19   H6    S    
C53   H33   S    
C49   O17   S    
C26   P6    S    
O18   P6    S    
C17   N2    Am   
C14   C15   A    
C21   C31   D    
C40   O24   S    
C21   C22   D    
C49   H12   S    
C28   O46   S    
Ba2   O48   S    
C36   C46   S    
O8    P8    D    
C9    O37   S    
C52   O28   S    
O9    P8    S    
C1    H21   S    
O48   P5    S    
O16   P6    D    
C19   C20   S    
O20   P3    S    
Ba2   O34   S    
C39   C41   A    
H35   O32   S    
C18   O14   D    
H32   O31   S    
Ba1   O15   S    
H44   O39   S    
O23   P3    S    
C20   P8    S    
H52   O43   S    
C31   H8    S    
C52   H22   S    
Ba2   O4    S    
C34   H29   S    
C17   O13   D    
C4    C16   S    
C5    O11   D    
C39   H48   S    
C49   C50   S    
C45   O31   S    
C42   P7    S    
C35   H50   S    
C8    C9    A    
H46   O40   S    
C37   C38   D    
C41   P5    S    
C6    C7    A    
O6    P7    D    
Ba1   P2    S    
C43   C44   A    
C55   O35   S    
C54   H2    S    
C28   H54   S    
C1    H34   S    
C40   H1    S    
Ba1   O5    S    
C43   H9    S    
C35   C36   D    
H25   O28   S    
O34   P4    D    
H38   O35   S    
O44   P4    S    
Ba1   O47   S    
C39   C44   A    
C28   H11   S    
C10   C18   A    
C51   O27   S    
C54   H58   S    
C23   O29   S    
H39   O36   S    
C16   H53   S    
C4    O23   S    
C8    H42   S    
Ba2   O47   S    
C1    C12   S    
C56   O38   S    
Ba2   P4    S    
C4    O33   S    
C46   C47   D    
O3    P5    S    
C12   O22   S    
Ba1   O44   S    
C22   H5    S    
Ba2   O6    S    
C55   H36   S    
C14   O36   S    
C33   P3    S    
C47   O40   S    
H37   O33   S    
O5    P2    S    
C2    C8    A    
C41   C48   A    
H19   O27   S    
C52   H24   S    
C4    O39   S    
Ba1   O19   S    
C42   C43   A    
C53   O32   S    
C45   C53   S    
C42   C48   A    
C29   H7    S    
C20   C31   S    
H40   O37   S    
C40   H15   S    
O4    P1    S    
C37   O41   S    
C25   C30   A    
C29   C30   A    
H27   O29   S    
C30   N2    S    
C2    C3    A    
C50   H18   S    
H28   O30   S    
Ba2   O45   S    
C9    C10   A    
O2    P5    D    
C55   H3    S    
H13   O22   S    
C26   C56   A    
C6    C13   A    
H43   O38   S    
C11   C15   A    
C1    H31   S    
C27   P1    S    
C51   H20   S    
C27   C29   A    
H51   O42   S    
H47   O41   S    
C21   P4    S    
C12   O18   S    
C3    O10   D    
C23   O7    S    
C15   C17   A    
C13   H4    S    
O21   P3    D    
C23   O30   S    
C49   O25   S    
C50   H23   S    
C38   P2    S    
H17   O26   S    
C23   C34   S    
O12   P2    S    
C10   C11   A    
C3    N1    Am   
C25   C26   A    
O17   P1    S    
C28   C40   S    
C51   O12   S    
C2    C7    A    
O45   P8    S    
O47   P7    S    
O19   P2    D    
Ba2   O5    S    
Ba1   O20   S    
C48   O43   S    
C32   O42   S    
