data_mof_unit_27896.cif
_audit_creation_date              2012-12-10T16:56:33-0500
_audit_creation_method            fapswitch 2.2
_symmetry_space_group_name_H-M    P1
_symmetry_Int_Tables_number       1
_space_group_crystal_system       triclinic
_cell_length_a                    10.75091
_cell_length_b                    10.928991
_cell_length_c                    9.682019
_cell_angle_alpha                 89.891157
_cell_angle_beta                  89.437223
_cell_angle_gamma                 89.9875
_cell_volume                      1137.54734885

loop_
_atom_site_label
_atom_site_type_symbol
_atom_type_description
_atom_site_fract_x
_atom_site_fract_y
_atom_site_fract_z
_atom_type_partial_charge
C1    C     C_R   0.497619 0.265333 0.500172 0.831131
C2    C     C_3   0.877537 0.490277 0.499018 0.110727
C3    C     C_3   0.929071 0.621764 0.508890 -0.402214
C4    C     C_3   0.928470 0.429340 0.365295 -0.393060
C5    C     C_2   0.490613 0.933212 0.386893 -0.160810
C6    C     C_2   0.506345 0.866748 0.501833 -0.331021
C7    C     C_2   0.496134 0.067199 0.386505 -0.166177
C8    C     C_2   0.489638 0.133419 0.502684 -0.330748
C9    C     C_2   0.451609 0.412505 0.923027 -0.082256
C10   C     C_2   0.445314 0.416065 0.078621 -0.091987
C11   C     C_R   0.260073 0.492274 0.501240 0.737519
C12   C     C_R   0.501005 0.734702 0.499965 0.857360
C13   C     C_R   0.739911 0.495450 0.499388 0.776990
C14   C     C_3   0.066191 0.410740 0.630248 -0.035068
C15   C     C_3   0.922514 0.414585 0.624791 -0.384394
C16   C     C_3   0.071991 0.619925 0.503495 -0.404627
C17   C     C_3   0.072853 0.425115 0.366587 -0.095957
C18   C     C_3   0.121774 0.486210 0.503692 0.108742
Cu1   Cu    Cu3+1 0.500030 0.500020 0.638630 0.918287
Cu2   Cu    Cu3+1 0.499970 0.499980 0.361370 0.923181
H1    H     H_    0.898210 0.482113 0.273052 0.165626
H2    H     H_    0.103680 0.667267 0.407433 0.159789
H3    H     H_    0.893489 0.678391 0.422087 0.161608
H4    H     H_    0.475567 0.888540 0.288312 0.163771
H5    H     H_    0.525966 0.907777 0.600839 0.144570
H6    H     H_    0.504462 0.112019 0.286580 0.160661
H7    H     H_    0.475524 0.092295 0.603340 0.144255
H8    H     H_    0.412433 0.332992 0.872812 0.143923
H9    H     H_    0.530540 0.576611 0.893552 0.192969
H10   H     H_    0.394433 0.343458 0.130590 0.157008
H11   H     H_    0.093274 0.313907 0.612600 0.103326
H12   H     H_    0.552662 0.563688 0.105149 0.191544
H13   H     H_    0.885502 0.319603 0.618227 0.131908
H14   H     H_    0.883547 0.454211 0.721711 0.189150
H15   H     H_    0.109987 0.675188 0.588738 0.156327
H16   H     H_    0.896664 0.665551 0.606430 0.160604
H17   H     H_    0.106294 0.482505 0.278644 0.177221
H18   H     H_    0.887569 0.336207 0.355800 0.163996
N1    N     N_2   0.498630 0.498660 0.846910 -0.279580
N2    N     N_2   0.498590 0.498630 0.153040 -0.280277
O1    O     O_R   0.500020 0.321960 0.617040 -0.586290
O2    O     O_R   0.499980 0.321920 0.382900 -0.578528
O3    O     O_R   0.317710 0.500000 0.617070 -0.579945
O4    O     O_R   0.317670 0.499960 0.382930 -0.581105
O5    O     O_R   0.500020 0.678080 0.617100 -0.584360
O6    O     O_R   0.499980 0.678040 0.382960 -0.573243
O7    O     O_R   0.682330 0.500040 0.617070 -0.582370
O8    O     O_R   0.682290 0.500000 0.382930 -0.582941
C19   C     C_3   0.111704 0.433140 0.781000 -0.374137
C20   C     C_3   0.104202 0.565452 0.834368 -0.291968
C21   C     C_3   0.113185 0.570152 0.991428 -0.912859
H19   H     H_    0.034141 0.519827 0.039595 0.243674
H20   H     H_    0.202277 0.529436 0.025778 0.264961
H21   H     H_    0.109467 0.666755 0.026541 0.245283
H22   H     H_    0.182730 0.619686 0.791455 0.233759
H23   H     H_    0.015083 0.608587 0.804523 0.212934
H24   H     H_    0.054302 0.373983 0.850374 0.181842
H25   H     H_    0.207301 0.397574 0.794291 0.203267
C22   C     C_3   0.121766 0.292862 0.340442 -0.405422
C23   C     C_3   0.110090 0.255754 0.188125 -0.359283
C24   C     C_3   0.161498 0.127397 0.163450 -0.865423
H26   H     H_    0.261606 0.123560 0.190531 0.251436
H27   H     H_    0.109302 0.059407 0.226711 0.256426
H28   H     H_    0.151849 0.103238 0.052727 0.234925
H29   H     H_    0.010948 0.258028 0.156870 0.219819
H30   H     H_    0.162734 0.320945 0.121735 0.214121
H31   H     H_    0.221119 0.285348 0.369321 0.204346
H32   H     H_    0.069359 0.225976 0.405106 0.197063

loop_
_geom_bond_atom_site_label_1
_geom_bond_atom_site_label_2
_ccdc_geom_bond_type
C17   C18   S    
C24   H28   S    
C2    C4    S    
Cu1   O5    S    
C11   C18   S    
C11   O3    A    
C2    C15   S    
C22   H32   S    
C13   O8    A    
C1    C8    S    
C20   H23   S    
C9    C10   S    
C14   C18   S    
C15   H14   S    
C3    H3    S    
C20   H22   S    
C9    N1    D    
C14   H11   S    
C21   H21   S    
H9    N1    S    
C24   H27   S    
C2    C3    S    
C23   H30   S    
C22   C23   S    
C17   H17   S    
C4    H1    S    
C7    H6    S    
Cu1   O1    S    
C24   H26   S    
C5    H4    S    
Cu1   N1    S    
C3    H16   S    
C17   C22   S    
C4    C17   S    
C16   C18   S    
Cu2   O4    S    
C4    H18   S    
C23   H29   S    
C20   C21   S    
C12   O5    A    
H12   N2    S    
C16   H15   S    
C6    C12   S    
C5    C6    D    
Cu2   N2    S    
Cu1   O7    S    
Cu2   O2    S    
C14   C19   S    
C19   H25   S    
C21   H19   S    
C6    H5    S    
C11   O4    A    
C1    O2    A    
C7    C8    D    
C19   H24   S    
C10   N2    D    
C19   C20   S    
C1    O1    A    
C5    C7    S    
C2    C13   S    
C10   H10   S    
C14   C15   S    
C8    H7    S    
C16   H2    S    
Cu2   O8    S    
C22   H31   S    
C13   O7    A    
C15   H13   S    
Cu2   O6    S    
C3    C16   S    
Cu1   Cu2   S    
C9    H8    S    
Cu1   O3    S    
C23   C24   S    
C21   H20   S    
C12   O6    A    
