data_mof_unit_59695.cif
_audit_creation_date              2012-12-11T14:41:59-0500
_audit_creation_method            fapswitch 2.2
_symmetry_space_group_name_H-M    P1
_symmetry_Int_Tables_number       1
_space_group_crystal_system       triclinic
_cell_length_a                    18.962956
_cell_length_b                    10.924226
_cell_length_c                    18.821804
_cell_angle_alpha                 89.989681
_cell_angle_beta                  90.436576
_cell_angle_gamma                 89.935746
_cell_volume                      3898.92671107

loop_
_atom_site_label
_atom_site_type_symbol
_atom_type_description
_atom_site_fract_x
_atom_site_fract_y
_atom_site_fract_z
_atom_type_partial_charge
C1    C     C_R   0.708779 0.002317 0.861030 0.558284
C2    C     C_R   0.291216 0.002374 0.138941 0.557720
C3    C     C_R   0.208779 0.502317 0.861030 0.558284
C4    C     C_R   0.791216 0.502374 0.138941 0.557720
C5    C     C_R   0.721061 0.532588 0.026468 -0.148847
C6    C     C_R   0.278750 0.532704 0.973565 -0.148910
C7    C     C_R   0.221061 0.032588 0.026468 -0.148847
C8    C     C_R   0.778751 0.032704 0.973565 -0.148910
C9    C     C_R   0.779481 0.482318 0.062948 0.008169
C10   C     C_R   0.220473 0.482297 0.937034 0.007359
C11   C     C_R   0.279481 0.982318 0.062948 0.008169
C12   C     C_R   0.720473 0.982297 0.937034 0.007359
C13   C     C_R   0.828421 0.411999 0.025947 -0.156063
C14   C     C_R   0.171632 0.411876 0.973997 -0.156072
C15   C     C_R   0.328421 0.911999 0.025947 -0.156063
C16   C     C_R   0.671632 0.911876 0.973997 -0.156072
C17   C     C_R   0.818227 0.387158 0.955106 -0.149831
C18   C     C_R   0.181799 0.387058 0.044846 -0.149767
C19   C     C_R   0.318227 0.887158 0.955106 -0.149831
C20   C     C_R   0.681799 0.887058 0.044846 -0.149767
C21   C     C_R   0.756172 0.424963 0.920076 0.016765
C22   C     C_R   0.243751 0.424959 0.079926 0.016948
C23   C     C_R   0.256172 0.924963 0.920076 0.016765
C24   C     C_R   0.743751 0.924959 0.079926 0.016948
C25   C     C_R   0.537702 0.272345 0.526403 -0.113067
C26   C     C_R   0.532231 0.266879 0.454020 -0.140095
C27   C     C_R   0.037702 0.772345 0.526403 -0.113067
C28   C     C_R   0.032231 0.766879 0.454020 -0.140095
C29   C     C_R   0.504154 0.162379 0.422622 0.025548
C30   C     C_R   0.518207 0.171190 0.567965 0.040261
C31   C     C_R   0.004154 0.662379 0.422622 0.025548
C32   C     C_R   0.018207 0.671190 0.567965 0.040261
C33   C     C_R   0.490193 0.057056 0.463136 -0.137874
C34   C     C_R   0.497166 0.061711 0.536198 -0.151624
C35   C     C_R   0.990193 0.557056 0.463136 -0.137874
C36   C     C_R   0.997166 0.561711 0.536198 -0.151624
C37   C     C_R   0.797142 0.327386 0.531461 -0.134355
C38   C     C_R   0.185540 0.403329 0.455537 -0.130507
C39   C     C_R   0.297142 0.827386 0.531461 -0.134355
C40   C     C_R   0.685540 0.903329 0.455537 -0.130507
C41   C     C_R   0.798500 0.337675 0.458888 -0.150255
C42   C     C_R   0.179326 0.413603 0.528041 -0.134890
C43   C     C_R   0.298500 0.837675 0.458888 -0.150255
C44   C     C_R   0.679326 0.913603 0.528041 -0.134890
C45   C     C_R   0.529032 0.177497 0.850349 0.552387
C46   C     C_R   0.470971 0.177446 0.149652 0.548536
C47   C     C_R   0.029032 0.677497 0.850349 0.552387
C48   C     C_R   0.970971 0.677446 0.149652 0.548536
C49   C     C_R   0.751856 0.416992 0.423895 0.010950
C50   C     C_R   0.239187 0.433278 0.571255 0.015000
C51   C     C_R   0.251856 0.916992 0.423895 0.010950
C52   C     C_R   0.739188 0.933278 0.571255 0.015000
C53   C     C_R   0.698331 0.477588 0.463019 -0.029211
C54   C     C_R   0.305978 0.446715 0.540017 -0.036101
C55   C     C_R   0.198331 0.977588 0.463019 -0.029211
C56   C     C_R   0.805978 0.946715 0.540017 -0.036101
C57   C     C_R   0.696799 0.464927 0.536553 -0.148666
C58   C     C_R   0.311842 0.435398 0.466688 -0.138693
C59   C     C_R   0.196799 0.964927 0.536553 -0.148666
C60   C     C_R   0.811842 0.935398 0.466688 -0.138693
C61   C     C_R   0.746800 0.391596 0.570980 0.017122
C62   C     C_R   0.251906 0.410068 0.424729 0.011934
C63   C     C_R   0.246800 0.891596 0.570980 0.017122
C64   C     C_R   0.751906 0.910068 0.424729 0.011934
C65   C     C_R   0.739311 0.366134 0.852158 0.537275
C66   C     C_R   0.260664 0.366111 0.147851 0.534585
C67   C     C_R   0.239311 0.866134 0.852158 0.537275
C68   C     C_R   0.760664 0.866111 0.147851 0.534585
C69   C     C_R   0.726439 0.958438 0.645946 0.556200
C70   C     C_R   0.271636 0.955002 0.352487 0.552861
C71   C     C_R   0.226439 0.458438 0.645946 0.556200
C72   C     C_R   0.771636 0.455002 0.352487 0.552861
C73   C     C_R   0.533154 0.176896 0.642599 0.552433
C74   C     C_R   0.471827 0.175202 0.354006 0.547644
C75   C     C_R   0.033154 0.676896 0.642599 0.552433
C76   C     C_R   0.971827 0.675202 0.354006 0.547644
C77   C     C_R   0.738634 0.359055 0.645041 0.546333
C78   C     C_R   0.260882 0.362967 0.353499 0.546656
C79   C     C_R   0.238634 0.859055 0.645041 0.546333
C80   C     C_R   0.760882 0.862967 0.353499 0.546656
C81   C     C_2   0.492449 0.167669 0.918536 0.301353
C82   C     C_2   0.507561 0.167567 0.081467 0.302119
C83   C     C_2   0.992449 0.667669 0.918536 0.301353
C84   C     C_2   0.007561 0.667566 0.081467 0.302119
C85   C     C_2   0.492236 0.072630 0.038201 -0.129854
C86   C     C_2   0.507812 0.072649 0.961796 -0.130534
C87   C     C_2   0.992236 0.572630 0.038201 -0.129854
C88   C     C_2   0.007812 0.572649 0.961796 -0.130534
C89   C     C_R   0.708553 0.501648 0.955326 -0.142056
C90   C     C_R   0.291253 0.501762 0.044719 -0.142131
C91   C     C_R   0.208553 0.001648 0.955326 -0.142056
C92   C     C_R   0.791253 0.001762 0.044719 -0.142131
Cr1   Cr    Cr6+3 0.769270 0.163730 0.750710 1.038905
Cr2   Cr    Cr6+3 0.230730 0.163730 0.249290 1.044277
Cr3   Cr    Cr6+3 0.269270 0.663730 0.750710 1.038905
Cr4   Cr    Cr6+3 0.730730 0.663730 0.249290 1.044277
Cr5   Cr    Cr6+3 0.612620 0.009790 0.748780 1.009488
Cr6   Cr    Cr6+3 0.387380 0.009790 0.251220 1.008743
Cr7   Cr    Cr6+3 0.112620 0.509790 0.748780 1.009488
Cr8   Cr    Cr6+3 0.887380 0.509790 0.251220 1.008743
Cr9   Cr    Cr6+3 0.614160 0.322500 0.747710 1.046186
Cr10  Cr    Cr6+3 0.385840 0.322500 0.252290 1.036758
Cr11  Cr    Cr6+3 0.114160 0.822500 0.747710 1.046186
Cr12  Cr    Cr6+3 0.885840 0.822500 0.252290 1.036758
H1    H     H_    0.467387 0.991683 0.059379 0.085504
H2    H     H_    0.532694 0.991657 0.940612 0.085467
H3    H     H_    0.967387 0.491684 0.059379 0.085504
H4    H     H_    0.032694 0.491657 0.940612 0.085467
H5    H     H_    0.839085 0.287969 0.430663 0.142075
H6    H     H_    0.126840 0.407458 0.550049 0.149217
H7    H     H_    0.339085 0.787968 0.430663 0.142075
H8    H     H_    0.626841 0.907458 0.550049 0.149217
H9    H     H_    0.656047 0.510624 0.566821 0.128961
H10   H     H_    0.363795 0.439046 0.443059 0.146443
H11   H     H_    0.156047 0.010624 0.566821 0.128961
H12   H     H_    0.863795 0.939046 0.443059 0.146443
H13   H     H_    0.660736 0.532834 0.929200 0.146168
H14   H     H_    0.338982 0.533039 0.070890 0.145926
H15   H     H_    0.160736 0.032834 0.929200 0.146168
H16   H     H_    0.838982 0.033039 0.070890 0.145926
H17   H     H_    0.683351 0.589976 0.053721 0.145319
H18   H     H_    0.316370 0.590185 0.946341 0.145750
H19   H     H_    0.183351 0.089976 0.053721 0.145319
H20   H     H_    0.816370 0.090185 0.946341 0.145750
H21   H     H_    0.873556 0.371261 0.052246 0.132692
H22   H     H_    0.126602 0.371035 0.947668 0.132898
H23   H     H_    0.373556 0.871261 0.052246 0.132692
H24   H     H_    0.626602 0.871035 0.947668 0.132898
H25   H     H_    0.857113 0.329685 0.929578 0.140138
H26   H     H_    0.142990 0.329511 0.070337 0.139842
H27   H     H_    0.357113 0.829685 0.929578 0.140138
H28   H     H_    0.642991 0.829511 0.070337 0.139842
H29   H     H_    0.557404 0.356393 0.549591 0.152774
H30   H     H_    0.544320 0.347839 0.423184 0.145560
H31   H     H_    0.057404 0.856393 0.549591 0.152774
H32   H     H_    0.044320 0.847839 0.423184 0.145560
H33   H     H_    0.468844 0.974697 0.439240 0.143449
H34   H     H_    0.484943 0.981588 0.567715 0.126581
H35   H     H_    0.968844 0.474697 0.439240 0.143449
H36   H     H_    0.984943 0.481588 0.567715 0.126581
H37   H     H_    0.834875 0.265864 0.556194 0.151837
H38   H     H_    0.138789 0.384345 0.423952 0.151130
H39   H     H_    0.334875 0.765864 0.556194 0.151837
H40   H     H_    0.638789 0.884345 0.423952 0.151130
O1    O     O_R   0.784320 0.290430 0.830510 -0.535543
O2    O     O_R   0.215680 0.290430 0.169490 -0.537277
O3    O     O_R   0.284320 0.790430 0.830510 -0.535543
O4    O     O_R   0.715680 0.790430 0.169490 -0.537277
O5    O     O_R   0.554640 0.080370 0.673500 -0.510459
O6    O     O_R   0.445360 0.080370 0.326500 -0.506312
O7    O     O_R   0.054640 0.580370 0.673500 -0.510459
O8    O     O_R   0.945360 0.580370 0.326500 -0.506312
O9    O     O_R   0.543920 0.282180 0.666790 -0.506122
O10   O     O_R   0.456080 0.282180 0.333210 -0.519174
O11   O     O_R   0.043920 0.782180 0.666790 -0.506122
O12   O     O_R   0.956080 0.782180 0.333210 -0.519174
O13   O     O_R   0.679040 0.374160 0.674430 -0.507403
O14   O     O_R   0.320960 0.374160 0.325570 -0.507065
O15   O     O_R   0.179040 0.874160 0.674430 -0.507403
O16   O     O_R   0.820960 0.874160 0.325570 -0.507065
O17   O     O_3   0.665350 0.165340 0.749070 -0.276498
O18   O     O_3   0.334650 0.165340 0.250930 -0.270056
O19   O     O_3   0.165350 0.665340 0.749070 -0.276498
O20   O     O_3   0.834650 0.665340 0.250930 -0.270056
O21   O     O_R   0.762640 0.040960 0.825200 -0.494690
O22   O     O_R   0.237360 0.040960 0.174800 -0.499107
O23   O     O_R   0.262640 0.540960 0.825200 -0.494690
O24   O     O_R   0.737360 0.540960 0.174800 -0.499107
O25   O     O_R   0.667400 0.923970 0.829950 -0.517107
O26   O     O_R   0.332600 0.923970 0.170050 -0.519649
O27   O     O_R   0.167400 0.423970 0.829950 -0.517107
O28   O     O_R   0.832600 0.423970 0.170050 -0.519649
O29   O     O_R   0.553960 0.081340 0.821780 -0.552652
O30   O     O_R   0.446040 0.081340 0.178220 -0.554144
O31   O     O_R   0.053960 0.581340 0.821780 -0.552652
O32   O     O_R   0.946040 0.581340 0.178220 -0.554144
O33   O     O_R   0.543180 0.283240 0.826740 -0.467497
O34   O     O_R   0.456820 0.283240 0.173260 -0.472102
O35   O     O_R   0.043180 0.783240 0.826740 -0.467497
O36   O     O_R   0.956820 0.783240 0.173260 -0.472102
O37   O     O_R   0.678360 0.375140 0.822710 -0.497568
O38   O     O_R   0.321640 0.375140 0.177290 -0.498671
O39   O     O_R   0.178360 0.875140 0.822710 -0.497568
O40   O     O_R   0.821640 0.875140 0.177290 -0.498671
O41   O     O_R   0.785050 0.289380 0.670560 -0.519369
O42   O     O_R   0.214950 0.289380 0.329440 -0.499220
O43   O     O_R   0.285050 0.789380 0.670560 -0.519369
O44   O     O_R   0.714950 0.789380 0.329440 -0.499220
O45   O     O_R   0.763320 0.039990 0.676930 -0.481859
O46   O     O_R   0.236680 0.039990 0.323070 -0.479166
O47   O     O_R   0.263320 0.539990 0.676930 -0.481859
O48   O     O_R   0.736680 0.539990 0.323070 -0.479166
O49   O     O_R   0.668130 0.922920 0.670000 -0.519906
O50   O     O_R   0.331870 0.922920 0.330000 -0.520301
O51   O     O_R   0.168130 0.422920 0.670000 -0.519906
O52   O     O_R   0.831870 0.422920 0.330000 -0.520301
C93   C     C_1   0.644648 0.553444 0.430381 0.210288
N1    N     N_1   0.601407 0.614001 0.404514 -0.305027
C94   C     C_1   0.369235 0.466752 0.581657 0.200581
N2    N     N_1   0.419954 0.482839 0.614928 -0.290085
C95   C     C_1   0.144648 0.053444 0.430381 0.210288
N3    N     N_1   0.101407 0.114001 0.404514 -0.305027
C96   C     C_1   0.869235 0.966752 0.581657 0.200581
N4    N     N_1   0.919954 0.982839 0.614928 -0.290085
O53   O     O_3   0.546185 0.266631 0.057609 -0.514080
C97   C     C_3   0.618259 0.238649 0.066785 -0.104356
H41   H     H_    0.634288 0.160125 0.032932 0.121914
H42   H     H_    0.631369 0.220070 0.123561 0.111444
H43   H     H_    0.649655 0.318590 0.050021 0.165234
O54   O     O_3   0.453748 0.266782 0.942384 -0.513834
C98   C     C_3   0.381696 0.238861 0.933263 -0.102309
H44   H     H_    0.365764 0.160323 0.967122 0.121295
H45   H     H_    0.368564 0.220347 0.876494 0.115270
H46   H     H_    0.350234 0.318808 0.950057 0.165456
O55   O     O_3   0.046185 0.766631 0.057609 -0.514080
C99   C     C_3   0.118259 0.738649 0.066785 -0.104356
H47   H     H_    0.134288 0.660125 0.032932 0.121914
H48   H     H_    0.131369 0.720070 0.123561 0.111444
H49   H     H_    0.149655 0.818590 0.050021 0.165234
O56   O     O_3   0.953748 0.766782 0.942384 -0.513834
C100  C     C_3   0.881695 0.738861 0.933263 -0.102308
H50   H     H_    0.865764 0.660323 0.967122 0.121295
H51   H     H_    0.868564 0.720347 0.876495 0.115270
H52   H     H_    0.850234 0.818808 0.950057 0.165456

loop_
_geom_bond_atom_site_label_1
_geom_bond_atom_site_label_2
_ccdc_geom_bond_type
Cr2   O2    S    
C96   N4    T    
C49   C53   A    
C58   C62   A    
C83   O56   S    
C55   C59   A    
Cr8   O28   S    
C77   O41   A    
C95   N3    T    
C14   C18   A    
C19   C23   A    
C35   C36   A    
C84   C87   D    
C87   C88   S    
C3    O27   A    
Cr2   O22   S    
C32   C75   S    
C31   C76   S    
C3    O23   A    
C56   C96   S    
C21   C89   A    
O53   C97   S    
Cr8   O8    S    
C91   H15   S    
C7    C11   A    
C74   O10   A    
C50   C54   A    
C37   H37   S    
Cr11  O39   S    
C32   C36   A    
C27   C28   A    
C56   C60   A    
C99   H48   S    
C38   C42   A    
C100  H52   S    
Cr3   O19   S    
C79   O15   A    
Cr6   O30   S    
C97   H42   S    
C80   O16   A    
Cr7   O27   S    
C76   O8    A    
C23   C67   S    
C55   C95   S    
Cr7   O51   S    
C67   O39   A    
Cr5   O25   S    
Cr6   O50   S    
Cr5   O49   S    
C46   O34   A    
C22   C66   S    
C9    C13   A    
C52   C69   S    
C35   H35   S    
C69   O49   A    
C46   C82   S    
C80   O44   A    
C11   C15   A    
C78   O14   A    
C12   C16   A    
C29   C33   A    
C61   C77   S    
C49   C72   S    
Cr8   O32   S    
C47   O35   A    
C46   O30   A    
Cr1   O1    S    
C78   O42   A    
C51   C70   S    
C47   C83   S    
C8    C12   A    
C25   H29   S    
Cr10  O10   S    
C51   C55   A    
C81   C86   D    
C68   O4    A    
C84   O55   S    
C70   O50   A    
C13   H21   S    
C44   C52   A    
C81   O54   S    
C66   O38   A    
Cr1   O21   S    
C94   N2    T    
C41   H5    S    
C37   C41   A    
C38   H38   S    
Cr10  O14   S    
C86   H2    S    
C1    C12   S    
C43   H7    S    
Cr12  O16   S    
C64   C80   S    
C2    C11   S    
C24   C92   A    
C41   C49   A    
O56   C100  S    
Cr6   O18   S    
Cr8   O52   S    
C19   H27   S    
Cr4   O4    S    
Cr5   O29   S    
C30   C34   A    
Cr3   O43   S    
Cr10  O38   S    
C20   C24   A    
Cr3   O3    S    
C99   H47   S    
C10   C14   A    
C33   H33   S    
Cr7   O19   S    
C30   C73   S    
C53   C57   A    
C97   H41   S    
C8    H20   S    
C65   O37   A    
C29   C74   S    
C85   H1    S    
C28   H32   S    
C25   C26   A    
C6    C90   A    
C17   H25   S    
C76   O12   A    
C17   C21   A    
C54   C94   S    
Cr4   O20   S    
C20   H28   S    
C15   C19   A    
O55   C99   S    
Cr2   O46   S    
C5    C9    A    
C100  H50   S    
C26   H30   S    
C45   O29   A    
C36   H36   S    
C71   O51   A    
C98   H44   S    
Cr9   O9    S    
C16   C20   A    
C7    C91   A    
C98   H46   S    
Cr4   O24   S    
C33   C34   A    
C22   C90   A    
C87   H3    S    
Cr8   O20   S    
C50   C71   S    
Cr12  O12   S    
C16   H24   S    
C77   O13   A    
C85   C86   S    
C79   O43   A    
C42   C50   A    
C8    C92   A    
C44   H8    S    
Cr11  O11   S    
Cr12  O40   S    
C2    O26   A    
Cr1   O17   S    
C89   H13   S    
Cr5   O17   S    
C40   H40   S    
C67   O3    A    
Cr10  O34   S    
C23   C91   A    
C18   H26   S    
C6    H18   S    
C65   O1    A    
C90   H14   S    
C48   O36   A    
Cr9   O37   S    
Cr10  O18   S    
C70   O46   A    
C73   O9    A    
Cr6   O6    S    
C25   C30   A    
C98   H45   S    
C2    O22   A    
C68   O40   A    
C5    H17   S    
Cr1   O45   S    
C4    O28   A    
C21   C65   S    
C27   C32   A    
C18   C22   A    
C4    O24   A    
C59   C63   A    
C62   C78   S    
C28   C31   A    
C45   C81   S    
Cr2   O42   S    
C39   H39   S    
C69   O45   A    
Cr3   O23   S    
C72   O52   A    
C57   H9    S    
C75   O11   A    
C57   C61   A    
C63   C79   S    
Cr3   O47   S    
C82   C85   D    
C39   C63   A    
Cr11  O19   S    
C14   H22   S    
C13   C17   A    
C60   C64   A    
C99   H49   S    
C27   H31   S    
Cr4   O48   S    
Cr9   O17   S    
C42   H6    S    
C53   C93   S    
C100  H51   S    
C3    C10   S    
C45   O33   A    
C97   H43   S    
Cr11  O15   S    
Cr12  O20   S    
Cr12  O36   S    
Cr7   O7    S    
C43   C51   A    
C88   H4    S    
C40   C64   A    
C31   C35   A    
C1    O25   A    
C34   H34   S    
C83   C88   D    
Cr11  O35   S    
C82   O53   S    
C92   H16   S    
C93   N1    T    
C47   O31   A    
C66   O2    A    
C60   H12   S    
C6    C10   A    
C24   C68   S    
Cr9   O13   S    
Cr6   O26   S    
C48   C84   S    
C40   C44   A    
C37   C61   A    
Cr7   O31   S    
C1    O21   A    
C39   C43   A    
C26   C29   A    
C59   H11   S    
O54   C98   S    
C73   O5    A    
C54   C58   A    
C75   O7    A    
C58   H10   S    
Cr5   O5    S    
C74   O6    A    
C15   H23   S    
C71   O47   A    
C4    C9    S    
Cr4   O44   S    
C72   O48   A    
Cr9   O33   S    
C5    C89   A    
Cr2   O18   S    
C52   C56   A    
C7    H19   S    
C48   O32   A    
C38   C62   A    
Cr1   O41   S    
