data_mof_unit_36911.cif
_audit_creation_date              2013-03-05T16:33:13-0500
_audit_creation_method            fapswitch 2.2
_symmetry_space_group_name_H-M    P1
_symmetry_Int_Tables_number       1
_space_group_crystal_system       triclinic
_cell_length_a                    27.789783
_cell_length_b                    10.859208
_cell_length_c                    9.531165
_cell_angle_alpha                 89.989076
_cell_angle_beta                  90.078237
_cell_angle_gamma                 90.155967
_cell_volume                      2876.25425235

loop_
_atom_site_label
_atom_site_type_symbol
_atom_site_description
_atom_site_fract_x
_atom_site_fract_y
_atom_site_fract_z
_atom_type_partial_charge
O1    O     O_R   0.500000 0.319640 0.618810 -0.586669
O2    O     O_R   0.500010 0.319680 0.381230 -0.593170
C1    C     C_R   0.500041 0.262654 0.499855 0.800350
O3    O     O_R   0.430260 0.500000 0.618780 -0.535801
O4    O     O_R   0.430270 0.500040 0.381190 -0.587701
C2    C     C_R   0.407531 0.501158 0.499936 0.822606
Cu1   Cu    Cu3+1 0.500000 0.499980 0.640670 0.970357
Cu2   Cu    Cu3+1 0.500000 0.500020 0.359330 0.946326
O5    O     O_R   0.499990 0.680320 0.618770 -0.575052
O6    O     O_R   0.500000 0.680360 0.381190 -0.588507
O7    O     O_R   0.569730 0.499960 0.618810 -0.577816
O8    O     O_R   0.569740 0.500000 0.381220 -0.581093
C3    C     C_R   0.500142 0.737322 0.499833 0.806846
C4    C     C_R   0.592254 0.501337 0.500021 0.811753
C5    C     C_R   0.177858 0.447388 0.605972 0.545170
O9    O     O_2   0.202812 0.393454 0.710798 -0.537304
N1    N     N_R   0.201834 0.501463 0.496540 -0.453579
C6    C     C_R   0.177306 0.553944 0.387174 0.542600
C7    C     C_R   0.278611 0.561650 0.606184 -0.179559
C8    C     C_R   0.328954 0.563376 0.607867 0.457630
C9    C     C_R   0.329402 0.447870 0.389079 -0.290537
C10   C     C_R   0.279269 0.446877 0.388234 -0.094524
C11   C     C_R   0.253585 0.503493 0.496818 0.272328
C12   C     C_R   0.101449 0.499307 0.497430 -0.045686
C13   C     C_R   0.127354 0.446824 0.609346 -0.024362
C14   C     C_R   0.102419 0.393873 0.721384 -0.144833
C15   C     C_R   0.126783 0.552307 0.384684 -0.023991
C16   C     C_R   0.354668 0.504111 0.499538 -0.142925
H1    H     H_    0.348474 0.402449 0.304688 0.177544
H2    H     H_    0.260315 0.401064 0.303634 0.167699
H3    H     H_    0.121460 0.350647 0.807516 0.188665
C17   C     C_R   0.644812 0.505612 0.499947 -0.083672
C18   C     C_R   0.974284 0.459146 0.621210 0.034168
C19   C     C_R   0.973666 0.539170 0.379260 0.045315
C20   C     C_R   0.948586 0.499228 0.501143 0.071713
C21   C     C_R   0.948117 0.430182 0.743656 -0.246845
C22   C     C_R   0.897985 0.432803 0.746988 -0.020978
C23   C     C_R   0.871702 0.465690 0.625289 -0.064204
C24   C     C_R   0.897363 0.499636 0.502709 -0.051603
C25   C     C_R   0.871780 0.534389 0.381027 -0.013987
C26   C     C_R   0.821415 0.534725 0.382604 0.552560
N2    N     N_R   0.797168 0.502127 0.501221 -0.467849
C27   C     C_R   0.820709 0.467480 0.620803 0.545462
C28   C     C_R   0.720059 0.405600 0.444176 -0.089187
C29   C     C_R   0.670011 0.405936 0.443450 -0.227831
C30   C     C_R   0.669999 0.608067 0.554371 -0.095873
C31   C     C_R   0.720707 0.607402 0.555191 -0.024147
C32   C     C_R   0.745545 0.505203 0.500590 0.299993
O10   O     O_2   0.794520 0.434827 0.733929 -0.513997
C33   C     C_R   0.025319 0.451197 0.616303 0.048092
C34   C     C_R   0.050305 0.498912 0.498339 0.069868
C35   C     C_R   0.024722 0.546360 0.381362 0.041773
C36   C     C_R   0.052455 0.395859 0.725058 -0.207275
H4    H     H_    0.650819 0.327596 0.400301 0.151839
H5    H     H_    0.739218 0.327460 0.401432 0.153557
H6    H     H_    0.965999 0.408486 0.841057 0.135731
H7    H     H_    0.036144 0.349929 0.813266 0.144460
O11   O     O_2   0.201709 0.608695 0.281774 -0.537119
C37   C     C_R   0.101272 0.603742 0.272839 -0.143730
H8    H     H_    0.258933 0.606173 0.689973 0.170682
H9    H     H_    0.119866 0.646700 0.185694 0.188619
C38   C     C_R   0.946671 0.569928 0.258584 -0.210762
C39   C     C_R   0.896807 0.567820 0.259866 -0.125677
O12   O     O_2   0.796700 0.568037 0.266663 -0.517353
C40   C     C_R   0.051291 0.600725 0.270789 -0.207359
H10   H     H_    0.963012 0.593490 0.159704 0.138985
H11   H     H_    0.877882 0.592942 0.164654 0.194649
H12   H     H_    0.034519 0.645083 0.182320 0.143012
C41   C     C_R   0.498995 0.061911 0.621133 0.136442
C42   C     C_R   0.500365 0.130039 0.498136 -0.102128
C43   C     C_R   0.502141 0.064568 0.370245 -0.214935
H13   H     H_    0.503392 0.112355 0.270549 0.167108
C44   C     C_R   0.502233 0.935407 0.370260 -0.210929
H14   H     H_    0.503559 0.887655 0.270573 0.166864
C45   C     C_R   0.500531 0.869890 0.498162 -0.097936
C46   C     C_R   0.499143 0.937943 0.621169 0.143757
C47   C     C_3   0.496662 0.929052 0.776975 -0.461527
C48   C     C_3   0.496396 0.070867 0.776892 -0.475258
H15   H     H_    0.462338 0.887441 0.813631 0.190626
H16   H     H_    0.529859 0.889035 0.823015 0.208167
H17   H     H_    0.461828 0.110998 0.813148 0.189334
H18   H     H_    0.529394 0.112553 0.822999 0.211451
C49   C     C_R   0.523339 0.590807 0.073871 0.246756
N3    N     N_R   0.500300 0.500930 0.147930 -0.185694
C50   C     C_R   0.473148 0.417626 0.074378 -0.067753
H19   H     H_    0.452173 0.349450 0.130270 0.134937
C51   C     C_R   0.473143 0.417637 0.925371 -0.042110
H20   H     H_    0.452131 0.349576 0.869326 0.136700
N4    N     N_R   0.500310 0.500890 0.852020 -0.184923
C52   C     C_R   0.523350 0.590835 0.926397 0.246966
C53   C     C_3   0.575779 0.620311 0.921385 -0.482517
C54   C     C_3   0.575687 0.620386 0.080490 -0.483237
H21   H     H_    0.597708 0.544668 0.876175 0.230062
H22   H     H_    0.582778 0.712812 0.876327 0.209359
H23   H     H_    0.597529 0.544583 0.125908 0.231911
H24   H     H_    0.582516 0.712850 0.126553 0.199016
C55   C     C_1   0.643999 0.715723 0.602141 0.236992
N5    N     N_1   0.623309 0.802086 0.639320 -0.297478
C56   C     C_1   0.747568 0.711216 0.610043 0.292038
N6    N     N_1   0.769093 0.794113 0.653875 -0.249245
C57   C     C_1   0.875402 0.401666 0.879124 0.336030
N7    N     N_1   0.857547 0.376633 0.985032 -0.231592
O13   O     O_3   0.352626 0.619247 0.718563 -0.557399
C58   C     C_3   0.360113 0.744189 0.684525 -0.281954
H25   H     H_    0.325377 0.793081 0.668454 0.158017
H26   H     H_    0.383430 0.754258 0.590278 0.140901
H27   H     H_    0.378910 0.789326 0.773509 0.185381

loop_
_geom_bond_atom_site_label_1
_geom_bond_atom_site_label_2
_geom_bond_distance
_ccdc_geom_bond_type
C51   H20   1.081430 S    
C26   N2    1.363133 A    
C57   N7    1.157394 T    
C17   C29   1.399044 A    
C20   C24   1.423571 A    
C7    C8    1.399152 A    
C48   H17   1.111482 S    
C12   C15   1.407587 A    
C54   H24   1.111684 S    
C58   H26   1.113509 S    
C55   N5    1.157291 T    
Cu1   Cu2   2.681497 S    
C8    O13   1.382101 S    
C47   C48   1.540047 S    
Cu1   O7    1.949234 S    
C49   C54   1.490166 S    
N1    C11   1.438246 S    
C25   C39   1.396329 A    
C49   N3    1.363199 A    
C21   C22   1.393934 A    
C23   C24   1.417785 A    
O7    C4    1.294516 A    
C5    C13   1.403912 A    
C5    O9    1.349902 S    
Cu1   N4    2.014445 S    
C19   C38   1.412839 A    
C18   C21   1.410896 A    
C31   C56   1.447759 S    
C41   C46   1.346208 A    
Cu1   O5    1.969402 S    
C19   C20   1.422602 A    
C44   H14   1.083223 S    
O5    C3    1.291502 A    
N3    C50   1.369015 A    
C6    O11   1.349835 S    
C2    C16   1.469483 S    
C31   C32   1.408643 A    
C42   C43   1.412244 A    
C12   C34   1.421316 A    
C50   C51   1.420216 A    
C14   H3    1.083646 S    
Cu2   N3    2.014940 S    
C9    C10   1.393215 A    
C44   C45   1.412152 A    
C41   C48   1.489631 S    
O3    Cu1   1.948977 S    
C58   H25   1.113336 S    
C33   C34   1.419399 A    
C47   H15   1.111115 S    
C39   H11   1.083487 S    
C37   H9    1.083615 S    
C33   C36   1.415749 A    
C38   H10   1.077182 S    
C34   C35   1.419010 A    
C3    C45   1.439679 S    
C1    C42   1.440244 S    
C12   C13   1.407393 A    
O3    C2    1.296245 A    
C53   C54   1.516463 S    
C43   C44   1.402595 A    
C36   H7    1.077356 S    
C27   O10   1.348539 S    
C8    C16   1.412678 A    
C18   C33   1.421948 A    
C50   H19   1.081669 S    
C9    H1    1.083464 S    
C54   H23   1.111434 S    
O1    C1    1.291767 A    
C7    C11   1.401777 A    
C45   C46   1.386629 A    
C22   C23   1.416130 A    
C21   H6    1.078681 S    
C53   H21   1.111483 S    
C48   H18   1.111596 S    
C56   N6    1.157244 T    
Cu2   O8    1.948972 S    
C40   H12   1.077161 S    
C38   C39   1.385893 A    
N1    C6    1.369653 A    
N2    C32   1.435062 S    
C46   C47   1.489813 S    
C25   C26   1.399759 A    
C30   C55   1.449759 S    
O8    C4    1.292986 A    
C29   H4    1.083678 S    
C51   N4    1.368776 A    
N2    C27   1.366639 A    
C14   C36   1.389207 A    
C24   C25   1.411382 A    
C28   C29   1.390846 A    
C47   H16   1.110625 S    
C5    N1    1.369745 A    
C49   C52   1.405601 A    
C30   C31   1.409211 A    
C10   H2    1.082901 S    
O1    Cu1   1.969441 S    
C17   C30   1.411318 A    
C9    C16   1.403678 A    
O2    Cu2   1.969404 S    
C6    C15   1.404231 A    
C4    C17   1.461182 S    
O6    C3    1.289028 A    
O4    Cu2   1.949237 S    
C7    H8    1.083217 S    
C19   C35   1.420895 A    
O2    C1    1.289012 A    
C13   C14   1.396676 A    
C43   H13   1.083158 S    
C15   C37   1.396727 A    
C37   C40   1.389364 A    
C53   H22   1.109171 S    
C22   C57   1.447461 S    
C28   H5    1.082880 S    
C52   C53   1.491717 S    
O4    C2    1.297071 A    
C18   C20   1.417154 A    
C41   C42   1.386621 A    
C23   C27   1.417863 A    
Cu2   O6    1.969440 S    
O13   C58   1.409912 S    
C10   C11   1.401125 A    
C26   O12   1.350134 S    
N4    C52   1.364589 A    
C58   H27   1.109038 S    
C35   C40   1.415580 A    
C28   C32   1.398452 A    
