data_mof_unit_12380.cif
_audit_creation_date              2012-12-11T17:01:21-0500
_audit_creation_method            fapswitch 2.2
_symmetry_space_group_name_H-M    P1
_symmetry_Int_Tables_number       1
_space_group_crystal_system       triclinic
_cell_length_a                    19.391858
_cell_length_b                    7.106829
_cell_length_c                    17.600907
_cell_angle_alpha                 89.999829
_cell_angle_beta                  108.538516
_cell_angle_gamma                 89.999598
_cell_volume                      2299.79500943

loop_
_atom_site_label
_atom_site_type_symbol
_atom_type_description
_atom_site_fract_x
_atom_site_fract_y
_atom_site_fract_z
_atom_type_partial_charge
O1    O     O_R   0.413720 0.494330 0.415730 -0.534788
O2    O     O_R   0.586280 0.994330 0.584270 -0.534786
O3    O     O_R   0.560210 0.819300 0.430070 -0.543761
O4    O     O_R   0.439790 0.319300 0.569930 -0.543760
C1    C     C_R   0.581394 0.655296 0.414355 0.716778
C2    C     C_R   0.418606 0.155297 0.585645 0.716776
O5    O     O_R   0.412670 0.823730 0.406310 -0.543874
O6    O     O_R   0.587330 0.323730 0.593690 -0.543878
O7    O     O_R   0.437690 0.998790 0.560340 -0.539351
O8    O     O_R   0.562310 0.498790 0.439660 -0.539353
C3    C     C_R   0.385342 0.655170 0.383482 0.691408
C4    C     C_R   0.614658 0.155169 0.616518 0.691408
O9    O     O_3   0.508380 0.662350 0.550560 -0.375454
O10   O     O_3   0.491620 0.162350 0.449440 -0.375455
V1    V     V_3+5 0.498450 0.935370 0.490620 1.387026
V2    V     V_3+5 0.501550 0.435370 0.509380 1.387022
C5    C     C_R   0.731142 0.990788 0.693331 0.110258
C6    C     C_R   0.268843 0.490832 0.306689 0.110220
C7    C     C_R   0.684882 0.147009 0.682713 -0.111583
C8    C     C_R   0.315118 0.647013 0.317286 -0.111573
C9    C     C_R   0.709522 0.300039 0.735264 -0.185018
C10   C     C_R   0.290491 0.800015 0.264717 -0.184982
C11   C     C_R   0.775026 0.288948 0.799621 -0.178878
C12   C     C_R   0.224988 0.788921 0.200358 -0.178853
H1    H     H_    0.790204 0.406161 0.840760 0.134494
H2    H     H_    0.209820 0.906106 0.159204 0.134462
C13   C     C_R   0.817872 0.124079 0.813698 -0.109775
C14   C     C_R   0.182129 0.624078 0.186300 -0.109768
C15   C     C_R   0.795750 0.979424 0.757116 0.110393
C16   C     C_R   0.204236 0.479467 0.242904 0.110350
C17   C     C_3   0.785343 0.775086 0.768988 -0.419507
C18   C     C_3   0.214618 0.275101 0.231071 -0.419446
C19   C     C_3   0.715006 0.787364 0.699251 -0.403911
C20   C     C_3   0.284955 0.287382 0.300808 -0.403865
H3    H     H_    0.776603 0.745704 0.827304 0.167467
H4    H     H_    0.223355 0.245626 0.172762 0.167468
H5    H     H_    0.827531 0.687186 0.755715 0.178714
H6    H     H_    0.172418 0.187280 0.244358 0.178707
H7    H     H_    0.665533 0.764635 0.717097 0.171791
H8    H     H_    0.334426 0.264561 0.282971 0.171796
H9    H     H_    0.716688 0.706843 0.645713 0.171713
H10   H     H_    0.283261 0.206941 0.354361 0.171700
C21   C     C_R   0.325691 0.988288 0.633114 -0.220147
C22   C     C_R   0.674304 0.488282 0.366880 -0.220148
C23   C     C_R   0.369601 0.147361 0.635442 -0.084244
C24   C     C_R   0.630398 0.647360 0.364557 -0.084242
C25   C     C_R   0.365482 0.300791 0.684501 -0.222668
C26   C     C_R   0.634522 0.800797 0.315504 -0.222670
C27   C     C_R   0.318529 0.296000 0.730914 0.089797
C28   C     C_R   0.681473 0.796004 0.269090 0.089795
C29   C     C_R   0.273996 0.137106 0.727349 0.054785
C30   C     C_R   0.726003 0.637106 0.272650 0.054792
C31   C     C_R   0.277462 0.982981 0.678083 0.089878
C32   C     C_R   0.722535 0.482978 0.321913 0.089876
C33   C     C_R   0.315236 0.447511 0.780805 -0.186832
C34   C     C_R   0.684767 0.947515 0.219200 -0.186837
C35   C     C_R   0.267614 0.442809 0.826120 -0.190637
C36   C     C_R   0.732390 0.942813 0.173885 -0.190644
C37   C     C_R   0.222437 0.286472 0.822384 0.089367
C38   C     C_R   0.777566 0.786477 0.177620 0.089365
C39   C     C_R   0.225863 0.132415 0.773077 0.054761
C40   C     C_R   0.774136 0.632414 0.226923 0.054768
C41   C     C_R   0.181291 0.973596 0.769468 0.088276
C42   C     C_R   0.818705 0.473589 0.230526 0.088274
C43   C     C_R   0.184592 0.822069 0.719582 -0.186068
C44   C     C_R   0.815404 0.322064 0.280413 -0.186075
C45   C     C_R   0.232272 0.826673 0.674331 -0.189830
C46   C     C_R   0.767725 0.326671 0.325665 -0.189836
C47   C     C_R   0.174264 0.281106 0.867414 -0.219916
C48   C     C_R   0.825742 0.781115 0.132593 -0.219920
C49   C     C_R   0.130241 0.122171 0.865018 -0.081558
C50   C     C_R   0.869759 0.622172 0.134982 -0.081557
C51   C     C_R   0.134289 0.968873 0.815829 -0.220898
C52   C     C_R   0.865705 0.468863 0.184163 -0.220900
H11   H     H_    0.399258 0.423729 0.687075 0.128110
H12   H     H_    0.600751 0.923743 0.312937 0.128112
H13   H     H_    0.349264 0.570326 0.784484 0.134680
H14   H     H_    0.650739 0.070329 0.215522 0.134683
H15   H     H_    0.265888 0.562057 0.863846 0.132976
H16   H     H_    0.734116 0.062061 0.136161 0.132981
H17   H     H_    0.172040 0.399458 0.905435 0.126231
H18   H     H_    0.827972 0.899477 0.094581 0.126234
H19   H     H_    0.100439 0.846022 0.813096 0.130498
H20   H     H_    0.899549 0.346003 0.186888 0.130499
H21   H     H_    0.150541 0.699288 0.715876 0.135370
H22   H     H_    0.849455 0.199284 0.284118 0.135373
H23   H     H_    0.234017 0.707395 0.636628 0.133463
H24   H     H_    0.765981 0.207397 0.363368 0.133468
O11   O     O_R   0.937800 0.775460 0.060470 -0.537556
O12   O     O_R   0.062200 0.275460 0.939530 -0.537555
O13   O     O_R   0.087350 0.441340 0.093710 -0.539221
O14   O     O_R   0.912650 0.941340 0.906290 -0.539219
C53   C     C_R   0.114840 0.610355 0.116304 0.690425
C54   C     C_R   0.885161 0.110356 0.883696 0.690427
O15   O     O_R   0.939820 0.446010 0.069950 -0.543803
O16   O     O_R   0.060180 0.946010 0.930050 -0.543803
O17   O     O_R   0.913690 0.271230 0.915700 -0.538742
O18   O     O_R   0.086310 0.771230 0.084300 -0.538738
C55   C     C_R   0.918802 0.614364 0.085150 0.703493
C56   C     C_R   0.081198 0.114364 0.914850 0.703491
O19   O     O_3   0.991670 0.603050 0.949510 -0.373253
O20   O     O_3   0.008330 0.103050 0.050490 -0.373252
V3    V     V_3+5 0.001550 0.329940 0.009370 1.392634
V4    V     V_3+5 0.998450 0.829940 0.990630 1.392637
H25   H     H_    0.676320 0.424663 0.729214 0.140817
H26   H     H_    0.323702 0.924614 0.270753 0.140772
H27   H     H_    0.328047 0.869878 0.595172 0.125663
H28   H     H_    0.671944 0.369868 0.404817 0.125665

loop_
_geom_bond_atom_site_label_1
_geom_bond_atom_site_label_2
_ccdc_geom_bond_type
C44   C46   A    
C41   C43   A    
C2    C23   S    
C13   C15   A    
C5    C15   A    
C26   H12   S    
O1    C3    A    
O2    C4    A    
C2    O7    A    
C25   C27   A    
O5    C3    A    
C19   H7    S    
O11   C55   A    
C20   H8    S    
C18   H4    S    
C7    C9    A    
C12   H2    S    
C33   H13   S    
O15   C55   A    
C35   C37   A    
C32   C46   A    
C36   C38   A    
C34   H14   S    
C38   C40   A    
C23   C25   A    
C47   C49   A    
C35   H15   S    
C40   C42   A    
C21   C31   A    
C22   C24   A    
C20   H10   S    
C43   C45   A    
C29   C39   A    
C28   C30   A    
C17   C19   S    
C6    C16   A    
C11   C13   A    
C6    C8    A    
C36   H16   S    
C26   C28   A    
O19   V3    S    
C5    C19   S    
C48   H18   S    
O12   C56   A    
C30   C32   A    
C22   H28   S    
C24   C26   A    
C3    C8    S    
C37   C39   A    
O15   V3    S    
C50   C52   A    
C52   H20   S    
C49   C51   A    
O5    V1    S    
C41   C51   A    
C54   O17   A    
C27   C29   A    
C10   H26   S    
C28   C34   A    
C17   H5    S    
C14   C53   S    
C29   C31   A    
C42   C44   A    
O4    V2    S    
O13   C53   A    
C6    C20   S    
C38   C48   A    
O6    C4    A    
C27   C33   A    
O14   C54   A    
O1    V2    S    
C21   H27   S    
O20   V4    S    
O2    V1    S    
C21   C23   A    
O17   V3    S    
C37   C47   A    
O4    C2    A    
C8    C10   A    
O19   V4    S    
C18   H6    S    
C33   C35   A    
O11   V4    S    
C46   H24   S    
C17   H3    S    
O3    V1    S    
C49   C56   S    
O16   V4    S    
C39   C41   A    
C12   C14   A    
O13   V3    S    
O3    C1    A    
C44   H22   S    
C48   C50   A    
C43   H21   S    
C1    C24   S    
C45   H23   S    
C19   H9    S    
C9    C11   A    
O7    V1    S    
C25   H11   S    
C1    O8    A    
C15   C17   S    
C30   C40   A    
C16   C18   S    
O18   V4    S    
O16   C56   A    
C4    C7    S    
C14   C16   A    
C5    C7    A    
C34   C36   A    
C10   C12   A    
C11   H1    S    
O20   V3    S    
C31   C45   A    
O12   V3    S    
C47   H17   S    
O14   V4    S    
C22   C32   A    
O6    V2    S    
O9    V2    S    
C42   C52   A    
O10   V1    S    
C13   C54   S    
O8    V2    S    
C53   O18   A    
C51   H19   S    
C9    H25   S    
C18   C20   S    
C50   C55   S    
