data_mof_unit_31330.cif
_audit_creation_date              2012-12-10T20:45:31-0500
_audit_creation_method            fapswitch 2.2
_symmetry_space_group_name_H-M    P1
_symmetry_Int_Tables_number       1
_space_group_crystal_system       triclinic
_cell_length_a                    10.759714
_cell_length_b                    10.671605
_cell_length_c                    9.864238
_cell_angle_alpha                 90.309046
_cell_angle_beta                  90.978671
_cell_angle_gamma                 89.725914
_cell_volume                      1132.45135185

loop_
_atom_site_label
_atom_site_type_symbol
_atom_type_description
_atom_site_fract_x
_atom_site_fract_y
_atom_site_fract_z
_atom_type_partial_charge
C1    C     C_R   0.497501 0.260105 0.500084 0.877653
C2    C     C_R   0.818411 0.498024 0.976516 -0.137980
C3    C     C_R   0.806589 0.372335 0.012960 -0.142334
C4    C     C_R   0.260087 0.502638 0.498548 0.866563
C5    C     C_R   0.835524 0.277597 0.920121 -0.161802
C6    C     C_R   0.877099 0.308375 0.790949 -0.160764
C7    C     C_R   0.888655 0.434392 0.753697 0.149207
C8    C     C_R   0.520452 0.064389 0.619695 0.126881
C9    C     C_R   0.484182 0.128433 0.503038 -0.093010
C10   C     C_R   0.428158 0.064330 0.394319 -0.235275
C11   C     C_R   0.430118 0.934689 0.393585 -0.242968
C12   C     C_R   0.206806 0.679020 0.009721 -0.102494
C13   C     C_R   0.485117 0.871583 0.503418 -0.092587
C14   C     C_R   0.520361 0.936634 0.620270 0.132961
C15   C     C_3   0.639531 0.929836 0.700221 -0.505811
C16   C     C_R   0.498236 0.739886 0.500467 0.874001
C17   C     C_3   0.639647 0.071827 0.699120 -0.487102
C18   C     C_R   0.494791 0.389990 0.070095 0.219751
C19   C     C_R   0.515763 0.607986 0.072851 -0.130294
C20   C     C_R   0.515789 0.607967 0.929060 -0.147394
C21   C     C_R   0.494098 0.390211 0.927644 0.257184
C22   C     C_3   0.392229 0.296591 0.918691 -0.518201
C23   C     C_R   0.931039 0.539364 0.386347 -0.256087
C24   C     C_3   0.393976 0.294735 0.072450 -0.527901
C25   C     C_R   0.740046 0.499582 0.501625 0.870378
C26   C     C_R   0.212415 0.753785 0.126397 -0.157720
C27   C     C_R   0.166408 0.708973 0.248739 -0.119570
C28   C     C_R   0.113674 0.589048 0.254234 0.149064
C29   C     C_R   0.107906 0.514697 0.136563 -0.158943
C30   C     C_R   0.155034 0.559457 0.015073 -0.122096
C31   C     C_R   0.872626 0.501900 0.504802 -0.085965
C32   C     C_R   0.942144 0.467630 0.621525 -0.012569
C33   C     C_R   0.069229 0.466442 0.614026 -0.254900
C34   C     C_R   0.127621 0.504940 0.496276 -0.080921
C35   C     C_R   0.058481 0.543239 0.381002 -0.009371
C36   C     C_R   0.859659 0.529189 0.847444 -0.101953
H1    H     H_    0.242553 0.713702 0.915194 0.131431
H2    H     H_    0.716498 0.112028 0.639542 0.196628
H3    H     H_    0.526489 0.695559 0.127188 0.150022
H4    H     H_    0.251631 0.846759 0.121494 0.116595
H5    H     H_    0.526420 0.695408 0.876076 0.145498
H6    H     H_    0.305082 0.335939 0.873894 0.206598
H7    H     H_    0.423246 0.206681 0.872865 0.202959
H8    H     H_    0.307165 0.330639 0.118416 0.222098
H9    H     H_    0.428480 0.204004 0.112506 0.193400
H10   H     H_    0.170454 0.767860 0.338467 0.110423
H11   H     H_    0.066909 0.422256 0.139075 0.134959
H12   H     H_    0.775305 0.348426 0.113234 0.141228
H13   H     H_    0.150566 0.501714 0.925010 0.128042
H14   H     H_    0.877405 0.568701 0.297838 0.162789
H15   H     H_    0.122774 0.434936 0.701519 0.154444
H16   H     H_    0.870364 0.626860 0.820920 0.117684
H17   H     H_    0.796598 0.571305 0.048640 0.130381
H18   H     H_    0.826858 0.180302 0.948703 0.133710
H19   H     H_    0.901871 0.234424 0.720710 0.119819
H20   H     H_    0.387739 0.113596 0.309068 0.156243
H21   H     H_    0.394077 0.884534 0.306018 0.159342
H22   H     H_    0.626503 0.890473 0.803018 0.193296
H23   H     H_    0.716772 0.887157 0.642027 0.199109
H24   H     H_    0.626860 0.114160 0.801117 0.203118
N1    N     N_R   0.499160 0.499140 0.142800 -0.102457
N2    N     N_R   0.499160 0.499180 0.857150 -0.103599
O1    O     O_R   0.500020 0.316790 0.614690 -0.616037
O2    O     O_R   0.500000 0.316760 0.385350 -0.622606
O3    O     O_R   0.316770 0.500030 0.614670 -0.630109
O4    O     O_R   0.316750 0.499990 0.385330 -0.607290
O5    O     O_R   0.500000 0.683240 0.614650 -0.627505
O6    O     O_R   0.499980 0.683210 0.385310 -0.628843
O7    O     O_R   0.683250 0.500010 0.614670 -0.607833
O8    O     O_R   0.683230 0.499970 0.385330 -0.630268
Zn1   Zn    Zn3+2 0.500010 0.500020 0.653130 0.945832
Zn2   Zn    Zn3+2 0.499990 0.499980 0.346870 0.943269

loop_
_geom_bond_atom_site_label_1
_geom_bond_atom_site_label_2
_ccdc_geom_bond_type
C25   C31   S    
O8    Zn2   S    
C18   N1    A    
C29   C30   A    
C16   O6    A    
C13   C14   A    
C33   H15   S    
C18   C21   A    
C10   H20   S    
C9    C10   A    
C5    H18   S    
C23   C35   A    
C8    C17   S    
C36   H16   S    
C6    H19   S    
O6    Zn2   S    
C32   C33   A    
C22   C24   S    
C14   C15   S    
C20   H5    S    
C26   C27   A    
C1    C9    S    
C16   O5    A    
O3    Zn1   S    
C21   C22   S    
C12   C26   A    
C4    O4    A    
C11   C13   A    
C26   H4    S    
C21   N2    A    
C22   H6    S    
C19   H3    S    
C29   H11   S    
C18   C24   S    
C24   H9    S    
C1    O1    A    
C27   H10   S    
C28   C29   A    
C30   H13   S    
C19   N1    A    
N2    Zn1   S    
C2    C3    A    
C6    C7    A    
O5    Zn1   S    
C17   H2    S    
O2    Zn2   S    
C20   N2    A    
C5    C6    A    
C24   H8    S    
C15   H22   S    
C4    C34   S    
C7    C32   S    
C25   O7    A    
C10   C11   A    
C17   H24   S    
C1    O2    A    
C3    H12   S    
C27   C28   A    
C33   C34   A    
N1    Zn2   S    
O7    Zn1   S    
C34   C35   A    
C7    C36   A    
C13   C16   S    
C2    C36   A    
C12   H1    S    
C15   C17   S    
C4    O3    A    
C23   H14   S    
C8    C14   A    
C25   O8    A    
C12   C30   A    
C11   H21   S    
C15   H23   S    
C2    H17   S    
C31   C32   A    
O4    Zn2   S    
C19   C20   A    
C28   C35   S    
O1    Zn1   S    
C8    C9    A    
C3    C5    A    
C22   H7    S    
C23   C31   A    
