data_mof_unit_56388.cif
_audit_creation_date              2013-03-05T15:41:05-0500
_audit_creation_method            fapswitch 2.2
_symmetry_space_group_name_H-M    P1
_symmetry_Int_Tables_number       1
_space_group_crystal_system       triclinic
_cell_length_a                    11.039716
_cell_length_b                    11.12277
_cell_length_c                    18.750362
_cell_angle_alpha                 90.159789
_cell_angle_beta                  89.149129
_cell_angle_gamma                 59.888245
_cell_volume                      1991.32734016

loop_
_atom_site_label
_atom_site_type_symbol
_atom_site_description
_atom_site_fract_x
_atom_site_fract_y
_atom_site_fract_z
_atom_type_partial_charge
O1    O     O_R   0.507110 0.256280 0.580300 -0.422644
O2    O     O_R   0.280830 0.527190 0.577940 -0.473380
C1    C     C_R   0.220885 0.653172 0.602178 0.598569
O3    O     O_R   0.261360 0.738990 0.584270 -0.474993
O4    O     O_R   0.532590 0.694780 0.574370 -0.439196
C2    C     C_R   0.649936 0.618255 0.603432 0.616996
O5    O     O_R   0.744470 0.503750 0.577000 -0.534284
O6    O     O_R   0.698520 0.277230 0.571620 -0.530258
C3    C     C_R   0.629675 0.226876 0.601105 0.610498
O7    O     O_R   0.498530 0.256920 0.419280 -0.508883
O8    O     O_R   0.272880 0.527780 0.428680 -0.511727
C4    C     C_R   0.216501 0.651410 0.404803 0.541971
O9    O     O_R   0.252780 0.739630 0.423250 -0.505596
O10   O     O_R   0.524640 0.695370 0.425100 -0.474114
C5    C     C_R   0.642101 0.620609 0.392978 0.553935
O11   O     O_R   0.735890 0.504390 0.415980 -0.520595
O12   O     O_R   0.690560 0.277820 0.422350 -0.515308
C6    C     C_R   0.620810 0.224656 0.396975 0.547119
Cr1   Cr    Cr6+3 0.393010 0.398050 0.501480 1.098228
Cr2   Cr    Cr6+3 0.398820 0.707980 0.501630 1.126988
Cr3   Cr    Cr6+3 0.708140 0.393940 0.496850 1.048059
O13   O     O_3   0.499990 0.499990 0.499980 -0.256533
C7    C     C_3   0.554632 0.808702 0.786728 0.103562
H1    H     H_    0.569566 0.898763 0.793213 0.215899
C8    C     C_3   0.535959 0.788140 0.706059 0.108605
H2    H     H_    0.440832 0.782316 0.700314 0.234010
H3    H     H_    0.839069 0.742254 0.780411 0.172044
H4    H     H_    0.808554 0.722708 0.660894 0.208540
C9    C     C_3   0.819640 0.655235 0.770454 -0.289740
C10   C     C_3   0.683130 0.543107 0.805465 -0.215073
C11   C     C_3   0.691427 0.675088 0.815076 -0.025957
H5    H     H_    0.782791 0.450107 0.821640 0.120885
H6    H     H_    0.601399 0.545083 0.841444 0.196925
C12   C     C_3   0.660933 0.645725 0.679496 -0.011881
C13   C     C_3   0.801347 0.640845 0.690985 -0.282528
C14   C     C_3   0.659242 0.527990 0.726551 0.065322
H7    H     H_    0.746025 0.426407 0.707392 0.131460
H8    H     H_    0.913938 0.557930 0.787036 0.146328
H9    H     H_    0.889959 0.539884 0.671171 0.133817
C15   C     C_2   0.682655 0.154079 0.668657 0.260350
C16   C     C_2   0.694024 0.158045 0.828246 -0.031587
C17   C     C_2   0.802952 0.131550 0.784268 -0.132463
C18   C     C_2   0.782647 0.162234 0.706333 -0.116913
H10   H     H_    0.908088 0.085698 0.804976 0.150202
H11   H     H_    0.846476 0.199308 0.680983 0.111074
H12   H     H_    0.590115 0.199981 0.809322 0.230651
C19   C     C_2   0.135682 0.685764 0.667169 -0.060141
C20   C     C_2   0.090702 0.724371 0.823203 -0.106998
C21   C     C_2   0.121904 0.606145 0.788488 -0.145519
C22   C     C_2   0.155938 0.583408 0.711831 -0.084670
H13   H     H_    0.131150 0.517947 0.817778 0.170293
H14   H     H_    0.214997 0.475539 0.694202 0.203770
H15   H     H_    0.090530 0.810444 0.796240 0.150773
H16   H     H_    0.075210 0.794193 0.683168 0.113966
C23   C     C_2   0.652776 0.646272 0.318094 -0.066823
C24   C     C_2   0.636103 0.669530 0.161256 -0.068263
C25   C     C_2   0.705916 0.549536 0.195662 -0.155215
C26   C     C_2   0.688842 0.539740 0.272182 -0.132211
H17   H     H_    0.787031 0.456788 0.168552 0.167214
H18   H     H_    0.717701 0.437025 0.291841 0.152977
H19   H     H_    0.550582 0.760254 0.187114 0.167491
H20   H     H_    0.622347 0.750491 0.300683 0.099002
C27   C     C_2   0.673086 0.142568 0.332311 -0.109378
C28   C     C_2   0.649847 0.147945 0.178371 -0.074145
C29   C     C_2   0.607796 0.079528 0.221889 -0.153173
C30   C     C_2   0.592237 0.104654 0.298096 -0.161222
H21   H     H_    0.577884 0.007029 0.200900 0.146593
H22   H     H_    0.503338 0.105571 0.324337 0.167533
H23   H     H_    0.680772 0.220443 0.197910 0.101779
H24   H     H_    0.767061 0.132742 0.307152 0.116421
C31   C     C_2   0.134737 0.678509 0.341499 -0.153251
C32   C     C_2   0.142472 0.674706 0.185095 -0.091091
C33   C     C_2   0.155647 0.767349 0.226613 0.242781
C34   C     C_2   0.116243 0.785333 0.302029 -0.135128
H25   H     H_    0.111788 0.875118 0.327935 0.202364
H26   H     H_    0.122617 0.596941 0.207968 0.060295
H27   H     H_    0.132507 0.589757 0.319261 0.107827
O14   O     O_R   0.089190 0.825870 0.932320 -0.449950
O15   O     O_R   0.819070 0.053960 0.931440 -0.521022
C35   C     C_R   0.705861 0.098187 0.897499 0.522668
O16   O     O_R   0.607070 0.076440 0.916460 -0.492276
O17   O     O_R   0.647110 0.806550 0.917690 -0.461147
C36   C     C_R   0.722195 0.688305 0.889458 0.570042
O18   O     O_R   0.837080 0.593860 0.915300 -0.533902
O19   O     O_R   0.064770 0.636080 0.932550 -0.496232
C37   C     C_R   0.055583 0.743648 0.899064 0.547488
O20   O     O_R   0.068250 0.829200 0.092940 -0.414580
O21   O     O_R   0.799650 0.057040 0.080330 -0.483999
C38   C     C_R   0.675203 0.104782 0.104816 0.548025
O22   O     O_R   0.586130 0.079760 0.077080 -0.505581
O23   O     O_R   0.627700 0.809630 0.066580 -0.476025
C39   C     C_R   0.692733 0.689793 0.095051 0.560191
O24   O     O_R   0.816140 0.597180 0.075920 -0.511089
O25   O     O_R   0.045360 0.639170 0.081440 -0.506742
C40   C     C_R   0.093632 0.709908 0.112836 0.575710
Cr4   Cr    Cr6+3 0.937950 0.938450 0.008940 1.117582
Cr5   Cr    Cr6+3 0.626180 0.937030 0.994750 1.112188
Cr6   Cr    Cr6+3 0.937790 0.625760 0.001410 1.047210
O26   O     O_3   0.833980 0.833750 0.001700 -0.321255
N1    N     N_R   0.618159 0.082595 0.697581 0.089319
O27   O     O_R   0.698779 0.961518 0.724646 -0.443866
O28   O     O_R   0.484567 0.150124 0.712661 -0.262405
N2    N     N_R   0.425126 0.845649 0.827594 0.074133
O29   O     O_R   0.309404 0.957027 0.810693 -0.285750
O30   O     O_R   0.425345 0.779684 0.884869 -0.329649
S1    S     S_3+6 0.221718 0.874991 0.195328 0.014822
O31   O     O_2   0.313086 0.812219 0.129933 -0.260063
O32   O     O_2   0.100816 0.016035 0.178112 -0.277208
O33   O     O_3   0.315656 0.892938 0.260041 -0.558994
H28   H     H_    0.328387 0.971289 0.244772 0.351597
N3    N     N_R   0.505833 0.908085 0.661341 0.118763
O34   O     O_R   0.590568 0.898306 0.609638 -0.328165
O35   O     O_R   0.376410 0.009046 0.658977 -0.262155
S2    S     S_3+6 0.501309 0.521770 0.720098 -0.057666
O36   O     O_2   0.484451 0.504652 0.643296 -0.244565
O37   O     O_2   0.510459 0.401024 0.757900 -0.349023
O38   O     O_3   0.360530 0.661442 0.755082 -0.539036
H29   H     H_    0.360942 0.639854 0.806232 0.390371

loop_
_geom_bond_atom_site_label_1
_geom_bond_atom_site_label_2
_geom_bond_distance
_ccdc_geom_bond_type
C30   H22   1.086727 S    
O21   Cr4   1.942044 S    
O11   Cr3   2.067996 S    
H3    C9    1.107326 S    
C16   C17   1.351491 D    
N3    O34   1.302733 A    
C32   H26   1.081513 S    
C14   S2    1.785106 S    
C16   C35   1.438420 S    
S2    O36   1.478747 D    
C33   S1    1.782439 S    
O4    Cr2   1.976372 S    
O19   C37   1.311616 A    
C4    O9    1.280405 A    
O8    Cr1   1.961855 S    
S1    O32   1.503812 D    
C14   H7    1.106766 S    
C10   C11   1.526365 S    
C6    C27   1.442613 S    
C25   H17   1.086809 S    
S1    O31   1.503430 D    
O25   Cr6   1.978303 S    
C26   H18   1.087777 S    
C5    O11   1.265901 A    
Cr6   O26   2.001222 S    
Cr4   O26   2.009228 S    
C11   C36   1.464642 S    
C24   C25   1.333778 D    
C12   C13   1.542021 S    
C33   C34   1.456605 S    
C21   C22   1.468910 S    
C39   O24   1.273250 A    
O19   Cr6   1.937495 S    
C32   C40   1.446572 S    
C15   C18   1.359814 D    
C7    N2    1.475212 S    
H4    C13   1.108150 S    
O14   Cr4   2.059281 S    
O6    C3    1.270173 A    
C21   H13   1.085623 S    
O20   C40   1.269268 A    
C9    H8    1.110293 S    
C22   H14   1.086451 S    
C7    H1    1.100489 S    
O22   Cr5   2.088217 S    
C10   H6    1.109810 S    
C8    C12   1.563050 S    
O14   C37   1.306517 A    
C27   C30   1.333872 D    
Cr3   O13   1.987751 S    
C17   H10   1.085621 S    
C28   C38   1.435607 S    
Cr5   O26   1.991183 S    
O12   C6    1.278742 A    
C19   C22   1.342705 D    
C20   H15   1.083078 S    
O1    Cr1   2.081514 S    
C34   H25   1.087660 S    
O10   Cr2   1.937102 S    
Cr1   O13   2.006010 S    
O1    C3    1.289315 A    
N3    O35   1.302580 A    
O23   C39   1.277601 A    
C32   C33   1.355828 D    
C29   H21   1.087879 S    
C8    H2    1.090976 S    
O5    Cr3   2.100089 S    
C3    C15   1.467859 S    
O12   Cr3   1.976532 S    
C2    C12   1.477202 S    
C5    C23   1.448432 S    
C13   H9    1.113859 S    
C36   O18   1.277158 A    
C27   H24   1.087296 S    
O7    Cr1   2.072457 S    
C16   H12   1.065598 S    
O20   Cr4   2.085816 S    
N1    O28   1.301584 A    
O6    Cr3   1.950897 S    
N2    O30   1.301681 A    
C28   H23   1.085965 S    
O23   Cr5   1.951852 S    
C18   H11   1.084077 S    
C19   H16   1.083683 S    
C23   H20   1.085277 S    
C20   C21   1.343754 D    
C4    C31   1.440621 S    
Cr2   O13   2.001586 S    
O17   C36   1.259486 A    
O17   Cr5   1.972136 S    
C20   C37   1.455355 S    
C17   C18   1.495957 S    
C1    O3    1.284060 A    
C31   H27   1.082309 S    
O9    Cr2   2.094494 S    
O2    Cr1   1.950182 S    
C24   H19   1.082809 S    
C35   O16   1.275944 A    
C15   N1    1.411479 S    
C31   C34   1.329331 D    
S2    O37   1.479067 D    
O8    C4    1.277375 A    
C2    O5    1.266624 A    
C9    C13   1.525367 S    
C10   C14   1.530340 S    
O18   Cr6   2.101158 S    
C28   C29   1.344293 D    
O2    C1    1.290392 A    
O15   Cr4   1.964672 S    
C9    C11   1.549986 S    
O38   H29   0.988845 S    
C10   H5    1.114554 S    
C25   C26   1.455827 S    
O4    C2    1.271552 A    
O16   Cr5   2.073046 S    
O7    C6    1.273711 A    
C1    C19   1.456891 S    
N1    O27   1.295325 A    
C12   C14   1.588767 S    
C7    C8    1.561198 S    
O25   C40   1.295003 A    
S2    O38   1.673511 S    
C8    N3    1.470660 S    
O15   C35   1.271805 A    
O3    Cr2   2.055450 S    
C24   C39   1.450014 S    
O21   C38   1.275994 A    
C29   C30   1.446262 S    
C23   C26   1.347002 D    
N2    O29   1.301330 A    
O10   C5    1.275864 A    
C38   O22   1.266443 A    
O33   H28   0.992113 S    
O24   Cr6   2.057091 S    
C7    C11   1.596293 S    
S1    O33   1.682668 S    
