data_mof_unit_23294.cif
_audit_creation_date              2012-12-10T18:02:52-0500
_audit_creation_method            fapswitch 2.2
_symmetry_space_group_name_H-M    P1
_symmetry_Int_Tables_number       1
_space_group_crystal_system       triclinic
_cell_length_a                    10.930391
_cell_length_b                    9.627906
_cell_length_c                    27.815096
_cell_angle_alpha                 90.441849
_cell_angle_beta                  89.942732
_cell_angle_gamma                 91.073916
_cell_volume                      2926.56879989

loop_
_atom_site_label
_atom_site_type_symbol
_atom_type_description
_atom_site_fract_x
_atom_site_fract_y
_atom_site_fract_z
_atom_type_partial_charge
C1    C     C_R   0.263301 0.498784 0.505367 0.882443
C2    C     C_R   0.738337 0.501283 0.498905 0.911263
C3    C     C_R   0.505675 0.504356 0.101775 -0.127041
C4    C     C_R   0.511138 0.534035 0.898735 -0.142389
C5    C     C_R   0.399198 0.450480 0.124876 -0.061210
C6    C     C_R   0.621328 0.514734 0.873238 -0.033556
C7    C     C_R   0.297177 0.409995 0.096191 0.241596
C8    C     C_R   0.733099 0.523865 0.898267 0.235884
C9    C     C_R   0.607055 0.548867 0.129439 -0.089253
C10   C     C_R   0.400819 0.553116 0.873235 -0.091234
C11   C     C_R   0.495831 0.496558 0.354780 -0.091969
C12   C     C_R   0.504829 0.499501 0.645437 -0.084816
C13   C     C_R   0.400079 0.530172 0.974892 -0.025420
C14   C     C_R   0.624356 0.537737 0.027103 -0.022115
C15   C     C_R   0.625073 0.538953 0.975335 0.060359
C16   C     C_R   0.401662 0.496526 0.024307 0.030492
C17   C     C_R   0.512124 0.534046 0.949786 0.018141
C18   C     C_R   0.510689 0.514484 0.050949 0.005533
C19   C     C_R   0.290816 0.563579 0.950049 0.207738
C20   C     C_R   0.731523 0.549317 0.056499 0.215160
C21   C     C_R   0.291390 0.575497 0.899550 0.205844
C22   C     C_R   0.720983 0.572725 0.106441 0.226987
C23   C     C_R   0.497830 0.499312 0.407766 0.950747
C24   C     C_R   0.501313 0.500192 0.592320 0.906815
C25   C     C_R   0.299070 0.436051 0.047045 -0.173468
C26   C     C_R   0.732926 0.550882 0.947518 -0.252666
C27   C     C_R   0.061151 0.371029 0.507952 -0.088580
C28   C     C_R   0.940033 0.626663 0.514212 -0.017936
C29   C     C_R   0.938015 0.376842 0.494261 -0.074179
C30   C     C_R   0.067546 0.622771 0.520643 -0.055761
C31   C     C_R   0.874194 0.503569 0.500107 -0.098960
C32   C     C_R   0.129291 0.496561 0.513243 -0.084825
C33   C     C_R   0.444444 0.073214 0.463800 0.273435
C34   C     C_R   0.545079 0.929149 0.538340 0.241290
C35   C     C_R   0.554999 0.077024 0.536220 0.258933
C36   C     C_R   0.452557 0.925096 0.461970 0.263828
C37   C     C_R   0.400968 0.437749 0.175538 0.575121
C38   C     C_R   0.615972 0.492582 0.823228 0.583102
C39   C     C_R   0.591581 0.560767 0.179581 0.594092
C40   C     C_R   0.406065 0.554138 0.822310 0.617087
C41   C     C_R   0.591644 0.427503 0.278778 -0.014005
C42   C     C_R   0.423809 0.414425 0.722342 -0.014032
C43   C     C_R   0.597235 0.443094 0.329287 -0.182852
C44   C     C_R   0.415387 0.422674 0.671655 -0.181078
C45   C     C_R   0.392349 0.542725 0.329193 -0.071989
C46   C     C_R   0.599202 0.571769 0.670478 -0.079348
C47   C     C_R   0.395893 0.544163 0.279006 -0.227883
C48   C     C_R   0.594168 0.580832 0.720427 -0.227794
C49   C     C_R   0.493375 0.486707 0.253521 0.353884
C50   C     C_R   0.509316 0.501805 0.746835 0.342299
Cu1   Cu    Cu3+1 0.500000 0.640660 0.500000 1.032462
Cu2   Cu    Cu3+1 0.500000 0.359340 0.500000 1.058383
H1    H     H_    0.320620 0.587847 0.259180 0.147361
H2    H     H_    0.660870 0.645402 0.739402 0.156170
H3    H     H_    0.220658 0.400605 0.026334 0.178302
H4    H     H_    0.820391 0.579957 0.961934 0.189071
N1    N     N_R   0.494894 0.495657 0.201690 -0.429889
N2    N     N_R   0.509813 0.514126 0.798709 -0.440655
N3    N     N_R   0.500000 0.852070 0.500000 -0.223152
N4    N     N_R   0.500000 0.147930 0.500000 -0.210123
O1    O     O_R   0.319640 0.618740 0.500000 -0.590848
O2    O     O_R   0.680360 0.381260 0.500000 -0.541646
O3    O     O_R   0.680360 0.618740 0.500000 -0.598261
O4    O     O_R   0.319640 0.381260 0.500000 -0.528026
O5    O     O_R   0.500020 0.618770 0.430260 -0.536052
O6    O     O_R   0.499980 0.381230 0.569740 -0.568188
O7    O     O_R   0.499980 0.618770 0.569740 -0.551711
O8    O     O_R   0.500020 0.381230 0.430260 -0.574079
O9    O     O_2   0.310785 0.368795 0.198849 -0.557971
O10   O     O_2   0.715549 0.449414 0.799077 -0.507664
O11   O     O_2   0.309403 0.594265 0.796201 -0.558398
O12   O     O_2   0.671493 0.636423 0.206364 -0.562798
C51   C     C_2   0.278273 0.590466 0.352699 0.357119
H5    H     H_    0.213216 0.650054 0.332275 0.080735
O13   O     O_2   0.252826 0.560245 0.394074 -0.563281
C52   C     C_2   0.707966 0.634248 0.646592 0.409131
H6    H     H_    0.759682 0.717163 0.664363 0.087470
O14   O     O_2   0.744949 0.589473 0.608218 -0.550958
N5    N     N_2   0.384832 0.145414 0.426324 -0.368847
H7    H     H_    0.435148 0.155935 0.395167 0.256571
C53   C     C_3   0.255746 0.117193 0.418630 -0.642098
H8    H     H_    0.240663 0.071721 0.382259 0.208882
H9    H     H_    0.205579 0.216134 0.420886 0.245665
H10   H     H_    0.217994 0.043403 0.445503 0.229024
N6    N     N_2   0.575814 0.863031 0.581899 -0.362600
H11   H     H_    0.667443 0.866612 0.590170 0.281413
C54   C     C_3   0.495920 0.891266 0.622557 -0.670607
H12   H     H_    0.547261 0.948831 0.651086 0.200468
H13   H     H_    0.461424 0.792536 0.638023 0.249742
H14   H     H_    0.414927 0.952453 0.612047 0.223602
N7    N     N_2   0.614908 0.152680 0.573776 -0.379439
H15   H     H_    0.567021 0.157654 0.605652 0.254985
C55   C     C_3   0.745206 0.134435 0.579501 -0.613441
H16   H     H_    0.764514 0.088971 0.615229 0.222287
H17   H     H_    0.792571 0.237129 0.577403 0.245749
H18   H     H_    0.782437 0.064707 0.551412 0.219538
N8    N     N_2   0.411210 0.853463 0.420110 -0.361814
H19   H     H_    0.317922 0.838676 0.417229 0.272220
C56   C     C_3   0.475507 0.884440 0.375565 -0.645046
H20   H     H_    0.414565 0.939485 0.350467 0.203616
H21   H     H_    0.503746 0.787036 0.357883 0.250537
H22   H     H_    0.559848 0.948423 0.381898 0.216155
N9    N     N_2   0.189668 0.345364 0.115098 -0.429301
H23   H     H_    0.202401 0.259120 0.136056 0.297235
C57   C     C_3   0.097986 0.440164 0.132135 -0.610121
H24   H     H_    0.014245 0.380588 0.142427 0.229048
H25   H     H_    0.074640 0.514192 0.103371 0.235948
H26   H     H_    0.131566 0.499880 0.163918 0.244315
N10   N     N_2   0.847336 0.514248 0.874014 -0.381849
H27   H     H_    0.907603 0.594424 0.882429 0.244778
C58   C     C_3   0.903258 0.379938 0.878629 -0.582646
H28   H     H_    0.983927 0.374265 0.854537 0.224671
H29   H     H_    0.837708 0.295534 0.868020 0.250179
H30   H     H_    0.933455 0.363795 0.916302 0.191844
C59   C     C_2   0.310842 0.354874 0.646385 0.395236
H31   H     H_    0.284941 0.247909 0.653910 0.081266
O15   O     O_2   0.249961 0.420946 0.618155 -0.532958
C60   C     C_2   0.711102 0.408396 0.355019 0.398491
H32   H     H_    0.759338 0.314102 0.346259 0.098955
O16   O     O_2   0.754605 0.488576 0.384909 -0.532043
C61   C     C_2   0.342870 0.316186 0.749373 0.381888
H33   H     H_    0.253189 0.286694 0.735692 0.067692
O17   O     O_2   0.376931 0.264149 0.786833 -0.543284
C62   C     C_2   0.689328 0.352242 0.252414 0.361013
H34   H     H_    0.782705 0.353710 0.265517 0.062899
O18   O     O_2   0.665750 0.285106 0.216053 -0.542008
N11   N     N_2   0.179672 0.608637 0.876375 -0.434132
H35   H     H_    0.147407 0.540489 0.850429 0.288498
C63   C     C_3   0.157331 0.754661 0.868645 -0.585465
H36   H     H_    0.150154 0.775632 0.829566 0.257958
H37   H     H_    0.231626 0.822055 0.883913 0.222748
H38   H     H_    0.069775 0.782552 0.886101 0.201027
N12   N     N_2   0.830556 0.596072 0.133329 -0.433834
H39   H     H_    0.839278 0.540800 0.164670 0.291687
C64   C     C_3   0.872801 0.739288 0.135882 -0.640639
H40   H     H_    0.962717 0.745038 0.154394 0.221247
H41   H     H_    0.806618 0.803353 0.156155 0.273715
H42   H     H_    0.884343 0.782645 0.099230 0.206802
N13   N     N_2   0.181685 0.595257 0.975994 -0.441961
H43   H     H_    0.100435 0.572862 0.958522 0.271640
C65   C     C_3   0.182859 0.729276 0.999922 -0.676639
H44   H     H_    0.097813 0.740167 0.021369 0.213250
H45   H     H_    0.187605 0.813940 0.973082 0.229118
H46   H     H_    0.262054 0.739524 0.024748 0.242127
N14   N     N_2   0.849724 0.519651 0.038023 -0.456177
H47   H     H_    0.920995 0.579992 0.051175 0.269950
C66   C     C_3   0.876841 0.373359 0.035163 -0.677409
H48   H     H_    0.968321 0.359992 0.018533 0.224227
H49   H     H_    0.807843 0.317527 0.012533 0.239862
H50   H     H_    0.877210 0.327443 0.071672 0.244598
C67   C     C_2   0.114437 0.233133 0.518739 0.426145
H51   H     H_    0.089434 0.142052 0.497877 0.070378
O19   O     O_2   0.181942 0.218130 0.553121 -0.484379
C68   C     C_2   0.878094 0.760729 0.522979 0.487771
H52   H     H_    0.825815 0.808682 0.494638 0.063534
O20   O     O_2   0.887073 0.819295 0.561933 -0.557858
C69   C     C_2   0.879663 0.249134 0.473048 0.386437
H53   H     H_    0.891826 0.148479 0.489087 0.040267
O21   O     O_2   0.820927 0.254422 0.435947 -0.526918
C70   C     C_2   0.135945 0.749062 0.538056 0.491426
H54   H     H_    0.202783 0.739939 0.566666 0.085992
O22   O     O_2   0.122099 0.861969 0.519330 -0.573022

loop_
_geom_bond_atom_site_label_1
_geom_bond_atom_site_label_2
_ccdc_geom_bond_type
C64   H42   S    
C2    C31   S    
C54   H12   S    
C38   O10   S    
C55   H16   S    
C40   O11   S    
C5    C37   A    
C27   C29   A    
C8    C26   A    
C51   H5    S    
C14   C18   A    
C58   H28   S    
Cu1   O1    S    
C36   N3    A    
C46   C52   S    
N8    H19   S    
C64   H40   S    
C47   C49   A    
N6    H11   S    
C30   C70   S    
C57   H25   S    
C69   H53   S    
C41   C62   S    
C10   C40   A    
C66   H49   S    
C52   O14   D    
C37   O9    S    
N10   C58   S    
C9    C22   A    
C59   H31   S    
C39   N1    A    
C9    C39   A    
C33   C36   A    
C49   N1    S    
C3    C18   A    
C45   C51   S    
C34   C35   A    
Cu1   O5    S    
C11   C23   S    
C60   H32   S    
Cu2   N4    S    
C24   O7    A    
N8    C56   S    
C38   N2    A    
C58   H29   S    
C66   H48   S    
C44   C59   S    
C59   O15   D    
C67   H51   S    
C6    C38   A    
C11   C43   A    
C36   N8    S    
C21   N11   S    
C41   C43   A    
C68   O20   D    
Cu2   O8    S    
C24   O6    A    
C47   H1    S    
C63   H38   S    
C48   C50   A    
C69   O21   D    
C7    N9    S    
C28   C68   S    
C51   O13   D    
C42   C44   A    
C41   C49   A    
N14   C66   S    
N14   H47   S    
C45   C47   A    
C10   C21   A    
C55   H17   S    
C57   H26   S    
C46   C48   A    
C54   H14   S    
C40   N2    A    
C13   C19   A    
C22   N12   S    
Cu1   Cu2   S    
C50   N2    S    
C14   C20   A    
C66   H50   S    
Cu1   O3    S    
C52   H6    S    
C4    C6    A    
Cu2   O4    S    
C65   H46   S    
N7    H15   S    
C5    C7    A    
C33   N5    S    
C15   C26   A    
C6    C8    A    
C1    C32   S    
C53   H8    S    
C1    O1    A    
C35   N4    A    
C34   N6    S    
C70   O22   D    
C23   O8    A    
C48   H2    S    
N11   C63   S    
C3    C9    A    
N7    C55   S    
C56   H20   S    
C39   O12   S    
C61   H33   S    
N9    C57   S    
Cu1   O7    S    
C68   H52   S    
C42   C50   A    
C4    C17   A    
C12   C46   A    
C56   H21   S    
C20   C22   A    
C55   H18   S    
C54   H13   S    
C34   N3    A    
C11   C45   A    
Cu1   N3    S    
C4    C10   A    
N11   H35   S    
C1    O4    A    
C53   H10   S    
Cu2   O6    S    
C2    O3    A    
C62   O18   D    
C63   H36   S    
C16   C25   A    
C64   H41   S    
C27   C67   S    
C19   C21   A    
C27   C32   A    
C14   C15   A    
C28   C31   A    
C25   H3    S    
C3    C5    A    
C26   H4    S    
C53   H9    S    
C29   C69   S    
N13   H43   S    
C15   C17   A    
C33   N4    A    
C57   H24   S    
C12   C24   S    
N5    C53   S    
C7    C25   A    
C13   C17   A    
C70   H54   S    
C23   O5    A    
C65   H45   S    
C29   C31   A    
Cu2   O2    S    
C8    N10   S    
C30   C32   A    
N13   C65   S    
N12   H39   S    
C28   C30   A    
C58   H30   S    
C67   O19   D    
C60   O16   D    
C61   O17   D    
C43   C60   S    
N5    H7    S    
N6    C54   S    
C56   H22   S    
C16   C18   A    
C13   C16   A    
N10   H27   S    
N9    H23   S    
N12   C64   S    
C20   N14   S    
C12   C44   A    
C65   H44   S    
C19   N13   S    
C37   N1    A    
C2    O2    A    
C42   C61   S    
C62   H34   S    
C63   H37   S    
C35   N7    S    
