data_mof_unit_19069.cif
_audit_creation_date              2012-12-11T15:18:32-0500
_audit_creation_method            fapswitch 2.2
_symmetry_space_group_name_H-M    P1
_symmetry_Int_Tables_number       1
_space_group_crystal_system       triclinic
_cell_length_a                    6.945707
_cell_length_b                    19.930029
_cell_length_c                    23.755105
_cell_angle_alpha                 93.574697
_cell_angle_beta                  91.224073
_cell_angle_gamma                 88.628245
_cell_volume                      3280.38582092

loop_
_atom_site_label
_atom_site_type_symbol
_atom_type_description
_atom_site_fract_x
_atom_site_fract_y
_atom_site_fract_z
_atom_type_partial_charge
O1    O     O_R   0.620100 0.812200 0.810870 -0.533097
O2    O     O_R   0.379900 0.187800 0.189130 -0.533096
O3    O     O_R   0.296960 0.671650 0.794750 -0.538779
O4    O     O_R   0.703040 0.328350 0.205250 -0.538779
O5    O     O_R   0.120160 0.687800 0.689130 -0.541262
O6    O     O_R   0.879840 0.312200 0.310870 -0.541262
C1    C     C_R   0.468615 0.647037 0.804594 0.706062
C2    C     C_R   0.531385 0.352963 0.195406 0.706062
O7    O     O_R   0.290810 0.810670 0.817290 -0.545562
O8    O     O_R   0.709190 0.189330 0.182710 -0.545562
O9    O     O_R   0.113980 0.827820 0.711840 -0.541726
O10   O     O_R   0.886020 0.172180 0.288160 -0.541726
C3    C     C_R   0.459451 0.831837 0.834268 0.718308
C4    C     C_R   0.540548 0.168163 0.165732 0.718308
O11   O     O_R   0.626290 0.672180 0.788160 -0.538353
O12   O     O_R   0.373710 0.327820 0.211840 -0.538353
O13   O     O_3   0.451520 0.755460 0.715370 -0.370425
O14   O     O_3   0.548480 0.244540 0.284630 -0.370425
V1    V     V_3+5 0.179200 0.748980 0.756420 1.413492
V2    V     V_3+5 0.820800 0.251020 0.243580 1.413492
O15   O     O_R   0.783880 0.828350 0.705250 -0.527709
O16   O     O_R   0.216120 0.171650 0.294750 -0.527709
C5    C     C_R   0.950059 0.852602 0.694788 0.737380
C6    C     C_R   0.049941 0.147398 0.305212 0.737379
O17   O     O_R   0.790030 0.689320 0.682700 -0.545788
O18   O     O_R   0.209970 0.310680 0.317300 -0.545788
C7    C     C_R   0.958984 0.668207 0.665669 0.700684
C8    C     C_R   0.041016 0.331793 0.334331 0.700684
V3    V     V_3+5 0.678400 0.751010 0.743570 1.432191
V4    V     V_3+5 0.321600 0.248990 0.256430 1.432191
O19   O     O_3   0.955950 0.744540 0.784620 -0.369271
O20   O     O_3   0.044050 0.255460 0.215380 -0.369271
C9    C     C_R   0.181339 0.425832 0.396302 -0.222479
C10   C     C_R   0.818661 0.574168 0.603698 -0.222479
C11   C     C_R   0.030842 0.380823 0.383943 -0.080345
C12   C     C_R   0.969158 0.619177 0.616057 -0.080345
C13   C     C_R   0.868370 0.383733 0.418576 -0.223458
C14   C     C_R   0.131630 0.616267 0.581424 -0.223458
C15   C     C_R   0.856203 0.430449 0.465234 0.089640
C16   C     C_R   0.143797 0.569550 0.534766 0.089639
C17   C     C_R   0.006336 0.476063 0.476807 0.053260
C18   C     C_R   0.993664 0.523937 0.523193 0.053260
C19   C     C_R   0.168969 0.473953 0.442024 0.090666
C20   C     C_R   0.831031 0.526047 0.557976 0.090666
C21   C     C_R   0.696425 0.432419 0.500556 -0.191403
C22   C     C_R   0.303575 0.567581 0.499444 -0.191403
C23   C     C_R   0.684135 0.479693 0.546550 -0.183943
C24   C     C_R   0.315865 0.520307 0.453450 -0.183943
H1    H     H_    0.306303 0.424332 0.369620 0.120987
H2    H     H_    0.693697 0.575668 0.630380 0.120987
H3    H     H_    0.752108 0.349082 0.409559 0.126021
H4    H     H_    0.247892 0.650918 0.590441 0.126021
H5    H     H_    0.580095 0.397635 0.492403 0.133635
H6    H     H_    0.419905 0.602365 0.507597 0.133635
H7    H     H_    0.558808 0.480282 0.572989 0.134974
H8    H     H_    0.441192 0.519718 0.427011 0.134974
C25   C     C_R   0.949917 0.914744 0.663878 -0.060815
C26   C     C_R   0.050083 0.085256 0.336122 -0.060816
C27   C     C_R   0.890320 0.034764 0.661557 -0.193232
C28   C     C_R   0.109680 0.965236 0.338443 -0.193232
C29   C     C_R   0.901129 0.976708 0.691933 0.203316
C30   C     C_R   0.098872 0.023292 0.308067 0.203315
C31   C     C_R   0.988005 0.911559 0.605770 -0.273712
C32   C     C_R   0.011995 0.088441 0.394230 -0.273712
C33   C     C_R   0.975656 0.970017 0.574085 0.090376
C34   C     C_R   0.024343 0.029983 0.425914 0.090376
C35   C     C_R   0.925930 0.031872 0.603495 0.103974
C36   C     C_R   0.074070 0.968128 0.396505 0.103974
C37   C     C_R   0.008741 0.969361 0.514425 0.067170
C38   C     C_R   0.991259 0.030639 0.485575 0.067170
C39   C     C_R   0.941706 0.090465 0.517387 -0.185690
C40   C     C_R   0.058294 0.909535 0.482613 -0.185690
C41   C     C_R   0.910248 0.090862 0.574917 -0.187480
C42   C     C_R   0.089752 0.909138 0.425083 -0.187480
H9    H     H_    0.872143 0.138210 0.597351 0.125586
H10   H     H_    0.127857 0.861790 0.402649 0.125586
H11   H     H_    0.976942 0.137499 0.413379 0.104677
H12   H     H_    0.023058 0.862501 0.586620 0.104677
H13   H     H_    0.852439 0.082547 0.683317 0.113885
H14   H     H_    0.147562 0.917453 0.316683 0.113885
H15   H     H_    0.925415 0.138373 0.499080 0.122956
H16   H     H_    0.074585 0.861626 0.500919 0.122956
C43   C     C_R   0.489364 0.585406 0.835574 -0.077450
C44   C     C_R   0.510636 0.414594 0.164426 -0.077450
C45   C     C_R   0.602836 0.469288 0.836773 0.212423
C46   C     C_R   0.397164 0.530712 0.163227 0.212423
C47   C     C_R   0.562762 0.527095 0.807656 -0.201872
C48   C     C_R   0.437238 0.472904 0.192344 -0.201872
C49   C     C_R   0.456014 0.586591 0.893622 -0.224403
C50   C     C_R   0.543987 0.413409 0.106378 -0.224403
C51   C     C_R   0.499506 0.529556 0.925283 0.043032
C52   C     C_R   0.500496 0.470444 0.074717 0.043032
C53   C     C_R   0.572367 0.470394 0.895611 0.119759
C54   C     C_R   0.427635 0.529606 0.104389 0.119758
C55   C     C_R   0.476028 0.529578 0.985343 0.075878
C56   C     C_R   0.523974 0.470423 0.014657 0.075878
C57   C     C_R   0.592558 0.413015 0.982870 -0.205379
C58   C     C_R   0.407445 0.586985 0.017130 -0.205378
C59   C     C_R   0.615608 0.413100 0.925055 -0.182118
C60   C     C_R   0.384394 0.586900 0.074945 -0.182119
H17   H     H_    0.669316 0.367191 0.903458 0.160145
H18   H     H_    0.330687 0.632809 0.096543 0.160144
H19   H     H_    0.597927 0.366487 0.087264 0.104886
H20   H     H_    0.402073 0.633513 0.912736 0.104886
H21   H     H_    0.408737 0.472984 0.237048 0.103242
H22   H     H_    0.591262 0.527016 0.762952 0.103241
H23   H     H_    0.630774 0.366466 0.001309 0.125102
H24   H     H_    0.369229 0.633534 0.998691 0.125102
C61   C     C_R   0.685269 0.074162 0.103856 -0.219219
C62   C     C_R   0.314731 0.925838 0.896144 -0.219219
C63   C     C_R   0.530073 0.119049 0.116177 -0.078601
C64   C     C_R   0.469927 0.880951 0.883823 -0.078601
C65   C     C_R   0.363042 0.116001 0.081508 -0.212928
C66   C     C_R   0.636958 0.883999 0.918491 -0.212928
C67   C     C_R   0.351035 0.069349 0.034790 0.088687
C68   C     C_R   0.648965 0.930651 0.965210 0.088687
C69   C     C_R   0.506130 0.023893 0.023231 0.053400
C70   C     C_R   0.493870 0.976107 0.976769 0.053400
C71   C     C_R   0.673344 0.026079 0.058100 0.090414
C72   C     C_R   0.326656 0.973921 0.941900 0.090414
C73   C     C_R   0.186614 0.067323 0.999368 -0.190120
C74   C     C_R   0.813385 0.932677 0.000632 -0.190121
C75   C     C_R   0.174699 0.020134 0.953298 -0.182092
C76   C     C_R   0.825301 0.979866 0.046702 -0.182092
H25   H     H_    0.813860 0.075763 0.130563 0.123724
H26   H     H_    0.186140 0.924237 0.869437 0.123724
H27   H     H_    0.243060 0.150536 0.090509 0.126082
H28   H     H_    0.756939 0.849464 0.909491 0.126083
H29   H     H_    0.066433 0.101999 0.007497 0.133388
H30   H     H_    0.933567 0.898001 0.992502 0.133388
H31   H     H_    0.045767 0.019491 0.926780 0.137262
H32   H     H_    0.954233 0.980509 0.073220 0.137262
N1    N     N_3   0.678712 0.409756 0.806901 -0.681283
H33   H     H_    0.671850 0.414796 0.763340 0.229549
H34   H     H_    0.824758 0.405394 0.818000 0.226118
N2    N     N_3   0.321287 0.590244 0.193099 -0.681283
H35   H     H_    0.328145 0.585203 0.236660 0.229549
H36   H     H_    0.175243 0.594607 0.181999 0.226118
N3    N     N_3   0.139017 0.019909 0.248796 -0.670078
H37   H     H_    0.010168 0.030535 0.227215 0.210772
H38   H     H_    0.181966 0.971114 0.234950 0.226975
N4    N     N_3   0.860983 0.980091 0.751204 -0.670077
H39   H     H_    0.989832 0.969465 0.772785 0.210772
H40   H     H_    0.818034 0.028886 0.765050 0.226975

loop_
_geom_bond_atom_site_label_1
_geom_bond_atom_site_label_2
_ccdc_geom_bond_type
C26   C30   A    
C43   C47   A    
C31   C33   A    
C67   C73   A    
O13   V3    S    
C17   C18   A    
C1    C43   S    
C55   C56   A    
C24   H8    S    
O4    C2    A    
V1    O19   S    
C64   C66   A    
C55   C58   A    
C15   C17   A    
C71   C76   A    
C16   C22   A    
O9    V1    S    
C68   C74   A    
C11   C13   A    
C3    C64   S    
O3    C1    A    
C69   C71   A    
C13   H3    S    
C46   C48   A    
C14   H4    S    
C34   C36   A    
C36   C42   A    
C52   C56   A    
C58   H24   S    
C76   H32   S    
C28   C30   A    
C32   H11   S    
O7    C3    A    
C46   C54   A    
C27   C35   A    
O5    C7    A    
C45   C53   A    
O7    V1    S    
O6    C8    A    
C8    C11   S    
O8    V2    S    
C33   C35   A    
O3    V1    S    
C38   C39   A    
C35   C41   A    
C30   N3    S    
C49   C51   A    
C19   C24   A    
C53   C59   A    
O14   V2    S    
C20   C23   A    
C15   C21   A    
C21   C23   A    
C21   H5    S    
C2    O12   A    
O17   V3    S    
C41   H9    S    
C22   H6    S    
C44   C50   A    
O1    V3    S    
C57   C59   A    
O11   V3    S    
C70   C72   A    
C45   C47   A    
C26   C32   A    
C4    C63   S    
C43   C49   A    
C22   C24   A    
C27   C29   A    
C10   H2    S    
C65   H27   S    
C9    C19   A    
C10   C20   A    
C40   C42   A    
O8    C4    A    
C27   H13   S    
C39   C41   A    
N2    H35   S    
C1    O11   A    
C67   C69   A    
O15   V3    S    
C32   C34   A    
C37   C40   A    
V4    O20   S    
C51   C53   A    
C66   H28   S    
C50   C52   A    
C54   C60   A    
V3    O19   S    
C56   C57   A    
O10   V2    S    
C60   H18   S    
C63   C65   A    
C42   H10   S    
C62   H26   S    
O14   V4    S    
C61   H25   S    
C59   H17   S    
O18   V4    S    
C58   C60   A    
O15   C5    A    
C49   H20   S    
N1    H33   S    
O16   C6    A    
O1    C3    A    
O12   V4    S    
C62   C72   A    
C12   C14   A    
N4    H40   S    
C61   C71   A    
N2    H36   S    
C23   H7    S    
V2    O20   S    
C46   N2    S    
C5    C25   S    
C28   H14   S    
O16   V4    S    
C75   H31   S    
C2    C44   S    
C17   C19   A    
C44   C48   A    
C25   C31   A    
C73   H29   S    
C16   C18   A    
C66   C68   A    
N3    H37   S    
C72   C75   A    
C25   C29   A    
O5    V1    S    
O4    V2    S    
C7    C12   S    
O17   C7    A    
O6    V2    S    
O10   C6    A    
O18   C8    A    
O2    V4    S    
C61   C63   A    
C18   C20   A    
C13   C15   A    
C69   C70   A    
C14   C16   A    
C48   H21   S    
N3    H38   S    
C9    C11   A    
C52   C54   A    
C34   C38   A    
C47   H22   S    
C33   C37   A    
O9    C5    A    
O13   V1    S    
C68   C70   A    
C10   C12   A    
C37   C38   A    
O2    C4    A    
C62   C64   A    
C50   H19   S    
C73   C75   A    
C51   C55   A    
C57   H23   S    
C29   N4    S    
C28   C36   A    
C6    C26   S    
C9    H1    S    
N1    H34   S    
N4    H39   S    
C39   H15   S    
C74   C76   A    
C74   H30   S    
C40   H16   S    
C45   N1    S    
C65   C67   A    
C31   H12   S    
