data_mof_unit_67472.cif
_audit_creation_date              2012-12-10T16:46:04-0500
_audit_creation_method            fapswitch 2.2
_symmetry_space_group_name_H-M    P1
_symmetry_Int_Tables_number       1
_space_group_crystal_system       triclinic
_cell_length_a                    10.885946
_cell_length_b                    8.743312
_cell_length_c                    7.546641
_cell_angle_alpha                 102.492621
_cell_angle_beta                  93.518924
_cell_angle_gamma                 94.321386
_cell_volume                      697.0541477

loop_
_atom_site_label
_atom_site_type_symbol
_atom_type_description
_atom_site_fract_x
_atom_site_fract_y
_atom_site_fract_z
_atom_type_partial_charge
C1    C     C_R   0.493597 0.200928 0.455626 0.808196
C2    C     C_3   0.877062 0.497271 0.491594 -0.132223
C3    C     C_3   0.939190 0.658275 0.611328 0.222811
C4    C     C_3   0.926227 0.462368 0.297675 0.077030
C5    C     C_2   0.470045 0.035557 0.440480 -0.030871
C6    C     C_2   0.522488 0.966754 0.566257 -0.016911
C7    C     C_R   0.260392 0.500050 0.504098 0.852423
C8    C     C_R   0.503874 0.799496 0.545565 0.930785
C9    C     C_R   0.739175 0.495580 0.495725 0.855948
C10   C     C_3   0.063048 0.345709 0.559565 -0.020640
C11   C     C_3   0.921384 0.359366 0.575820 -0.523811
C12   C     C_3   0.078589 0.640870 0.655905 0.156378
C13   C     C_3   0.066424 0.498585 0.316671 -0.422417
C14   C     C_3   0.122526 0.499466 0.511820 -0.135383
Cu1   Cu    Cu3+1 0.514070 0.517380 0.684380 1.100015
Cu2   Cu    Cu3+1 0.485930 0.482620 0.315620 1.086581
H1    H     H_    0.425073 0.354852 0.952086 0.231914
H2    H     H_    0.076019 0.242975 0.448225 0.180018
H3    H     H_    0.869549 0.245507 0.505744 0.214187
H4    H     H_    0.900547 0.378351 0.719809 0.248831
H5    H     H_    0.080777 0.600875 0.786064 0.108824
H6    H     H_    0.897132 0.679974 0.743830 0.111588
H7    H     H_    0.094552 0.612961 0.283338 0.271667
H8    H     H_    0.102895 0.405821 0.213188 0.208692
H9    H     H_    0.904544 0.334237 0.237508 0.153590
N1    N     N_2   0.464720 0.456420 0.038520 -0.172364
N2    N     N_2   0.535280 0.543580 0.961480 0.009201
O1    O     O_R   0.509140 0.286130 0.619770 -0.598304
O2    O     O_R   0.485380 0.256770 0.308360 -0.568069
O3    O     O_R   0.329570 0.514650 0.655700 -0.552134
O4    O     O_R   0.305810 0.485300 0.344290 -0.591877
O5    O     O_R   0.514620 0.743230 0.691640 -0.527658
O6    O     O_R   0.490860 0.713870 0.380230 -0.560204
O7    O     O_R   0.694190 0.514700 0.655710 -0.583954
O8    O     O_R   0.670430 0.485350 0.344300 -0.539358
I1    I     I_    0.144652 0.289633 0.803141 -0.200961
I2    I     I_    0.859916 0.551936 0.075162 -0.277157
S1    S     S_3+6 0.174311 0.823597 0.734954 0.069510
O9    O     O_2   0.297667 0.796777 0.815192 -0.263983
O10   O     O_2   0.192860 0.908625 0.585635 -0.213993
O11   O     O_3   0.105580 0.938010 0.901796 -0.434418
H10   H     H_    0.073281 0.866498 0.976928 0.346264
S2    S     S_3+6 0.905477 0.828869 0.520510 0.057412
O12   O     O_2   0.772470 0.811864 0.450237 -0.318986
O13   O     O_2   0.925713 0.974430 0.670141 -0.206858
O14   O     O_3   0.993053 0.854379 0.351691 -0.493523
H11   H     H_    0.965816 0.949550 0.315366 0.371387
I3    I     I_    0.321986 0.929852 0.242749 -0.110909
I4    I     I_    0.655255 0.082680 0.787106 -0.169798
I5    I     I_    0.609043 0.772568 0.078907 -0.006487

loop_
_geom_bond_atom_site_label_1
_geom_bond_atom_site_label_2
_ccdc_geom_bond_type
C1    O1    A    
C2    C4    S    
S2    O12   D    
Cu2   O6    S    
O11   H10   S    
Cu1   O7    S    
Cu1   N2    S    
N2    I5    S    
C3    S2    S    
C1    O2    A    
C2    C3    S    
Cu1   O1    S    
Cu1   O5    S    
Cu2   O8    S    
C7    O3    A    
C13   C14   S    
Cu2   O4    S    
S1    O10   D    
C5    C6    D    
S2    O13   D    
C11   H3    S    
N1    N2    D    
C9    O7    A    
C10   H2    S    
C1    C5    S    
H1    N1    S    
S2    O14   S    
C12   C14   S    
C4    H9    S    
C8    O6    A    
C6    I4    S    
Cu2   N1    S    
S1    O9    D    
C5    I3    S    
C11   H4    S    
C7    O4    A    
C10   C11   S    
C2    C11   S    
Cu1   Cu2   S    
C8    O5    A    
C12   S1    S    
C4    I2    S    
C13   H7    S    
Cu1   O3    S    
S1    O11   S    
C10   C14   S    
C4    C13   S    
C9    O8    A    
O14   H11   S    
C3    H6    S    
C6    C8    S    
C3    C12   S    
Cu2   O2    S    
C2    C9    S    
C12   H5    S    
C7    C14   S    
C13   H8    S    
C10   I1    S    
