data_mof_unit_66100.cif
_audit_creation_date              2012-12-10T18:12:12-0500
_audit_creation_method            fapswitch 2.2
_symmetry_space_group_name_H-M    P1
_symmetry_Int_Tables_number       1
_space_group_crystal_system       triclinic
_cell_length_a                    18.774016
_cell_length_b                    18.733385
_cell_length_c                    18.714587
_cell_angle_alpha                 109.437017
_cell_angle_beta                  109.478837
_cell_angle_gamma                 109.600865
_cell_volume                      5060.31421753

loop_
_atom_site_label
_atom_site_type_symbol
_atom_type_description
_atom_site_fract_x
_atom_site_fract_y
_atom_site_fract_z
_atom_type_partial_charge
Br1   Br    Br    0.165205 0.635862 0.364976 -0.516022
Br2   Br    Br    0.427081 0.691267 0.415170 -0.452410
Br3   Br    Br    0.909429 0.925924 0.692251 -0.457750
Br4   Br    Br    0.744722 0.712166 0.311000 -0.495332
Br5   Br    Br    0.290078 0.141071 0.124792 -0.398017
Br6   Br    Br    0.264757 0.072069 0.490077 -0.486452
Br7   Br    Br    0.428233 0.234591 0.511945 -0.447563
Br8   Br    Br    0.313512 0.329755 0.127854 -0.358770
Br9   Br    Br    0.193271 0.271329 0.782624 -0.429733
Br10  Br    Br    0.085145 0.308920 0.071676 -0.423384
C1    C     C_R   0.619885 0.620225 0.499705 0.907966
C2    C     C_R   0.301494 0.788765 0.249864 -0.142094
C3    C     C_R   0.260847 0.820456 0.292794 0.247716
C4    C     C_R   0.380473 0.500456 0.379746 0.929773
C5    C     C_R   0.220196 0.773383 0.325946 -0.221265
C6    C     C_R   0.220213 0.696142 0.316747 0.268842
C7    C     C_R   0.260593 0.664522 0.273232 0.100655
C8    C     C_R   0.752227 0.762030 0.578839 -0.185696
C9    C     C_R   0.817772 0.825300 0.580015 0.218210
C10   C     C_R   0.814382 0.813222 0.500279 -0.170460
C11   C     C_R   0.748021 0.736272 0.420688 0.237641
C12   C     C_R   0.213036 0.178375 0.230489 -0.178132
C13   C     C_R   0.684217 0.672685 0.421069 -0.175927
C14   C     C_R   0.686056 0.686277 0.499747 -0.120881
C15   C     C_R   0.685189 0.512964 0.764003 -0.217883
C16   C     C_R   0.381608 0.379769 0.501543 0.936360
C17   C     C_R   0.749270 0.513537 0.828644 0.171832
C18   C     C_R   0.814147 0.500977 0.814210 -0.079095
C19   C     C_R   0.815916 0.489486 0.736672 0.176266
C20   C     C_R   0.751362 0.489258 0.673014 -0.235242
C21   C     C_R   0.686465 0.500587 0.686785 -0.063976
C22   C     C_R   0.245432 0.321026 0.500498 -0.310635
C23   C     C_R   0.179143 0.419372 0.175738 0.254324
C24   C     C_R   0.179759 0.257108 0.498609 0.184486
C25   C     C_R   0.186848 0.184513 0.498293 -0.170541
C26   C     C_R   0.258653 0.175548 0.498854 0.189060
C27   C     C_R   0.325053 0.241224 0.502328 0.243336
C28   C     C_R   0.620085 0.499996 0.620355 0.898523
C29   C     C_R   0.317083 0.313162 0.502429 -0.162186
C30   C     C_R   0.000209 0.620304 0.120734 0.899343
C31   C     C_R   0.120100 0.499620 0.119756 0.948108
C32   C     C_R   0.000362 0.379822 0.880386 0.911165
C33   C     C_R   0.880000 0.500192 0.879960 0.910167
C34   C     C_R   0.186439 0.499756 0.185931 -0.189081
C35   C     C_R   0.001385 0.881547 0.379921 0.881351
C36   C     C_R   0.879981 0.879723 0.500051 0.922710
C37   C     C_R   0.000790 0.120873 0.620356 0.897688
C38   C     C_R   0.120195 0.118904 0.498704 0.915721
C39   C     C_R   0.022275 0.767439 0.190205 -0.277726
C40   C     C_R   0.250970 0.208578 0.186062 0.281895
C41   C     C_R   0.023411 0.834081 0.253627 0.217280
C42   C     C_R   0.002721 0.817279 0.314069 -0.091575
C43   C     C_R   0.980058 0.737279 0.311098 -0.238131
C44   C     C_R   0.975212 0.670205 0.245893 0.219788
C45   C     C_R   0.257557 0.580406 0.258979 -0.051849
C46   C     C_R   0.998893 0.686455 0.186557 -0.120144
C47   C     C_R   0.079650 0.320362 0.825429 -0.163387
C48   C     C_R   0.080485 0.256414 0.762616 0.233698
C49   C     C_R   0.000573 0.186813 0.687161 -0.127641
C50   C     C_R   0.920347 0.181572 0.676054 0.190829
C51   C     C_R   0.921210 0.244536 0.741865 -0.250838
C52   C     C_R   0.259996 0.286901 0.187590 0.313380
C53   C     C_R   0.000423 0.313700 0.814974 -0.087832
C54   C     C_R   0.231145 0.334760 0.234801 0.053466
C55   C     C_R   0.193043 0.303328 0.278801 -0.186231
C56   C     C_R   0.323455 0.580500 0.321333 0.260489
C57   C     C_R   0.183604 0.225188 0.276114 -0.180716
C58   C     C_3   0.339792 0.975655 0.340793 -0.633348
C59   C     C_3   0.807183 0.616912 0.979653 -0.744758
C60   C     C_3   0.863160 0.387457 0.688057 -0.762863
C61   C     C_3   0.112637 0.302302 0.580851 -0.688310
C62   C     C_3   0.065447 0.934819 0.196036 -0.739069
C63   C     C_3   0.853622 0.532431 0.196371 -0.669578
C64   C     C_3   0.800875 0.032840 0.596574 -0.647829
C65   C     C_R   0.314380 0.500108 0.313069 -0.186862
C66   C     C_R   0.242325 0.419369 0.240917 -0.048671
C67   C     C_R   0.302168 0.711988 0.241051 -0.151241
H1    H     H_    0.206512 0.118478 0.229775 0.171267
H2    H     H_    0.140690 0.374744 0.883066 0.188002
H3    H     H_    0.860117 0.240353 0.735169 0.154815
H4    H     H_    0.170965 0.339646 0.315456 0.157461
H5    H     H_    0.153911 0.201062 0.309899 0.165077
H6    H     H_    0.333221 0.688189 0.207174 0.169909
H7    H     H_    0.331283 0.822355 0.221635 0.149216
H8    H     H_    0.215722 0.907613 0.320918 0.254728
H9    H     H_    0.328337 0.030391 0.342021 0.268351
H10   H     H_    0.374783 0.967240 0.303979 0.227085
H11   H     H_    0.381024 0.993207 0.409220 0.270691
H12   H     H_    0.188226 0.796688 0.358838 0.178264
H13   H     H_    0.687121 0.502957 0.900500 0.245050
H14   H     H_    0.784772 0.660753 0.964758 0.245601
H15   H     H_    0.874884 0.639750 0.991437 0.226506
H16   H     H_    0.807774 0.620759 0.040375 0.249369
H17   H     H_    0.899256 0.503628 0.686387 0.236082
H18   H     H_    0.805546 0.345314 0.620793 0.243708
H19   H     H_    0.849906 0.362273 0.730821 0.226950
H20   H     H_    0.920476 0.384396 0.685806 0.243078
H21   H     H_    0.089653 0.296712 0.462667 0.228636
H22   H     H_    0.168206 0.370688 0.624537 0.244683
H23   H     H_    0.753903 0.771001 0.639784 0.187268
H24   H     H_    0.121771 0.262360 0.611583 0.246621
H25   H     H_    0.051225 0.302226 0.572577 0.228601
H26   H     H_    0.080579 0.970945 0.321082 0.229073
H27   H     H_    0.074470 0.000084 0.207447 0.238900
H28   H     H_    0.010479 0.885435 0.128334 0.252949
H29   H     H_    0.126745 0.934921 0.203706 0.246351
H30   H     H_    0.976967 0.592271 0.301452 0.260181
H31   H     H_    0.826421 0.561695 0.234318 0.242307
H32   H     H_    0.837131 0.466855 0.189355 0.238741
H33   H     H_    0.822928 0.524124 0.129943 0.254943
H34   H     H_    0.632967 0.613011 0.360081 0.196042
H35   H     H_    0.794414 0.135293 0.581808 0.227449
H36   H     H_    0.786972 0.042009 0.651242 0.248560
H37   H     H_    0.845614 0.006244 0.601568 0.247282
H38   H     H_    0.738844 0.984613 0.533519 0.238434
H39   H     H_    0.634497 0.522100 0.773935 0.164639
H40   H     H_    0.751819 0.480225 0.612881 0.160025
H41   H     H_    0.240258 0.376767 0.499749 0.173830
H42   H     H_    0.039187 0.777568 0.143151 0.185685
H43   H     H_    0.963084 0.725993 0.357905 0.169133
N1    N     N_2   0.256827 0.896823 0.299074 -0.325868
N2    N     N_2   0.748887 0.527568 0.908131 -0.295240
N3    N     N_2   0.881625 0.476955 0.722099 -0.288955
N4    N     N_2   0.106629 0.265872 0.496361 -0.288626
N5    N     N_2   0.045400 0.917500 0.258828 -0.293095
N6    N     N_2   0.947586 0.587390 0.241286 -0.277104
N7    N     N_2   0.839072 0.114936 0.598513 -0.299586
O1    O     O_R   0.591640 0.539900 0.448310 -0.624063
O2    O     O_R   0.948270 0.908330 0.356580 -0.596237
O3    O     O_R   0.960090 0.908280 0.551610 -0.586420
O4    O     O_R   0.591610 0.643330 0.551710 -0.600591
O5    O     O_R   0.856650 0.908310 0.448190 -0.590174
O6    O     O_R   0.051730 0.091500 0.643240 -0.559137
O7    O     O_R   0.948290 0.091530 0.539820 -0.610300
O8    O     O_R   0.143350 0.091510 0.551630 -0.565131
O9    O     O_R   0.039910 0.091550 0.448210 -0.618031
O10   O     O_R   0.408400 0.448280 0.356670 -0.616560
O11   O     O_R   0.408370 0.551710 0.460080 -0.579448
O12   O     O_R   0.051750 0.643320 0.091550 -0.638093
O13   O     O_R   0.408390 0.356670 0.448290 -0.587924
O14   O     O_R   0.408360 0.460100 0.551690 -0.626952
O15   O     O_R   0.591630 0.448290 0.539920 -0.604026
O16   O     O_R   0.591600 0.551720 0.643330 -0.633016
O17   O     O_R   0.948300 0.539910 0.091570 -0.589095
O18   O     O_R   0.039910 0.448280 0.091610 -0.571629
O19   O     O_R   0.143370 0.551700 0.091590 -0.635775
O20   O     O_R   0.948300 0.356650 0.908390 -0.598694
O21   O     O_R   0.051750 0.460070 0.908380 -0.621609
O22   O     O_R   0.856690 0.448280 0.908350 -0.611306
O23   O     O_R   0.960140 0.551690 0.908340 -0.609133
O24   O     O_R   0.051710 0.908290 0.460000 -0.607313
Zn1   Zn    Zn3+2 0.500020 0.430940 0.430950 1.052390
Zn2   Zn    Zn3+2 0.499980 0.569060 0.569050 1.037321
Zn3   Zn    Zn3+2 0.930950 0.430940 0.999980 1.046502
Zn4   Zn    Zn3+2 0.069100 0.569040 0.999960 0.989640
Zn5   Zn    Zn3+2 0.069070 0.999890 0.568970 1.120296
Zn6   Zn    Zn3+2 0.930930 0.999930 0.430860 1.036494

loop_
_geom_bond_atom_site_label_1
_geom_bond_atom_site_label_2
_ccdc_geom_bond_type
C15   C21   A    
C35   O2    A    
O6    Zn5   S    
C58   H9    S    
C28   O16   A    
C47   H2    S    
C38   O8    A    
C25   C26   A    
C65   C66   A    
C32   O21   A    
O2    Zn6   S    
C43   H43   S    
C63   H33   S    
C43   C44   A    
H21   N4    S    
C44   N6    S    
C18   C19   A    
C8    C14   A    
C26   C27   A    
C8    C9    A    
C59   H16   S    
C36   O5    A    
C20   C21   A    
C16   C29   S    
O16   Zn2   S    
C55   C57   A    
C25   C38   S    
C51   H3    S    
C63   N6    S    
C64   H37   S    
C30   O12   A    
C1    C14   S    
C2    H7    S    
C24   C25   A    
C22   C29   A    
O15   Zn1   S    
C51   C53   A    
O20   Zn3   S    
H35   N7    S    
C52   C54   A    
C60   N3    S    
O1    Zn1   S    
C31   O19   A    
C4    O11   A    
C6    C7    A    
C39   C41   A    
C56   C65   A    
C13   C14   A    
O10   Zn1   S    
Br3   C9    S    
O21   Zn4   S    
C59   H15   S    
O13   Zn1   S    
C33   O22   A    
C60   H20   S    
C12   C40   A    
H17   N3    S    
C61   H24   S    
C49   C50   A    
C37   O6    A    
H13   N2    S    
C8    H23   S    
C32   O20   A    
C17   N2    S    
C47   C53   A    
C11   C13   A    
Br7   C27   S    
C44   C46   A    
O19   Zn4   S    
C41   C42   A    
C41   N5    S    
C61   N4    S    
O4    Zn2   S    
C28   O15   A    
C12   H1    S    
C15   H39   S    
C63   H31   S    
C62   H27   S    
C35   C42   S    
C30   C46   S    
C48   C49   A    
C64   H36   S    
C61   H22   S    
O8    Zn5   S    
C50   C51   A    
C35   O24   A    
C22   C24   A    
C60   H19   S    
O22   Zn3   S    
C19   C20   A    
C5    H12   S    
C3    N1    S    
C23   C66   A    
C55   H4    S    
C64   N7    S    
C4    O10   A    
O12   Zn4   S    
C2    C67   A    
C7    C67   A    
C54   C66   S    
Br1   C6    S    
O24   Zn5   S    
C10   C11   A    
H8    N1    S    
C33   O23   A    
O18   Zn3   S    
O11   Zn2   S    
C62   H28   S    
C61   H25   S    
C62   H29   S    
O23   Zn4   S    
C30   O17   A    
C37   O7    A    
C40   C52   A    
C31   C34   S    
Br5   C40   S    
O9    Zn6   S    
C16   O14   A    
C45   C56   A    
C42   C43   A    
C7    C45   S    
Br9   C48   S    
C24   N4    S    
C23   C34   A    
C38   O9    A    
C50   N7    S    
H30   N6    S    
C22   H41   S    
Br2   C56   S    
C1    O4    A    
C58   N1    S    
C36   O3    A    
C63   H32   S    
C20   H40   S    
C15   C17   A    
C39   C46   A    
C13   H34   S    
C18   C33   S    
C16   O13   A    
O5    Zn6   S    
C21   C28   S    
C62   N5    S    
C54   C55   A    
C9    C10   A    
C3    C5    A    
C60   H18   S    
C27   C29   A    
C4    C65   S    
Br4   C11   S    
C34   C45   A    
O14   Zn2   S    
C47   C48   A    
C39   H42   S    
C59   N2    S    
C58   H11   S    
C64   H38   S    
C19   N3    S    
Br6   C26   S    
C1    O1    A    
Br10  C23   S    
O17   Zn3   S    
H26   N5    S    
C12   C57   A    
C37   C49   S    
O7    Zn6   S    
C31   O18   A    
C2    C3    A    
C57   H5    S    
C17   C18   A    
C58   H10   S    
C67   H6    S    
O3    Zn5   S    
C59   H14   S    
C32   C53   S    
C10   C36   S    
C5    C6    A    
Br8   C52   S    
