data_mof_unit_36453.cif
_audit_creation_date              2012-12-10T16:49:22-0500
_audit_creation_method            fapswitch 2.2
_symmetry_space_group_name_H-M    P1
_symmetry_Int_Tables_number       1
_space_group_crystal_system       triclinic
_cell_length_a                    19.371522
_cell_length_b                    8.63341
_cell_length_c                    7.424446
_cell_angle_alpha                 103.125603
_cell_angle_beta                  92.430615
_cell_angle_gamma                 93.053144
_cell_volume                      1205.62745702

loop_
_atom_site_label
_atom_site_type_symbol
_atom_type_description
_atom_site_fract_x
_atom_site_fract_y
_atom_site_fract_z
_atom_type_partial_charge
C1    C     C_R   0.489211 0.199438 0.454806 0.842524
C2    C     C_R   0.494397 0.799264 0.547650 0.858783
C3    C     C_2   0.466664 0.031165 0.432333 -0.085397
C4    C     C_2   0.474085 0.962722 0.577242 -0.076308
C5    C     C_R   0.367520 0.498644 0.505045 0.786951
C6    C     C_R   0.632757 0.499993 0.493488 0.818457
C7    C     C_R   0.252878 0.424124 0.630254 0.159792
C8    C     C_R   0.742496 0.446301 0.309179 0.141415
C9    C     C_R   0.179728 0.432350 0.627775 0.128959
C10   C     C_R   0.815386 0.432140 0.316566 0.117046
C11   C     C_R   0.146769 0.515729 0.507505 0.009722
C12   C     C_R   0.854888 0.499049 0.483872 0.015706
C13   C     C_R   0.186263 0.596509 0.397783 0.144339
C14   C     C_R   0.821882 0.562726 0.647206 0.148917
C15   C     C_R   0.258018 0.590616 0.405021 -0.244725
C16   C     C_R   0.749889 0.557021 0.644050 -0.231370
C17   C     C_R   0.291719 0.503925 0.516130 -0.133243
C18   C     C_R   0.709217 0.500292 0.479108 -0.155540
C19   C     C_R   0.930983 0.504220 0.487725 0.428084
C20   C     C_R   0.070716 0.513134 0.492965 0.426768
Cu1   Cu    Cu3+1 0.507710 0.517380 0.684380 0.918927
Cu2   Cu    Cu3+1 0.492290 0.482620 0.315620 0.910140
H1    H     H_    0.288293 0.653583 0.321286 0.163597
H2    H     H_    0.725274 0.602625 0.772070 0.161939
H3    H     H_    0.444873 0.381742 0.950638 0.222048
H4    H     H_    0.554668 0.620712 0.049945 0.220097
N1    N     N_R   0.037616 0.650295 0.533314 -0.235020
N2    N     N_R   0.964158 0.367415 0.447913 -0.238095
N3    N     N_R   0.968786 0.645887 0.529752 -0.232683
N4    N     N_R   0.032807 0.371848 0.449556 -0.236344
N5    N     N_2   0.480680 0.456420 0.038530 -0.225947
N6    N     N_2   0.519320 0.543580 0.961470 -0.222467
O1    O     O_R   0.505010 0.286130 0.619770 -0.597801
O2    O     O_R   0.494990 0.713870 0.380230 -0.606020
O3    O     O_R   0.491990 0.256780 0.308370 -0.576430
O4    O     O_R   0.508010 0.743220 0.691630 -0.575938
O5    O     O_R   0.406650 0.514660 0.655750 -0.589038
O6    O     O_R   0.593350 0.485340 0.344250 -0.580032
O7    O     O_R   0.393640 0.485310 0.344340 -0.595414
O8    O     O_R   0.606360 0.514690 0.655660 -0.577836
C21   C     C_3   0.288226 0.323171 0.744635 -0.414436
C22   C     C_3   0.302928 0.415612 0.945192 -0.791949
H5    H     H_    0.325238 0.335874 0.027045 0.241274
H6    H     H_    0.339800 0.519938 0.952435 0.261903
H7    H     H_    0.255156 0.460707 0.009139 0.256043
H8    H     H_    0.256799 0.210697 0.739061 0.204879
H9    H     H_    0.336918 0.281598 0.684785 0.191703
C23   C     C_3   0.702907 0.414445 0.120844 -0.355004
C24   C     C_3   0.668606 0.245527 0.064940 -0.765894
H10   H     H_    0.708478 0.156409 0.046373 0.233333
H11   H     H_    0.633765 0.221462 0.171525 0.256756
H12   H     H_    0.637701 0.230566 0.931956 0.242094
H13   H     H_    0.665141 0.505098 0.116039 0.204156
H14   H     H_    0.736699 0.434707 0.010789 0.190956
C25   C     C_3   0.135335 0.352347 0.749758 -0.836796
H15   H     H_    0.097834 0.435981 0.819226 0.232171
H16   H     H_    0.106807 0.244091 0.663789 0.252163
H17   H     H_    0.164017 0.314698 0.862237 0.237660
C26   C     C_3   0.852494 0.344726 0.150361 -0.842942
H18   H     H_    0.878361 0.243552 0.186646 0.252841
H19   H     H_    0.819008 0.288934 0.026241 0.235667
H20   H     H_    0.891947 0.427039 0.111139 0.233342
C27   C     C_3   0.152750 0.684838 0.267147 -0.837308
H21   H     H_    0.191248 0.731537 0.182648 0.224416
H22   H     H_    0.114263 0.603601 0.170504 0.234765
H23   H     H_    0.126648 0.787775 0.347001 0.253729
C28   C     C_3   0.862675 0.632534 0.827868 -0.842253
H24   H     H_    0.891438 0.745082 0.819502 0.254336
H25   H     H_    0.828725 0.659714 0.946451 0.223173
H26   H     H_    0.900023 0.546983 0.856696 0.233462
C29   C     C_3   0.418069 0.952226 0.266274 -0.364486
C30   C     C_3   0.350904 0.038086 0.268052 -0.876973
H27   H     H_    0.328788 0.055901 0.406183 0.247945
H28   H     H_    0.360188 0.155404 0.233132 0.265192
H29   H     H_    0.311991 0.964816 0.165302 0.239949
H30   H     H_    0.444501 0.951594 0.136890 0.217940
H31   H     H_    0.401853 0.827130 0.265833 0.231900
C31   C     C_3   0.440848 0.030945 0.757307 -0.372036
C32   C     C_3   0.374820 0.931706 0.776569 -0.852281
H32   H     H_    0.343674 0.896670 0.642917 0.250462
H33   H     H_    0.387401 0.822872 0.823547 0.273570
H34   H     H_    0.342447 0.003667 0.879141 0.243936
H35   H     H_    0.478397 0.038779 0.876630 0.210695
H36   H     H_    0.424414 0.151121 0.761441 0.211385

loop_
_geom_bond_atom_site_label_1
_geom_bond_atom_site_label_2
_ccdc_geom_bond_type
H3    N5    S    
C25   H15   S    
C27   H22   S    
H4    N6    S    
C5    O5    A    
N1    N3    A    
C21   C22   S    
C3    C29   S    
C1    O1    A    
Cu1   O4    S    
C20   N4    A    
C23   H14   S    
Cu2   O3    S    
C29   H30   S    
Cu1   O1    S    
Cu2   O6    S    
C15   C17   A    
C31   H35   S    
C24   H11   S    
C21   H8    S    
C6    O6    A    
C9    C25   S    
C2    O2    A    
C15   H1    S    
C27   H23   S    
C26   H18   S    
C16   H2    S    
Cu1   Cu2   S    
C22   H6    S    
C30   H29   S    
Cu2   O2    S    
C23   H13   S    
C6    C18   S    
Cu1   N6    S    
C11   C20   S    
C26   H19   S    
Cu2   N5    S    
C28   H24   S    
C30   H28   S    
C32   H33   S    
C31   C32   S    
C7    C17   A    
C8    C18   A    
C32   H32   S    
C1    C3    S    
C22   H7    S    
C2    C4    S    
C8    C23   S    
C4    C31   S    
N5    N6    D    
C13   C27   S    
C13   C15   A    
C14   C28   S    
C24   H12   S    
C21   H9    S    
C5    C17   S    
C19   N2    A    
C9    C11   A    
C10   C12   A    
C16   C18   A    
C23   C24   S    
C12   C14   A    
C25   H16   S    
C14   C16   A    
C22   H5    S    
C3    C4    D    
C19   N3    A    
C29   H31   S    
C1    O3    A    
C2    O4    A    
C7    C9    A    
C5    O7    A    
C26   H20   S    
C30   H27   S    
C32   H34   S    
C20   N1    A    
C28   H26   S    
N2    N4    A    
C10   C26   S    
C29   C30   S    
C11   C13   A    
Cu1   O8    S    
Cu2   O7    S    
C12   C19   S    
C6    O8    A    
C7    C21   S    
C27   H21   S    
C31   H36   S    
Cu1   O5    S    
C8    C10   A    
C24   H10   S    
C25   H17   S    
C28   H25   S    
