data_mof_unit_44193.cif
_audit_creation_date              2013-03-05T16:00:39-0500
_audit_creation_method            fapswitch 2.2
_symmetry_space_group_name_H-M    P1
_symmetry_Int_Tables_number       1
_space_group_crystal_system       triclinic
_cell_length_a                    18.999227
_cell_length_b                    19.090673
_cell_length_c                    18.459357
_cell_angle_alpha                 109.339949
_cell_angle_beta                  109.315825
_cell_angle_gamma                 110.539834
_cell_volume                      5103.17307362

loop_
_atom_site_label
_atom_site_type_symbol
_atom_site_description
_atom_site_fract_x
_atom_site_fract_y
_atom_site_fract_z
_atom_type_partial_charge
O1    O     O_R   0.591640 0.539900 0.448310 -0.611615
O2    O     O_R   0.591610 0.643330 0.551710 -0.625887
C1    C     C_R   0.622126 0.619781 0.502109 0.874891
O3    O     O_R   0.408400 0.448280 0.356670 -0.631415
O4    O     O_R   0.408370 0.551710 0.460080 -0.584304
C2    C     C_R   0.377747 0.496405 0.377906 0.943090
Zn1   Zn    Zn3+2 0.500020 0.430940 0.430950 1.070028
Zn2   Zn    Zn3+2 0.499980 0.569060 0.569050 1.025370
O5    O     O_R   0.408390 0.356670 0.448290 -0.570952
O6    O     O_R   0.408360 0.460100 0.551690 -0.607338
O7    O     O_R   0.591630 0.448290 0.539920 -0.596251
O8    O     O_R   0.591600 0.551720 0.643330 -0.638459
C3    C     C_R   0.380509 0.380484 0.500557 0.974964
C4    C     C_R   0.618971 0.500044 0.621681 0.861938
C5    C     C_R   0.322615 0.251235 0.183104 -0.332957
H1    H     H_    0.374508 0.245040 0.175259 0.223742
C6    C     C_R   0.313682 0.321124 0.183633 0.367700
C7    C     C_R   0.249406 0.332483 0.199974 -0.023034
C8    C     C_R   0.185876 0.265256 0.200437 -0.160956
C9    C     C_R   0.198232 0.196612 0.202659 0.191069
C10   C     C_R   0.268730 0.191606 0.196882 0.253701
C11   C     C_R   0.189392 0.418680 0.156456 0.260443
C12   C     C_R   0.186027 0.494935 0.179910 -0.185376
C13   C     C_R   0.247820 0.570202 0.263160 0.063376
C14   C     C_R   0.309307 0.568016 0.325952 -0.152052
H2    H     H_    0.356673 0.626731 0.390176 0.174795
C15   C     C_R   0.311201 0.492164 0.306722 -0.137116
C16   C     C_R   0.251654 0.416147 0.220837 -0.013884
C17   C     C_R   0.293073 0.708002 0.259557 -0.002744
C18   C     C_R   0.285053 0.780661 0.269977 -0.010448
C19   C     C_R   0.244409 0.803512 0.316946 -0.334112
H3    H     H_    0.239259 0.859894 0.325805 0.181299
C20   C     C_R   0.214014 0.757000 0.355978 0.241385
C21   C     C_R   0.214002 0.678904 0.337080 0.212277
C22   C     C_R   0.250068 0.653142 0.285560 -0.112889
C23   C     C_R   0.764027 0.756376 0.584703 -0.134302
C24   C     C_R   0.826106 0.820910 0.582710 0.261807
C25   C     C_R   0.811317 0.815160 0.500213 -0.183679
C26   C     C_R   0.732795 0.746708 0.419793 -0.037682
C27   C     C_R   0.675514 0.680192 0.422738 -0.266297
H4    H     H_    0.616007 0.626246 0.361881 0.174665
C28   C     C_R   0.689986 0.685490 0.503756 -0.112384
C29   C     C_R   0.685825 0.516034 0.772415 -0.096975
C30   C     C_R   0.747193 0.509767 0.833354 0.255654
C31   C     C_R   0.813362 0.503217 0.818503 -0.147213
C32   C     C_R   0.814369 0.495113 0.741193 -0.218259
H5    H     H_    0.864753 0.488738 0.729675 0.166198
C33   C     C_R   0.748061 0.490729 0.676259 -0.176421
H6    H     H_    0.748507 0.482052 0.615362 0.164117
C34   C     C_R   0.684143 0.501588 0.691199 -0.081181
C35   C     C_R   0.237306 0.314876 0.487183 0.180614
C36   C     C_R   0.171370 0.247267 0.481265 0.238917
C37   C     C_R   0.187602 0.186480 0.500040 -0.243547
C38   C     C_R   0.268270 0.190413 0.518837 -0.111295
C39   C     C_R   0.330408 0.253615 0.515957 0.241879
C40   C     C_R   0.314555 0.315046 0.500546 -0.325771
O9    O     O_R   0.948300 0.539910 0.091570 -0.536031
O10   O     O_R   0.051750 0.643320 0.091550 -0.643858
C41   C     C_R   0.998807 0.620039 0.119582 0.930519
O11   O     O_R   0.039910 0.448280 0.091610 -0.564153
O12   O     O_R   0.143370 0.551700 0.091590 -0.667137
C42   C     C_R   0.119776 0.497367 0.116992 0.938935
Zn3   Zn    Zn3+2 0.930950 0.430940 0.999980 1.181137
Zn4   Zn    Zn3+2 0.069100 0.569040 0.999960 0.935927
O13   O     O_R   0.948300 0.356650 0.908390 -0.547272
O14   O     O_R   0.051750 0.460070 0.908380 -0.645981
O15   O     O_R   0.856690 0.448280 0.908350 -0.548272
O16   O     O_R   0.960140 0.551690 0.908340 -0.654535
C43   C     C_R   0.997961 0.380068 0.876735 0.936874
C44   C     C_R   0.879930 0.500900 0.881085 0.922391
O17   O     O_R   0.051710 0.908290 0.460000 -0.613979
O18   O     O_R   0.948270 0.908330 0.356580 -0.602857
C45   C     C_R   0.996642 0.877983 0.379175 0.948045
O19   O     O_R   0.960090 0.908280 0.551610 -0.591323
O20   O     O_R   0.856650 0.908310 0.448190 -0.648361
C46   C     C_R   0.879243 0.879177 0.499052 0.905897
Zn5   Zn    Zn3+2 0.069070 0.999890 0.568970 1.027886
Zn6   Zn    Zn3+2 0.930930 0.999930 0.430860 1.072067
O21   O     O_R   0.051730 0.091500 0.643240 -0.604762
O22   O     O_R   0.948290 0.091530 0.539820 -0.608878
O23   O     O_R   0.143350 0.091510 0.551630 -0.650711
O24   O     O_R   0.039910 0.091550 0.448210 -0.541008
C47   C     C_R   0.000915 0.119437 0.621134 0.938024
C48   C     C_R   0.120464 0.119556 0.499268 1.002818
C49   C     C_R   0.014540 0.765467 0.185674 -0.138955
C50   C     C_R   0.012733 0.827904 0.249780 0.264271
C51   C     C_R   0.993162 0.811132 0.311340 -0.175540
C52   C     C_R   0.970312 0.731246 0.308149 -0.106263
C53   C     C_R   0.968640 0.667211 0.242135 0.297320
C54   C     C_R   0.993635 0.685088 0.182814 -0.220853
C55   C     C_R   0.071886 0.336414 0.796841 -0.052857
C56   C     C_R   0.077509 0.269469 0.743069 -0.037965
C57   C     C_R   0.003971 0.185542 0.689704 -0.097686
C58   C     C_R   0.927971 0.166257 0.693195 -0.203053
H7    H     H_    0.871019 0.101399 0.648545 0.184945
C59   C     C_R   0.923616 0.229997 0.751687 0.317857
C60   C     C_R   0.997109 0.315155 0.806586 -0.203318
N1    N     N_R   0.287127 0.127032 0.206146 0.234640
O25   O     O_R   0.325890 0.099598 0.167559 -0.430436
O26   O     O_R   0.276304 0.104260 0.262563 -0.338669
N2    N     N_R   0.184164 0.790185 0.414116 0.199006
O27   O     O_R   0.174061 0.855506 0.420683 -0.444926
O28   O     O_R   0.177281 0.763275 0.468914 -0.346385
N3    N     N_R   0.182264 0.627499 0.373278 0.262977
O29   O     O_R   0.232371 0.651072 0.455223 -0.313111
O30   O     O_R   0.118438 0.547382 0.319481 -0.361403
C61   C     C_R   0.775918 0.765413 0.671586 0.167313
C62   C     C_R   0.793210 0.709388 0.697763 -0.108565
C63   C     C_R   0.807807 0.720816 0.781346 -0.132289
C64   C     C_R   0.804915 0.787699 0.838916 -0.090229
C65   C     C_R   0.786987 0.843190 0.812912 -0.115829
C66   C     C_R   0.772587 0.832243 0.729574 -0.055905
H8    H     H_    0.796299 0.657743 0.653970 0.101810
H9    H     H_    0.821596 0.678013 0.801700 0.123584
H10   H     H_    0.816832 0.796741 0.903771 0.142314
H11   H     H_    0.784743 0.894993 0.857526 0.141656
H12   H     H_    0.759336 0.876018 0.710318 0.149142
N4    N     N_R   0.902289 0.894084 0.664759 0.213006
O31   O     O_R   0.918062 0.972303 0.686076 -0.399627
O32   O     O_R   0.953979 0.882402 0.719905 -0.381074
C67   C     C_R   0.706046 0.742724 0.332165 0.119541
C68   C     C_R   0.687608 0.804419 0.319412 -0.082652
C69   C     C_R   0.659172 0.798740 0.236346 -0.135757
C70   C     C_R   0.646022 0.729905 0.164308 -0.117956
C71   C     C_R   0.659456 0.665717 0.174851 -0.114602
C72   C     C_R   0.687660 0.671231 0.257837 -0.197522
H13   H     H_    0.694757 0.856689 0.373809 0.140588
H14   H     H_    0.646360 0.847185 0.227622 0.134931
H15   H     H_    0.623531 0.725244 0.099889 0.130177
H16   H     H_    0.646344 0.610755 0.118309 0.172328
H17   H     H_    0.691818 0.618114 0.263177 0.145883
C73   C     C_R   0.632624 0.547624 0.800367 0.165724
C74   C     C_R   0.541199 0.498574 0.751885 -0.042998
C75   C     C_R   0.493499 0.531950 0.778153 -0.133142
C76   C     C_R   0.536181 0.612590 0.854718 -0.121433
C77   C     C_R   0.627044 0.660826 0.904721 -0.140050
C78   C     C_R   0.675108 0.628773 0.877567 -0.100788
H18   H     H_    0.507075 0.436022 0.692606 0.146657
H19   H     H_    0.423467 0.495794 0.738684 0.133963
H20   H     H_    0.498841 0.637795 0.875049 0.134040
H21   H     H_    0.660279 0.723342 0.964107 0.138000
H22   H     H_    0.745596 0.667308 0.916559 0.122272
N5    N     N_R   0.740243 0.507927 0.908210 0.211324
O33   O     O_R   0.806398 0.560490 0.988770 -0.437726
O34   O     O_R   0.665574 0.456583 0.896145 -0.345949
N6    N     N_R   0.226078 0.384422 0.482614 0.241478
O35   O     O_R   0.249365 0.416023 0.436537 -0.412438
O36   O     O_R   0.194056 0.417931 0.526580 -0.340311
N7    N     N_R   0.087335 0.239515 0.452502 0.258541
O37   O     O_R   0.054492 0.244904 0.504331 -0.406814
O38   O     O_R   0.047746 0.236345 0.377898 -0.300224
C79   C     C_R   0.290428 0.129262 0.539640 0.184847
C80   C     C_R   0.318328 0.141213 0.625718 -0.069084
C81   C     C_R   0.351399 0.092734 0.650075 -0.137416
C82   C     C_R   0.360619 0.034515 0.589980 -0.026080
C83   C     C_R   0.335909 0.024220 0.505318 -0.067193
C84   C     C_R   0.299272 0.069862 0.479300 -0.020153
H23   H     H_    0.315340 0.188685 0.674191 0.138225
H24   H     H_    0.371863 0.101908 0.716276 0.143063
H25   H     H_    0.388033 0.998280 0.609373 0.149178
H26   H     H_    0.346190 0.981474 0.460446 0.120844
H27   H     H_    0.281582 0.061965 0.413780 0.187979
N8    N     N_R   0.412124 0.258325 0.533567 0.189749
O39   O     O_R   0.466700 0.278290 0.612322 -0.413766
O40   O     O_R   0.424255 0.226973 0.467640 -0.331508
C85   C     C_R   0.040927 0.787263 0.124675 0.180634
C86   C     C_R   0.982363 0.740800 0.032506 -0.083402
C87   C     C_R   0.008494 0.760614 0.975894 -0.130870
C88   C     C_R   0.092275 0.828556 0.010892 -0.106315
C89   C     C_R   0.150029 0.876930 0.102615 -0.050269
C90   C     C_R   0.124689 0.856492 0.159311 -0.048033
H28   H     H_    0.916920 0.689173 0.004415 0.146815
H29   H     H_    0.963939 0.723185 0.904849 0.134835
H30   H     H_    0.112276 0.844020 0.967003 0.153284
H31   H     H_    0.214534 0.930209 0.129819 0.201224
H32   H     H_    0.170090 0.895246 0.230185 0.141166
N9    N     N_R   0.031399 0.909051 0.252869 0.217371
O41   O     O_R   0.984340 0.910071 0.183992 -0.329356
O42   O     O_R   0.097071 0.981741 0.323406 -0.394326
C91   C     C_R   0.942063 0.711011 0.369103 0.100042
C92   C     C_R   0.001307 0.750820 0.460388 -0.003174
C93   C     C_R   0.973906 0.729250 0.515551 -0.116494
C94   C     C_R   0.887745 0.665848 0.479863 -0.101197
C95   C     C_R   0.829171 0.623489 0.388851 -0.121439
C96   C     C_R   0.856105 0.646085 0.333826 -0.107651
H33   H     H_    0.068752 0.798528 0.489406 0.213655
H34   H     H_    0.019714 0.761338 0.585932 0.158199
H35   H     H_    0.866552 0.649059 0.522538 0.140116
H36   H     H_    0.762771 0.573237 0.360993 0.155523
H37   H     H_    0.810372 0.612262 0.263223 0.167481
N10   N     N_R   0.943475 0.584805 0.237557 0.210542
O43   O     O_R   0.864773 0.519489 0.178177 -0.351226
O44   O     O_R   0.988726 0.581558 0.305447 -0.311517
C97   C     C_R   0.138506 0.427559 0.831326 0.157289
C98   C     C_R   0.224682 0.467091 0.899493 -0.111218
C99   C     C_R   0.287358 0.549966 0.924701 -0.169253
C100  C     C_R   0.264060 0.594715 0.884319 -0.126384
C101  C     C_R   0.178346 0.556185 0.817255 -0.122634
C102  C     C_R   0.115986 0.472614 0.790089 -0.112190
H38   H     H_    0.243525 0.432986 0.931227 0.164333
H39   H     H_    0.354407 0.579537 0.974727 0.131940
H40   H     H_    0.312658 0.658978 0.904480 0.132382
H41   H     H_    0.160461 0.590623 0.785511 0.145137
H42   H     H_    0.050124 0.442637 0.736648 0.136474
N11   N     N_R   0.374133 0.383025 0.173568 0.224601
O45   O     O_R   0.351555 0.426143 0.138726 -0.397395
O46   O     O_R   0.450461 0.392232 0.193535 -0.406758
C103  C     C_R   0.159374 0.288460 0.741213 0.065639
C104  C     C_R   0.184494 0.334089 0.699756 -0.083717
C105  C     C_R   0.265231 0.359064 0.705275 -0.155498
C106  C     C_R   0.322465 0.340510 0.753960 -0.148958
C107  C     C_R   0.298378 0.296055 0.796546 -0.143108
C108  C     C_R   0.216807 0.269526 0.789767 -0.088555
H43   H     H_    0.142730 0.352818 0.665794 0.193959
H44   H     H_    0.283154 0.393289 0.672117 0.152322
H45   H     H_    0.385247 0.360142 0.758418 0.160523
H46   H     H_    0.342853 0.281981 0.834602 0.154793
H47   H     H_    0.199215 0.236245 0.824051 0.173218
N12   N     N_R   0.841999 0.208715 0.749033 0.221628
O47   O     O_R   0.808565 0.256520 0.740787 -0.381326
O48   O     O_R   0.794055 0.134035 0.738757 -0.365415
C109  C     C_R   0.100986 0.258814 0.186142 0.157297
C110  C     C_R   0.096389 0.326677 0.241011 -0.063547
C111  C     C_R   0.015849 0.318268 0.225196 -0.015968
C112  C     C_R   0.938782 0.242273 0.154183 -0.096986
C113  C     C_R   0.942134 0.174725 0.098471 -0.088324
C114  C     C_R   0.022551 0.182955 0.114004 0.004938
H48   H     H_    0.154463 0.386912 0.294866 0.197570
H49   H     H_    0.013212 0.370955 0.267851 0.202874
H50   H     H_    0.876497 0.235969 0.141976 0.150990
H51   H     H_    0.882401 0.116068 0.042892 0.141344
H52   H     H_    0.023644 0.130299 0.069058 0.153368
N13   N     N_R   0.138150 0.131040 0.209009 0.237237
O49   O     O_R   0.102939 0.049297 0.152923 -0.317388
O50   O     O_R   0.116346 0.152802 0.269046 -0.322458
N14   N     N_R   0.132365 0.345453 0.067125 0.183178
O51   O     O_R   0.048304 0.305660 0.032972 -0.388258
O52   O     O_R   0.164708 0.314723 0.021733 -0.370615
C115  C     C_R   0.362463 0.700055 0.244550 0.131314
C116  C     C_R   0.443745 0.738743 0.320155 -0.155849
C117  C     C_R   0.502455 0.712481 0.314576 -0.174797
C118  C     C_R   0.480828 0.647989 0.233314 -0.043800
C119  C     C_R   0.402253 0.612465 0.156998 -0.084018
C120  C     C_R   0.343408 0.638972 0.162008 -0.166038
H53   H     H_    0.458930 0.784625 0.384701 0.141851
H54   H     H_    0.563124 0.740037 0.374099 0.148012
H55   H     H_    0.524012 0.624321 0.229189 0.158415
H56   H     H_    0.385642 0.561609 0.094862 0.153032
H57   H     H_    0.282039 0.608581 0.102420 0.167411
C121  C     C_R   0.318093 0.832722 0.231821 0.124358
C122  C     C_R   0.292884 0.791804 0.141258 -0.130850
C123  C     C_R   0.322836 0.840637 0.104550 -0.190704
C124  C     C_R   0.377545 0.930685 0.157664 -0.094533
C125  C     C_R   0.402230 0.972023 0.247530 -0.060557
C126  C     C_R   0.372689 0.923360 0.284587 -0.184465
H58   H     H_    0.249008 0.722321 0.098773 0.136720
H59   H     H_    0.303054 0.808707 0.034750 0.139180
H60   H     H_    0.400368 0.968480 0.129074 0.163543
H61   H     H_    0.444303 0.041815 0.288512 0.180597
H62   H     H_    0.393083 0.956257 0.354437 0.141277

loop_
_geom_bond_atom_site_label_1
_geom_bond_atom_site_label_2
_geom_bond_distance
_ccdc_geom_bond_type
C78   H22   1.083068 S    
Zn3   O13   2.021654 S    
C1    C28   1.432019 S    
C57   C58   1.388850 A    
Zn6   O24   2.024344 S    
O12   Zn4   2.020232 S    
C61   C66   1.405156 A    
C38   C39   1.391710 A    
C23   C28   1.406126 A    
N8    O39   1.300889 A    
O17   Zn5   2.009848 S    
C20   C21   1.414118 A    
C39   C40   1.399707 A    
C111  C112  1.395357 A    
N3    O30   1.300698 A    
C69   H14   1.082219 S    
C69   C70   1.396412 A    
C25   C46   1.445152 S    
C37   C38   1.423088 A    
C95   C96   1.399575 A    
C101  C102  1.396853 A    
Zn1   O7    2.005826 S    
C80   C81   1.396503 A    
C103  C104  1.401309 A    
C71   C72   1.398374 A    
O19   C46   1.291345 A    
O11   Zn3   2.021854 S    
C20   N2    1.441922 S    
C49   C85   1.493235 S    
C72   H17   1.077729 S    
O11   C42   1.281100 A    
C23   C24   1.396191 A    
N8    O40   1.300875 A    
C115  C116  1.403282 A    
N5    O33   1.299319 A    
C21   C22   1.404863 A    
N7    O38   1.301350 A    
C49   C50   1.394132 A    
C66   H12   1.083186 S    
Zn2   O6    2.026891 S    
O7    C4    1.287401 A    
Zn6   O22   2.009728 S    
O9    C41   1.282968 A    
O14   C43   1.279509 A    
C107  H46   1.082274 S    
C100  C101  1.395780 A    
C119  C120  1.396059 A    
C47   C57   1.428316 S    
C102  H42   1.083254 S    
O13   C43   1.293560 A    
C80   H23   1.076008 S    
C35   C36   1.388755 A    
C62   C63   1.398758 A    
N5    O34   1.301362 A    
C117  C118  1.396003 A    
C88   C89   1.395644 A    
C68   H13   1.083278 S    
C99   H39   1.079847 S    
O5    C3    1.278558 A    
C93   C94   1.395284 A    
C45   C51   1.424307 S    
C112  H50   1.082260 S    
O18   Zn6   2.039987 S    
C68   C69   1.398402 A    
C126  H62   1.081401 S    
C76   H20   1.082463 S    
C71   H16   1.082404 S    
C12   C42   1.430049 S    
C24   N4    1.438728 S    
C65   C66   1.397710 A    
C73   C74   1.403614 A    
N9    O42   1.300518 A    
O19   Zn5   2.024171 S    
C6    C7    1.419706 A    
C94   H35   1.082552 S    
C12   C13   1.401688 A    
C19   C20   1.407215 A    
C52   C91   1.498404 S    
C65   H11   1.082332 S    
C17   C18   1.405444 A    
N13   O49   1.301460 A    
C55   C56   1.398470 A    
O18   C45   1.278388 A    
C3    C40   1.425494 S    
C77   H21   1.082357 S    
C27   C28   1.389504 A    
C97   C98   1.405219 A    
C31   C44   1.429193 S    
C74   H18   1.079642 S    
C86   C87   1.398169 A    
C11   C16   1.400778 A    
N4    O31   1.301236 A    
C23   C61   1.484146 S    
C85   C86   1.405360 A    
C87   H29   1.080506 S    
C8    C109  1.497933 S    
N10   O43   1.301627 A    
O22   C47   1.280723 A    
C124  H60   1.082227 S    
O20   Zn6   2.022483 S    
C11   C12   1.406042 A    
N3    O29   1.301073 A    
C55   C60   1.424183 A    
C123  H59   1.082409 S    
O9    Zn3   2.028627 S    
N6    O36   1.301501 A    
C89   H31   1.080989 S    
Zn5   O21   2.040039 S    
O10   Zn4   2.021562 S    
C25   C26   1.420929 A    
C49   C54   1.421269 A    
C32   C33   1.375307 A    
C82   C83   1.395646 A    
C13   C22   1.478882 S    
C67   C68   1.408525 A    
C120  H57   1.077101 S    
C4    C34   1.441872 S    
C114  H52   1.083018 S    
C117  H54   1.080034 S    
N2    O27   1.299933 A    
C76   C77   1.395546 A    
C106  H45   1.082101 S    
C13   C14   1.371283 A    
C53   N10   1.438077 S    
C110  C111  1.397706 A    
C104  C105  1.393524 A    
N14   O51   1.300222 A    
C75   H19   1.076463 S    
O17   C45   1.275225 A    
C55   C97   1.490919 S    
C50   C51   1.403230 A    
C7    C8    1.425182 A    
C38   C79   1.490769 S    
C98   C99   1.400519 A    
C35   N6    1.440956 S    
O3    Zn1   2.036108 S    
C14   H2    1.085334 S    
C92   C93   1.398376 A    
C50   N9    1.439278 S    
C21   N3    1.434851 S    
C18   C121  1.482002 S    
O1    C1    1.282130 A    
C41   C54   1.454529 S    
Zn4   O14   2.028547 S    
C62   H8    1.083093 S    
C88   H30   1.082253 S    
O20   C46   1.273525 A    
N10   O44   1.299843 A    
Zn3   O15   2.020140 S    
C24   C25   1.412298 A    
C124  C125  1.397528 A    
C104  H43   1.081174 S    
N12   O48   1.301395 A    
C36   N7    1.440227 S    
C2    C15   1.445797 S    
Zn5   O23   2.022608 S    
C18   C19   1.402521 A    
Zn2   O8    2.036108 S    
C59   C60   1.413999 A    
C9    C10   1.411422 A    
C112  C113  1.395420 A    
C122  C123  1.397628 A    
C7    C16   1.495013 S    
C58   H7    1.084983 S    
C64   C65   1.396618 A    
C29   C73   1.489368 S    
C107  C108  1.397468 A    
C58   C59   1.383072 A    
N13   O50   1.300736 A    
C81   C82   1.394673 A    
C115  C120  1.405156 A    
C63   H9    1.079792 S    
N9    O41   1.301112 A    
C11   N14   1.440736 S    
O3    C2    1.274692 A    
C27   H4    1.085029 S    
O8    C4    1.280516 A    
C83   H26   1.077657 S    
C119  H56   1.079698 S    
O24   C48   1.286181 A    
C37   C48   1.446349 S    
C29   C30   1.399471 A    
C74   C75   1.397746 A    
C31   C32   1.390956 A    
C113  H51   1.082364 S    
C61   C62   1.403309 A    
Zn4   O16   2.021683 S    
N12   O47   1.301702 A    
O23   C48   1.279888 A    
C81   H24   1.082298 S    
C36   C37   1.417290 A    
N6    O35   1.297953 A    
N2    O28   1.299532 A    
C121  C126  1.405196 A    
C5    C6    1.400148 A    
N11   O45   1.300450 A    
C32   H5    1.084266 S    
C87   C88   1.396209 A    
C116  C117  1.392982 A    
C118  C119  1.392332 A    
C82   H25   1.082326 S    
O1    Zn1   2.026891 S    
C109  C114  1.409521 A    
C19   H3    1.078338 S    
O2    Zn2   2.020069 S    
C30   C31   1.409560 A    
C35   C40   1.404127 A    
C99   C100  1.396529 A    
O6    C3    1.279092 A    
C116  H53   1.083553 S    
C8    C9    1.420980 A    
O4    Zn2   2.005826 S    
C64   H10   1.081987 S    
C92   H33   1.078093 S    
C29   C34   1.418781 A    
C103  C108  1.403212 A    
C86   H28   1.077623 S    
C56   C103  1.483104 S    
C14   C15   1.388804 A    
C59   N12   1.437515 S    
C90   H32   1.080532 S    
C17   C22   1.409559 A    
C75   C76   1.396341 A    
N1    O26   1.301796 A    
C118  H55   1.077866 S    
C26   C67   1.492690 S    
C100  H40   1.082368 S    
O15   C44   1.275950 A    
C123  C124  1.397313 A    
C125  C126  1.398234 A    
C6    N11   1.443711 S    
O2    C1    1.279859 A    
O10   C41   1.288423 A    
C39   N8    1.439771 S    
C67   C72   1.405485 A    
N7    O37   1.300043 A    
O21   C47   1.275885 A    
C10   N1    1.439972 S    
C110  H48   1.074651 S    
C122  H58   1.082607 S    
O4    C2    1.295576 A    
C5    C10   1.398166 A    
C125  H61   1.082348 S    
C30   N5    1.441403 S    
C33   H6    1.084019 S    
C5    H1    1.082573 S    
C84   H27   1.083151 S    
C33   C34   1.397896 A    
C56   C57   1.401012 A    
N1    O25   1.301793 A    
N14   O52   1.300715 A    
C70   H15   1.082422 S    
C79   C84   1.405607 A    
C93   H34   1.082288 S    
C105  C106  1.396493 A    
O12   C42   1.277348 A    
C98   H38   1.082905 S    
C94   C95   1.395228 A    
N4    O32   1.301206 A    
C121  C122  1.406098 A    
C91   C96   1.403178 A    
C108  H47   1.083117 S    
C106  C107  1.398210 A    
C26   C27   1.383826 A    
C97   C102  1.406679 A    
Zn1   O5    2.020068 S    
C96   H37   1.081768 S    
C85   C90   1.406910 A    
C83   C84   1.398592 A    
C52   C53   1.393142 A    
C51   C52   1.405989 A    
O16   C44   1.283908 A    
C113  C114  1.397549 A    
C89   C90   1.396891 A    
C63   C64   1.397074 A    
C101  H41   1.082259 S    
C9    N13   1.437638 S    
C95   H36   1.082177 S    
C77   C78   1.396917 A    
C79   C80   1.405553 A    
C73   C78   1.407702 A    
C53   C54   1.420873 A    
C111  H49   1.082159 S    
N11   O46   1.301676 A    
C109  C110  1.407393 A    
C17   C115  1.480508 S    
C91   C92   1.407387 A    
C105  H44   1.078953 S    
C70   C71   1.396121 A    
C15   C16   1.427183 A    
C43   C60   1.456685 S    
