data_mof_unit_26170.cif
_audit_creation_date              2012-12-10T17:09:56-0500
_audit_creation_method            fapswitch 2.2
_symmetry_space_group_name_H-M    P1
_symmetry_Int_Tables_number       1
_space_group_crystal_system       triclinic
_cell_length_a                    10.925458
_cell_length_b                    13.156292
_cell_length_c                    11.772319
_cell_angle_alpha                 98.098684
_cell_angle_beta                  93.422142
_cell_angle_gamma                 92.302771
_cell_volume                      1670.25008424

loop_
_atom_site_label
_atom_site_type_symbol
_atom_type_description
_atom_site_fract_x
_atom_site_fract_y
_atom_site_fract_z
_atom_type_partial_charge
C1    C     C_R   0.496912 0.299813 0.480031 0.950485
C2    C     C_R   0.071522 0.595616 0.538730 -0.060426
C3    C     C_R   0.128866 0.503191 0.502144 -0.139995
C4    C     C_R   0.057873 0.410668 0.471892 0.228603
C5    C     C_R   0.929550 0.410939 0.468365 0.339933
C6    C     C_R   0.871527 0.503106 0.499665 -0.150043
C7    C     C_R   0.504703 0.815900 0.536276 -0.264259
C8    C     C_R   0.490068 0.187177 0.470875 -0.270245
C9    C     C_R   0.426679 0.019784 0.364351 0.450143
C10   C     C_R   0.426764 0.126566 0.374551 0.303857
C11   C     C_R   0.542620 0.139433 0.561317 0.420217
C12   C     C_R   0.262730 0.501105 0.500754 0.876074
C13   C     C_R   0.521157 0.032914 0.559739 -0.184781
C14   C     C_R   0.480755 0.973357 0.454278 -0.197589
C15   C     C_R   0.499749 0.868492 0.440298 0.445882
C16   C     C_R   0.510436 0.875875 0.647150 0.326316
C17   C     C_R   0.535099 0.982606 0.658239 0.455224
C18   C     C_R   0.452020 0.369947 0.027320 0.247274
C19   C     C_R   0.487914 0.385857 0.145925 0.381596
C20   C     C_R   0.476468 0.563259 0.149222 0.485775
C21   C     C_R   0.504018 0.548823 0.030692 -0.245452
C22   C     C_R   0.467737 0.454031 0.965370 -0.219291
C23   C     C_R   0.502322 0.701137 0.521165 0.936818
C24   C     C_R   0.459902 0.447895 0.843091 0.544916
C25   C     C_R   0.588739 0.598785 0.857491 0.486749
C26   C     C_R   0.570803 0.620793 0.976632 0.233201
C27   C     C_R   0.737338 0.500386 0.499699 0.901389
C28   C     C_R   0.137410 0.691533 0.564647 0.126975
C29   C     C_R   0.085574 0.772889 0.632406 0.230539
C30   C     C_R   0.958069 0.771029 0.637105 0.374590
C31   C     C_R   0.888712 0.689582 0.571327 0.178508
C32   C     C_R   0.942516 0.595035 0.539726 -0.085652
Cu1   Cu    Cu3+1 0.509250 0.507730 0.615930 1.126239
Cu2   Cu    Cu3+1 0.490750 0.492270 0.384070 1.126547
N1    N     N_R   0.523180 0.519350 0.790130 -0.283641
N2    N     N_R   0.476820 0.480650 0.209890 -0.282573
O1    O     O_R   0.506570 0.354460 0.582000 -0.526734
O2    O     O_R   0.490940 0.341410 0.386200 -0.541819
O3    O     O_R   0.327470 0.506530 0.597920 -0.554315
O4    O     O_R   0.311840 0.493480 0.402120 -0.541549
O5    O     O_R   0.509060 0.658590 0.613800 -0.533563
O6    O     O_R   0.493430 0.645540 0.418000 -0.524576
O7    O     O_R   0.688160 0.506520 0.597880 -0.543293
O8    O     O_R   0.672530 0.493470 0.402080 -0.546264
Br1   Br    Br    0.136092 0.281958 0.443039 -0.241726
Cl1   Cl    Cl    0.565032 0.049779 0.798629 -0.265719
Cl2   Cl    Cl    0.345705 0.180641 0.264411 -0.376655
Cl3   Cl    Cl    0.656974 0.208428 0.659260 -0.379600
Cl4   Cl    Cl    0.350733 0.360894 0.761476 -0.443067
Cl5   Cl    Cl    0.702203 0.669709 0.797602 -0.437009
Br2   Br    Br    0.416629 0.230156 0.957412 -0.113445
Br3   Br    Br    0.658169 0.737677 0.064653 -0.117937
Br4   Br    Br    0.615589 0.298418 0.187610 -0.221900
Br5   Br    Br    0.353423 0.659774 0.181668 -0.202773
Br6   Br    Br    0.226252 0.733428 0.443691 -0.364060
Br7   Br    Br    0.182710 0.896773 0.689039 -0.207392
Cl6   Cl    Cl    0.884137 0.880445 0.698499 -0.329332
Br8   Br    Br    0.776905 0.731710 0.460410 -0.341782
Cl7   Cl    Cl    0.841113 0.294184 0.429590 -0.416996
Cl8   Cl    Cl    0.559198 0.817526 0.310972 -0.375406
Cl9   Cl    Cl    0.479761 0.823547 0.773976 -0.374307
Cl10  Cl    Cl    0.339997 0.945164 0.247139 -0.272687

loop_
_geom_bond_atom_site_label_1
_geom_bond_atom_site_label_2
_ccdc_geom_bond_type
C12   O4    A    
C6    C32   A    
C9    C14   A    
C29   C30   A    
C3    C12   S    
C29   Br7   S    
C1    O1    A    
C1    C8    S    
C15   Cl8   S    
C31   C32   A    
Cu2   O6    S    
C13   C17   A    
C21   C26   A    
Cu1   O5    S    
C19   Br4   S    
C12   O3    A    
C7    C15   A    
C2    C3    A    
C25   C26   A    
C18   C22   A    
C13   C14   A    
C20   C21   A    
C2    C32   A    
C4    C5    A    
C11   C13   A    
C11   Cl3   S    
Cu1   O3    S    
C23   O6    A    
C1    O2    A    
C25   N1    A    
C8    C11   A    
Cu2   O4    S    
C5    C6    A    
C31   Br8   S    
C21   C22   A    
C28   C29   A    
Cu1   N1    S    
C28   Br6   S    
C18   Br2   S    
Cu1   Cu2   S    
C26   Br3   S    
Cu2   N2    S    
C4    Br1   S    
C30   C31   A    
C7    C23   S    
C23   O5    A    
C24   N1    A    
C16   Cl9   S    
C5    Cl7   S    
C9    Cl10  S    
C20   N2    A    
C30   Cl6   S    
C27   O7    A    
C24   Cl4   S    
Cu2   O8    S    
C17   Cl1   S    
C20   Br5   S    
C18   C19   A    
C9    C10   A    
C22   C24   A    
C10   Cl2   S    
C25   Cl5   S    
C7    C16   A    
C2    C28   A    
C14   C15   A    
C19   N2    A    
Cu2   O2    S    
C27   O8    A    
C8    C10   A    
Cu1   O1    S    
C3    C4    A    
C6    C27   S    
C16   C17   A    
Cu1   O7    S    
