data_mof_unit_35870.cif
_audit_creation_date              2012-12-10T17:39:23-0500
_audit_creation_method            fapswitch 2.2
_symmetry_space_group_name_H-M    P1
_symmetry_Int_Tables_number       1
_space_group_crystal_system       triclinic
_cell_length_a                    12.365294
_cell_length_b                    13.223703
_cell_length_c                    27.773903
_cell_angle_alpha                 76.683734
_cell_angle_beta                  101.034124
_cell_angle_gamma                 117.133149
_cell_volume                      3913.39256031

loop_
_atom_site_label
_atom_site_type_symbol
_atom_type_description
_atom_site_fract_x
_atom_site_fract_y
_atom_site_fract_z
_atom_type_partial_charge
C1    C     C_R   0.854907 0.286541 0.504880 0.777795
C2    C     C_R   0.013227 0.416823 0.731786 -0.141574
C3    C     C_R   0.002260 0.506752 0.745457 0.217711
C4    C     C_R   0.996594 0.501566 0.897360 -0.109259
C5    C     C_R   0.887185 0.473353 0.865107 -0.130953
C6    C     C_R   0.776386 0.440113 0.884615 0.493314
C7    C     C_R   0.106958 0.531805 0.878155 0.000834
C8    C     C_R   0.000561 0.502549 0.644830 -0.212857
C9    C     C_R   0.998419 0.497815 0.355044 -0.011166
C10   C     C_R   0.883147 0.459115 0.019862 0.069998
C11   C     C_R   0.107886 0.536137 0.030936 0.038937
C12   C     C_R   0.999971 0.500450 0.592171 0.892563
C13   C     C_R   0.995182 0.496850 0.050747 0.068735
C14   C     C_R   0.772996 0.413363 0.042202 -0.207837
C15   C     C_R   0.773366 0.410478 0.092535 -0.151103
C16   C     C_R   0.883302 0.452291 0.122728 -0.019328
C17   C     C_R   0.994480 0.495144 0.102058 -0.048350
C18   C     C_R   0.104958 0.536258 0.132818 -0.018442
C19   C     C_R   0.102335 0.534950 0.183262 0.532565
C20   C     C_R   0.884631 0.451201 0.173503 0.531789
C21   C     C_R   0.039608 0.426732 0.290894 -0.131505
C22   C     C_R   0.043779 0.430141 0.341045 -0.201303
C23   C     C_R   0.144959 0.713340 0.492922 0.871716
C24   C     C_R   0.949068 0.562065 0.318266 -0.220052
C25   C     C_R   0.947256 0.560307 0.268130 -0.099695
C26   C     C_R   0.992790 0.492821 0.254223 0.358339
C27   C     C_R   0.884513 0.466442 0.968086 -0.019531
C28   C     C_R   0.996154 0.499672 0.948750 0.069270
C29   C     C_R   0.107757 0.532109 0.980215 0.060743
C30   C     C_R   0.777460 0.442435 0.934793 -0.302849
C31   C     C_R   0.215154 0.558872 0.909781 -0.146731
C32   C     C_R   0.217276 0.579053 0.062725 -0.208190
C33   C     C_R   0.215549 0.578896 0.112591 -0.146449
C34   C     C_R   0.000024 0.499769 0.407758 0.787612
C35   C     C_R   0.215774 0.558836 0.959755 -0.208745
C36   C     C_R   0.282684 0.017599 0.427554 -0.192232
C37   C     C_R   0.227864 0.835176 0.482473 -0.118332
C38   C     C_R   0.813559 0.083806 0.538655 -0.149801
C39   C     C_R   0.734518 0.967580 0.547214 -0.158804
C40   C     C_R   0.612167 0.930019 0.528772 -0.113835
C41   C     C_R   0.566520 0.008748 0.500650 0.084559
C42   C     C_R   0.651615 0.123388 0.485320 0.068729
C43   C     C_R   0.440344 0.976332 0.484901 -0.012587
C44   C     C_R   0.405240 0.051109 0.446694 0.109235
C45   C     C_R   0.892521 0.479149 0.814129 0.573025
C46   C     C_R   0.493030 0.157693 0.427174 -0.209375
C47   C     C_R   0.614193 0.193856 0.446358 -0.184173
C48   C     C_R   0.346992 0.873355 0.506232 0.397124
C49   C     C_R   0.194938 0.908595 0.444295 -0.251446
C50   C     C_R   0.773011 0.163022 0.508318 -0.109810
C51   C     C_R   0.338764 0.319362 0.577085 -0.281858
C52   C     C_R   0.754610 0.634189 0.428472 -0.003740
C53   C     C_R   0.646112 0.636619 0.404748 -0.312490
C54   C     C_R   0.537800 0.568913 0.427033 0.535888
C55   C     C_R   0.541665 0.513637 0.477324 -0.114900
C56   C     C_R   0.106758 0.533342 0.827539 0.550020
C57   C     C_R   0.650264 0.499729 0.496534 0.228435
C58   C     C_R   0.439924 0.461976 0.507124 -0.097005
C59   C     C_R   0.439169 0.377222 0.548995 0.109077
C60   C     C_R   0.540385 0.353226 0.563492 -0.233624
C61   C     C_R   0.645293 0.416233 0.538988 -0.113674
C62   C     C_R   0.343687 0.496660 0.500003 0.538674
C63   C     C_R   0.241690 0.349525 0.565457 0.022011
C64   C     C_R   0.990570 0.594728 0.709057 -0.145325
C65   C     C_R   0.989731 0.593396 0.658903 0.286105
C66   C     C_R   0.012202 0.413882 0.681840 0.298004
Cu1   Cu    Cu3+1 0.098270 0.475420 0.511360 1.024377
Cu2   Cu    Cu3+1 0.901730 0.524580 0.488640 0.960226
H1    H     H_    0.982767 0.664529 0.719926 0.185954
H2    H     H_    0.300619 0.580397 0.896016 0.185981
H3    H     H_    0.306596 0.615954 0.050106 0.140932
H4    H     H_    0.913583 0.614904 0.328267 0.147297
H5    H     H_    0.301905 0.612620 0.135290 0.186406
H6    H     H_    0.911115 0.611859 0.240038 0.144174
H7    H     H_    0.302711 0.578126 0.981535 0.139093
H8    H     H_    0.102553 0.880199 0.426243 0.168738
H9    H     H_    0.467975 0.213904 0.397091 0.136051
H10   H     H_    0.255727 0.073699 0.398019 0.148599
H11   H     H_    0.020829 0.348207 0.760165 0.179842
H12   H     H_    0.906542 0.111749 0.556032 0.177057
H13   H     H_    0.556816 0.838271 0.534930 0.218599
H14   H     H_    0.767646 0.906410 0.569120 0.182924
H15   H     H_    0.678565 0.275664 0.428553 0.172035
H16   H     H_    0.163287 0.303588 0.586566 0.193218
H17   H     H_    0.540550 0.288324 0.595489 0.155335
H18   H     H_    0.335941 0.251823 0.608237 0.165851
H19   H     H_    0.836624 0.680762 0.409528 0.145434
H20   H     H_    0.644278 0.683202 0.367256 0.170502
H21   H     H_    0.719195 0.393944 0.553659 0.198656
H22   H     H_    0.080430 0.378537 0.368839 0.149936
H23   H     H_    0.072963 0.373009 0.280342 0.148828
H24   H     H_    0.686496 0.374955 0.107708 0.186487
H25   H     H_    0.684150 0.376148 0.022090 0.138610
H26   H     H_    0.692250 0.427441 0.946242 0.149365
N1    N     N_R   0.000687 0.507265 0.796840 -0.454048
N2    N     N_R   0.993176 0.492726 0.202581 -0.465303
N3    N     N_R   0.246290 0.438210 0.528570 -0.223942
N4    N     N_R   0.754320 0.561170 0.471730 -0.194782
O1    O     O_R   0.972510 0.318140 0.514280 -0.583462
O2    O     O_2   0.778314 0.408278 0.193745 -0.544646
O3    O     O_2   0.211891 0.561389 0.808960 -0.544956
O4    O     O_2   0.208081 0.576582 0.212684 -0.551853
O5    O     O_R   0.806530 0.359640 0.495100 -0.611642
O6    O     O_R   0.082990 0.479270 0.579320 -0.551154
O7    O     O_R   0.917010 0.520770 0.560140 -0.558016
O8    O     O_R   0.193470 0.640360 0.504900 -0.488828
O9    O     O_R   0.027490 0.681860 0.485720 -0.583783
O10   O     O_R   0.082990 0.479230 0.439860 -0.549995
O11   O     O_R   0.917010 0.520730 0.420680 -0.608911
O12   O     O_2   0.790981 0.456774 0.781883 -0.489562
Cl1   Cl    Cl    0.018945 0.294171 0.667231 -0.641019
O13   O     O_3   0.369740 0.808332 0.550194 -0.612251
C67   C     C_3   0.344690 0.841280 0.590125 0.015265
H27   H     H_    0.251763 0.838979 0.583710 0.172238
H28   H     H_    0.414217 0.929817 0.595215 0.152326
C68   C     C_3   0.350047 0.757077 0.637498 -0.290981
H29   H     H_    0.279791 0.668866 0.632698 0.238238
H30   H     H_    0.441354 0.756523 0.644236 0.234870
C69   C     C_3   0.327247 0.789862 0.682542 -0.853972
H31   H     H_    0.399700 0.875720 0.689353 0.253435
H32   H     H_    0.328188 0.725120 0.715947 0.287574
H33   H     H_    0.236973 0.792177 0.676500 0.275910
Cl2   Cl    Cl    0.360405 0.628093 0.461410 -0.551484
O14   O     O_3   0.667920 0.414952 0.853789 -0.555662
C70   C     C_3   0.584807 0.297769 0.866169 0.075065
H34   H     H_    0.491341 0.290610 0.852855 0.179543
H35   H     H_    0.585014 0.265727 0.906954 0.111089
C71   C     C_3   0.608489 0.220429 0.840087 -0.322290
H36   H     H_    0.600908 0.249066 0.799211 0.263885
H37   H     H_    0.702208 0.227231 0.852339 0.209962
C72   C     C_3   0.516936 0.094670 0.851904 -0.902231
H38   H     H_    0.524335 0.063186 0.892537 0.256844
H39   H     H_    0.536228 0.041097 0.832390 0.267429
H40   H     H_    0.422399 0.085063 0.839247 0.263454
O15   O     O_3   0.429605 0.546799 0.396638 -0.560370
C73   C     C_3   0.375905 0.432352 0.386888 0.039121
H41   H     H_    0.288797 0.383924 0.404396 0.160048
H42   H     H_    0.433100 0.384343 0.401707 0.110574
C74   C     C_3   0.349463 0.435174 0.330687 -0.291344
H43   H     H_    0.294520 0.484347 0.315105 0.265169
H44   H     H_    0.437067 0.480180 0.313465 0.222903
C75   C     C_3   0.280503 0.314084 0.317558 -0.939091
H45   H     H_    0.337515 0.266180 0.329912 0.253848
H46   H     H_    0.258342 0.319768 0.276633 0.273733
H47   H     H_    0.194012 0.266158 0.335496 0.245801
Cl3   Cl    Cl    0.980116 0.709832 0.615195 -0.637135

loop_
_geom_bond_atom_site_label_1
_geom_bond_atom_site_label_2
_ccdc_geom_bond_type
C10   C27   A    
C58   C62   A    
C56   N1    A    
C21   C26   A    
C8    C66   A    
C11   C13   A    
C41   C42   A    
Cu2   O5    S    
C6    O14   S    
C72   H40   S    
C71   H36   S    
C1    O1    A    
O15   C73   S    
C53   C54   A    
C35   H7    S    
C28   C29   A    
C56   O3    S    
C12   O6    A    
C73   C74   S    
C21   H23   S    
C5    C6    A    
C74   C75   S    
C9    C22   A    
C57   N4    A    
C15   C16   A    
C68   H29   S    
C25   H6    S    
C62   Cl2   S    
C2    H11   S    
C15   H24   S    
C46   C47   A    
C31   H2    S    
C44   C46   A    
C16   C17   A    
C70   C71   S    
Cu2   O9    S    
C47   H15   S    
C66   Cl1   S    
C1    C50   S    
C1    O5    A    
C14   H25   S    
C8    C12   S    
Cu2   O11   S    
C67   C68   S    
C20   N2    A    
C59   C60   A    
C21   C22   A    
C27   C30   A    
C41   C43   A    
C75   H47   S    
C7    C56   A    
C4    C7    A    
C51   H18   S    
O13   C67   S    
C4    C28   A    
C61   H21   S    
Cu1   O6    S    
C32   H3    S    
C69   H32   S    
C26   N2    S    
C38   C39   A    
C7    C31   A    
Cu1   Cu2   S    
C51   C63   A    
C24   C25   A    
C73   H42   S    
C10   C14   A    
C39   C40   A    
C45   O12   S    
C18   C19   A    
C72   H39   S    
C58   C59   A    
C23   C37   S    
C23   O8    A    
C5    C45   A    
C60   C61   A    
C43   C44   A    
C36   C49   A    
C62   N3    A    
C37   C49   A    
C20   O2    S    
C16   C20   A    
C23   O9    A    
C17   C18   A    
C22   H22   S    
C49   H8    S    
C9    C24   A    
C64   H1    S    
C37   C48   A    
C42   C50   A    
C33   H5    S    
C40   C41   A    
C48   O13   S    
C11   C32   A    
C55   C57   A    
C70   H34   S    
C31   C35   A    
C36   C44   A    
C51   C59   A    
Cu2   O7    S    
C72   H38   S    
C45   N1    A    
C71   C72   S    
C52   C53   A    
C24   H4    S    
C67   H27   S    
C43   C48   A    
C69   H33   S    
C54   C55   A    
C6    C30   A    
C14   C15   A    
C40   H13   S    
C52   H19   S    
C39   H14   S    
C4    C5    A    
C2    C66   A    
C10   C13   A    
C71   H37   S    
C46   H9    S    
C74   H43   S    
Cu1   O8    S    
C57   C61   A    
C38   C50   A    
Cu1   O1    S    
C29   C35   A    
C68   C69   S    
C13   C17   A    
C63   H16   S    
C34   O10   A    
C32   C33   A    
C2    C3    A    
C25   C26   A    
C63   N3    A    
C36   H10   S    
C64   C65   A    
C74   H44   S    
C12   O7    A    
C38   H12   S    
C54   O15   S    
C52   N4    A    
C19   O4    S    
C68   H30   S    
C9    C34   S    
C53   H20   S    
C75   H46   S    
C42   C47   A    
C3    C64   A    
Cu1   O10   S    
C18   C33   A    
Cu2   N4    S    
Cu1   N3    S    
C8    C65   A    
C11   C29   A    
C30   H26   S    
C69   H31   S    
C55   C58   A    
C27   C28   A    
C70   H35   S    
C34   O11   A    
C75   H45   S    
C73   H41   S    
C60   H17   S    
C3    N1    S    
C65   Cl3   S    
C19   N2    A    
O14   C70   S    
C67   H28   S    
