data_mof_unit_18356.cif
_audit_creation_date              2012-12-10T19:46:35-0500
_audit_creation_method            fapswitch 2.2
_symmetry_space_group_name_H-M    P1
_symmetry_Int_Tables_number       1
_space_group_crystal_system       triclinic
_cell_length_a                    12.848643
_cell_length_b                    14.912734
_cell_length_c                    14.217433
_cell_angle_alpha                 88.752275
_cell_angle_beta                  95.814375
_cell_angle_gamma                 91.171675
_cell_volume                      2709.06613563

loop_
_atom_site_label
_atom_site_type_symbol
_atom_type_description
_atom_site_fract_x
_atom_site_fract_y
_atom_site_fract_z
_atom_type_partial_charge
C1    C     C_R   0.498663 0.328053 0.500694 0.895227
C2    C     C_R   0.491154 0.672414 0.498417 0.881937
C3    C     C_R   0.487795 0.232337 0.501581 -0.148972
C4    C     C_R   0.467396 0.768350 0.495814 -0.173314
C5    C     C_R   0.401540 0.193321 0.447169 0.181712
C6    C     C_R   0.444397 0.810195 0.580277 0.194361
C7    C     C_R   0.387433 0.101150 0.450410 -0.250564
C8    C     C_R   0.439846 0.902690 0.582255 -0.258857
C9    C     C_R   0.458593 0.049058 0.506500 0.049294
C10   C     C_R   0.450945 0.953126 0.500918 0.057850
C11   C     C_R   0.396894 0.480280 0.100477 -0.293304
C12   C     C_R   0.519421 0.587403 0.890984 -0.301941
C13   C     C_R   0.409136 0.473619 0.200712 -0.027074
C14   C     C_R   0.529438 0.577686 0.793420 -0.008546
C15   C     C_R   0.580339 0.535759 0.203187 0.255592
C16   C     C_R   0.460054 0.429581 0.800029 0.238619
C17   C     C_R   0.566916 0.547619 0.103971 -0.292344
C18   C     C_R   0.444716 0.439942 0.896225 -0.290569
C19   C     C_R   0.476731 0.518720 0.050536 0.119837
C20   C     C_R   0.475463 0.517822 0.943948 0.119602
C21   C     C_R   0.298317 0.498217 0.482367 0.881239
C22   C     C_R   0.701601 0.497256 0.518256 0.889571
C23   C     C_R   0.813225 0.490097 0.531793 -0.084999
C24   C     C_R   0.186655 0.489254 0.473209 -0.084194
C25   C     C_R   0.024548 0.446441 0.382326 0.106946
C26   C     C_R   0.976448 0.514572 0.629092 0.103190
C27   C     C_R   0.132975 0.458598 0.389631 -0.208689
C28   C     C_R   0.867679 0.515802 0.617212 -0.211973
C29   C     C_R   0.135319 0.507279 0.551396 -0.319909
C30   C     C_R   0.864667 0.456611 0.459713 -0.320436
C31   C     C_R   0.028508 0.494967 0.548748 0.118609
C32   C     C_R   0.972386 0.464600 0.463254 0.113906
C33   C     C_R   0.542580 0.087492 0.562585 -0.196922
C34   C     C_R   0.460785 0.912896 0.415006 -0.198340
C35   C     C_R   0.559021 0.180294 0.560609 0.156437
C36   C     C_R   0.467890 0.819857 0.410405 0.173704
H1    H     H_    0.819337 0.427558 0.399717 0.148244
H2    H     H_    0.179954 0.532766 0.614017 0.164720
H3    H     H_    0.630781 0.574795 0.067160 0.135669
H4    H     H_    0.414254 0.384219 0.936054 0.136786
H5    H     H_    0.824346 0.538061 0.673371 0.156972
H6    H     H_    0.177045 0.443961 0.331221 0.150476
H7    H     H_    0.596428 0.043878 0.604230 0.154829
H8    H     H_    0.464892 0.955272 0.352704 0.156295
H9    H     H_    0.321893 0.069962 0.408439 0.148339
H10   H     H_    0.427495 0.935592 0.647403 0.141206
H11   H     H_    0.324927 0.456029 0.062407 0.139542
H12   H     H_    0.546093 0.649252 0.924774 0.138639
H13   H     H_    0.344894 0.447014 0.236790 0.139272
H14   H     H_    0.561681 0.633026 0.754808 0.151312
N1    N     N_R   0.500000 0.499980 0.252470 -0.099426
N2    N     N_R   0.500000 0.500020 0.747530 -0.099350
O1    O     O_R   0.500010 0.369070 0.579480 -0.633938
O2    O     O_R   0.499990 0.630930 0.420520 -0.628325
O3    O     O_R   0.500010 0.369060 0.420520 -0.600555
O4    O     O_R   0.499990 0.630940 0.579480 -0.590953
O5    O     O_R   0.346360 0.499990 0.566340 -0.640940
O6    O     O_R   0.653640 0.500010 0.433660 -0.633564
O7    O     O_R   0.346360 0.499980 0.407390 -0.629417
O8    O     O_R   0.653640 0.500020 0.592610 -0.628008
Zn1   Zn    Zn3+2 0.500000 0.500010 0.606140 0.935191
Zn2   Zn    Zn3+2 0.500000 0.499990 0.393860 0.934207
C37   C     C_3   0.690271 0.555903 0.246937 -0.412495
C38   C     C_3   0.703059 0.649777 0.288873 -0.283456
C39   C     C_3   0.817485 0.672553 0.320337 -0.919296
H15   H     H_    0.848785 0.625344 0.376978 0.279355
H16   H     H_    0.865448 0.669380 0.259771 0.260548
H17   H     H_    0.823777 0.741557 0.348423 0.252524
H18   H     H_    0.673709 0.700188 0.234485 0.215508
H19   H     H_    0.658047 0.655075 0.350351 0.275519
H20   H     H_    0.718233 0.501130 0.294337 0.213217
H21   H     H_    0.745738 0.552987 0.191818 0.164079
C40   C     C_3   0.439349 0.335315 0.764046 -0.383612
C41   C     C_3   0.330008 0.323303 0.710787 -0.310519
C42   C     C_3   0.302556 0.224376 0.694549 -0.909915
H22   H     H_    0.362608 0.192484 0.656199 0.276800
H23   H     H_    0.297500 0.188367 0.763191 0.258116
H24   H     H_    0.225654 0.218252 0.651657 0.250667
H25   H     H_    0.270362 0.352352 0.752155 0.203383
H26   H     H_    0.325488 0.357867 0.641334 0.264040
H27   H     H_    0.504020 0.312018 0.726215 0.238102
H28   H     H_    0.443480 0.287276 0.825305 0.169624
C43   C     C_3   0.963588 0.418119 0.289308 -0.434937
C44   C     C_3   0.027743 0.407222 0.204696 -0.359450
C45   C     C_3   0.957050 0.383979 0.115355 -0.888411
H29   H     H_    0.913710 0.319953 0.126036 0.263007
H30   H     H_    0.900234 0.438281 0.096688 0.257462
H31   H     H_    0.005376 0.376331 0.055637 0.250792
H32   H     H_    0.070609 0.470904 0.190829 0.222707
H33   H     H_    0.084743 0.352465 0.220183 0.217616
H34   H     H_    0.922386 0.353312 0.301757 0.200285
H35   H     H_    0.904250 0.469951 0.268713 0.205629
C46   C     C_3   0.037321 0.536126 0.724405 -0.436356
C47   C     C_3   0.972447 0.540509 0.809391 -0.348750
C48   C     C_3   0.043002 0.550393 0.901855 -0.888487
H36   H     H_    0.094538 0.491516 0.914506 0.257552
H37   H     H_    0.092092 0.612434 0.899458 0.263307
H38   H     H_    0.994132 0.554604 0.961663 0.251270
H39   H     H_    0.920155 0.599211 0.800783 0.216630
H40   H     H_    0.924273 0.478101 0.814314 0.227432
H41   H     H_    0.095979 0.482737 0.741035 0.204892
H42   H     H_    0.079678 0.601343 0.717544 0.199318
N3    N     N_2   0.646080 0.222641 0.614783 -0.297045
H43   H     H_    0.681500 0.275323 0.581287 0.220829
C49   C     C_3   0.716805 0.170005 0.678517 -0.811951
H44   H     H_    0.760626 0.123304 0.637951 0.238408
H45   H     H_    0.672764 0.132277 0.730378 0.242644
H46   H     H_    0.773906 0.215426 0.718579 0.241665
N4    N     N_2   0.470932 0.777270 0.321376 -0.282165
H47   H     H_    0.408147 0.734454 0.304147 0.246412
C50   C     C_3   0.503451 0.828119 0.241146 -0.842614
H48   H     H_    0.442295 0.876510 0.214386 0.235972
H49   H     H_    0.514386 0.781612 0.183172 0.239516
H50   H     H_    0.579037 0.863725 0.260953 0.250628
N5    N     N_2   0.326080 0.247139 0.393236 -0.297797
H51   H     H_    0.250698 0.233125 0.408863 0.219288
C51   C     C_3   0.333946 0.247314 0.292460 -0.774483
H52   H     H_    0.317671 0.179042 0.264078 0.223874
H53   H     H_    0.413266 0.270256 0.276766 0.263474
H54   H     H_    0.275665 0.293770 0.256402 0.213013
N6    N     N_2   0.424601 0.760193 0.663378 -0.286805
H55   H     H_    0.448011 0.792355 0.725736 0.207449
C52   C     C_3   0.319105 0.723853 0.661567 -0.744445
H56   H     H_    0.262423 0.779076 0.662307 0.220594
H57   H     H_    0.312821 0.679741 0.724764 0.232415
H58   H     H_    0.298867 0.683250 0.597483 0.243513

loop_
_geom_bond_atom_site_label_1
_geom_bond_atom_site_label_2
_ccdc_geom_bond_type
O6    Zn2   S    
C4    C36   A    
C46   C47   S    
C40   C41   S    
C11   H11   S    
C48   H36   S    
C24   C27   A    
C12   H12   S    
C48   H38   S    
C52   H56   S    
C50   H49   S    
C45   H29   S    
C43   H35   S    
C49   H45   S    
C11   C19   A    
C7    H9    S    
C21   O7    A    
C35   N3    S    
N2    Zn1   S    
C51   H53   S    
C22   O8    A    
C52   H57   S    
N5    H51   S    
O3    Zn2   S    
C28   H5    S    
C15   C17   A    
C17   H3    S    
C18   H4    S    
C24   C29   A    
C1    O1    A    
C33   C35   A    
C13   N1    A    
O1    Zn1   S    
C14   N2    A    
C31   C32   A    
N5    C51   S    
C29   H2    S    
C15   N1    A    
C9    C10   S    
C18   C20   A    
C26   C46   S    
C26   C31   A    
C41   H26   S    
C5    N5    S    
C9    C33   A    
C10   C34   A    
N1    Zn2   S    
C44   H33   S    
C40   H27   S    
C45   H30   S    
C49   H46   S    
C41   C42   S    
C16   C40   S    
C33   H7    S    
C23   C30   A    
C34   H8    S    
C44   C45   S    
C4    C6    A    
C2    O2    A    
C51   H54   S    
C46   H41   S    
C5    C7    A    
C52   H58   S    
C6    C8    A    
O2    Zn2   S    
C39   H16   S    
C38   H18   S    
C30   H1    S    
O8    Zn1   S    
C1    C3    S    
C2    C4    S    
C42   H22   S    
C21   O5    A    
C3    C35   A    
C43   C44   S    
C47   H40   S    
C39   H17   S    
C12   C20   A    
N3    C49   S    
C23   C28   A    
C42   H23   S    
N6    H55   S    
C13   H13   S    
C16   C18   A    
C12   C14   A    
C38   H19   S    
C41   H25   S    
C44   H32   S    
C40   H28   S    
C36   N4    S    
C45   H31   S    
C7    C9    A    
O7    Zn2   S    
C50   H48   S    
C22   C23   S    
C16   N2    A    
C37   H20   S    
C3    C5    A    
C46   H42   S    
C22   O6    A    
C48   H37   S    
O5    Zn1   S    
C25   C27   A    
C43   H34   S    
C49   H44   S    
C26   C28   A    
C38   C39   S    
C19   C20   S    
N4    C50   S    
C1    O3    A    
C29   C31   A    
C2    O4    A    
N4    H47   S    
C30   C32   A    
C11   C13   A    
C27   H6    S    
C14   H14   S    
C47   H39   S    
C25   C32   A    
C17   C19   A    
C50   H50   S    
C34   C36   A    
C47   C48   S    
C42   H24   S    
C8    H10   S    
N6    C52   S    
C37   C38   S    
C37   H21   S    
C8    C10   A    
C39   H15   S    
C21   C24   S    
N3    H43   S    
C25   C43   S    
C15   C37   S    
O4    Zn1   S    
C6    N6    S    
C51   H52   S    
