data_mof_unit_7099.cif
_audit_creation_date              2012-10-26T19:43:54-0400
_audit_creation_method            fapswitch 2.2
_symmetry_space_group_name_H-M    P1
_symmetry_Int_Tables_number       1
_space_group_crystal_system       triclinic
_cell_length_a                    12.348032
_cell_length_b                    13.104376
_cell_length_c                    13.86025
_cell_angle_alpha                 105.326696
_cell_angle_beta                  73.724665
_cell_angle_gamma                 116.574663
_cell_volume                      1900.0613894

loop_
_atom_site_label
_atom_site_type_symbol
_atom_type_description
_atom_site_fract_x
_atom_site_fract_y
_atom_site_fract_z
_atom_type_partial_charge
C1    C     C_R   0.144428 0.714286 0.506020 0.580870
C2    C     C_R   0.564540 0.020147 0.466060 0.025785
C3    C     C_R   0.611393 0.938536 0.404103 0.001013
C4    C     C_R   0.984370 0.504646 0.686488 0.538937
C5    C     C_R   0.530918 0.830610 0.363776 -0.105171
C6    C     C_R   0.404155 0.800672 0.386392 0.283067
C7    C     C_R   0.648830 0.129901 0.501433 -0.119516
C8    C     C_R   0.820961 0.080685 0.408574 -0.129520
C9    C     C_R   0.225535 0.838983 0.502982 0.004029
C10   C     C_R   0.634056 0.669467 0.668711 0.255052
C11   C     C_R   0.251537 0.349968 0.364636 0.056697
C12   C     C_1   0.976045 0.509710 0.792119 -0.069123
C13   C     C_R   0.349507 0.315941 0.335732 -0.160740
C14   C     C_R   0.448203 0.371866 0.387231 -0.128085
C15   C     C_R   0.450214 0.463259 0.468866 0.008366
C16   C     C_R   0.856190 0.285725 0.486311 0.532517
C17   C     C_R   0.347163 0.494713 0.495810 0.192377
C18   C     C_R   0.549363 0.523688 0.525348 -0.068055
C19   C     C_R   0.541827 0.612392 0.608338 -0.000618
C20   C     C_R   0.443064 0.644563 0.629501 -0.163334
C21   C     C_R   0.346986 0.585241 0.576793 -0.105281
C22   C     C_R   0.656815 0.501163 0.502441 -0.028483
C23   C     C_R   0.739085 0.968532 0.377880 -0.126569
C24   C     C_R   0.739773 0.644919 0.639882 0.452012
C25   C     C_R   0.015281 0.494992 0.313496 0.545180
C26   C     C_1   0.022949 0.490826 0.208137 -0.013533
C27   C     C_2   0.031962 0.486008 0.014937 -0.083915
C28   C     C_2   0.958804 0.520990 0.989164 0.292023
C29   C     C_1   0.968096 0.514895 0.881437 -0.086782
C30   C     C_1   0.028182 0.488041 0.119768 -0.013140
C31   C     C_3   0.813099 0.601302 0.028369 -0.117486
C32   C     C_3   0.313734 0.739753 0.248386 -0.121257
C33   C     C_3   0.817202 0.698433 0.787816 -0.087184
C34   C     C_R   0.775518 0.162629 0.468130 -0.001698
C35   C     C_3   0.545523 0.703565 0.835794 -0.154529
C36   C     C_3   0.008348 0.971290 0.643810 -0.080232
C37   C     C_R   0.176553 0.924088 0.549891 0.264279
C38   C     C_R   0.259241 0.041240 0.562404 -0.136367
C39   C     C_R   0.385267 0.072723 0.537289 -0.166047
C40   C     C_R   0.435417 0.989990 0.489990 -0.022686
C41   C     C_R   0.354012 0.874575 0.460626 -0.027987
Cu1   Cu    Cu3+1 0.899780 0.525060 0.522890 1.010573
Cu2   Cu    Cu3+1 0.100220 0.474940 0.477110 0.957676
H1    H     H_    0.438625 0.716806 0.687897 0.152767
H2    H     H_    0.753073 0.531922 0.976788 0.115737
H3    H     H_    0.877995 0.676593 0.989515 0.101745
H4    H     H_    0.752520 0.631538 0.093596 0.137156
H5    H     H_    0.402260 0.795008 0.204445 0.098091
H6    H     H_    0.251161 0.785721 0.278758 0.117329
H7    H     H_    0.269270 0.662121 0.194237 0.138744
H8    H     H_    0.904608 0.713273 0.807741 0.126637
H9    H     H_    0.749957 0.610051 0.802596 0.082894
H10   H     H_    0.787055 0.765568 0.838709 0.134909
H11   H     H_    0.558350 0.628151 0.845300 0.083800
H12   H     H_    0.670337 0.436009 0.440158 0.138475
H13   H     H_    0.447752 0.676140 0.831784 0.117602
H14   H     H_    0.563913 0.768806 0.905587 0.134498
H15   H     H_    0.520950 0.341278 0.362055 0.107006
H16   H     H_    0.095805 0.455468 0.957133 0.067126
H17   H     H_    0.919111 0.104366 0.382472 0.122506
H18   H     H_    0.566598 0.771025 0.309946 0.123123
H19   H     H_    0.023582 0.041406 0.604218 0.103819
H20   H     H_    0.052431 0.005788 0.712082 0.100696
H21   H     H_    0.907500 0.929093 0.670935 0.194743
H22   H     H_    0.175235 0.305664 0.324399 0.121067
H23   H     H_    0.348749 0.245659 0.273341 0.103833
H24   H     H_    0.273586 0.613294 0.603383 0.174610
H25   H     H_    0.775584 0.906723 0.329962 0.114200
H26   H     H_    0.618422 0.192882 0.554073 0.118431
H27   H     H_    0.441016 0.164211 0.550798 0.112764
H28   H     H_    0.228299 0.110544 0.593517 0.104530
N1    N     N_R   0.748810 0.563010 0.557590 -0.252847
N2    N     N_R   0.250540 0.437620 0.443020 -0.222871
O1    O     O_R   0.025040 0.682470 0.528790 -0.395659
O2    O     O_3   0.332673 0.703875 0.327414 -0.534025
O3    O     O_3   0.842022 0.712066 0.685155 -0.492476
O4    O     O_3   0.626604 0.755283 0.750650 -0.579053
O5    O     O_3   0.048359 0.888298 0.575751 -0.514173
O6    O     O_R   0.194310 0.640150 0.490130 -0.484743
O7    O     O_R   0.903380 0.524130 0.659910 -0.478071
O8    O     O_R   0.072660 0.481800 0.621240 -0.523097
O9    O     O_R   0.805690 0.359850 0.509870 -0.520814
O10   O     O_R   0.974960 0.317530 0.471210 -0.514523
O11   O     O_R   0.927340 0.518200 0.378760 -0.494103
O12   O     O_R   0.096620 0.475870 0.340090 -0.480323
O13   O     O_3   0.877347 0.558906 0.066058 -0.545173

loop_
_geom_bond_atom_site_label_1
_geom_bond_atom_site_label_2
_ccdc_geom_bond_type
Cu2   N2    S    
C15   C18   A    
Cu1   O7    S    
C12   C29   T    
Cu2   O10   S    
C3    C23   A    
C2    C7    A    
Cu1   O9    S    
C32   O2    S    
C6    O2    S    
C33   H9    S    
C1    O1    A    
C28   C29   S    
C4    O7    A    
C5    C6    A    
Cu2   O6    S    
C8    C23   A    
C18   C19   A    
C22   N1    A    
C16   C34   S    
C4    O8    A    
C19   C20   A    
C6    C41   A    
C25   O11   A    
C4    C12   S    
C36   H20   S    
C31   O13   S    
C31   H4    S    
C13   C14   A    
C21   H24   S    
C35   H11   S    
C17   N2    A    
C32   H5    S    
C36   H19   S    
Cu1   N1    S    
C20   H1    S    
C10   O4    S    
C25   O12   A    
C13   H23   S    
C33   H10   S    
C14   H15   S    
Cu1   O1    S    
Cu2   O12   S    
C1    C9    S    
Cu1   O11   S    
C11   N2    A    
C39   C40   A    
C24   O3    S    
C10   C24   A    
C25   C26   S    
C35   O4    S    
C16   O10   A    
C17   C21   A    
C23   H25   S    
C37   C38   A    
C33   O3    S    
C10   C19   A    
C9    C37   A    
C5    H18   S    
C8    C34   A    
C32   H7    S    
C40   C41   A    
C26   C30   T    
C28   O13   S    
C1    O6    A    
C7    C34   A    
Cu1   Cu2   S    
C24   N1    A    
C15   C17   A    
C38   H28   S    
C35   H13   S    
C18   C22   A    
C3    C5    A    
C7    H26   S    
C22   H12   S    
C33   H8    S    
C37   O5    S    
C9    C41   A    
C35   H14   S    
C2    C3    A    
C27   H16   S    
C8    H17   S    
C11   C13   A    
C38   C39   A    
Cu2   O8    S    
C39   H27   S    
C32   H6    S    
C2    C40   A    
C20   C21   A    
C31   H3    S    
C16   O9    A    
C31   H2    S    
C27   C28   D    
C14   C15   A    
C36   O5    S    
C36   H21   S    
C11   H22   S    
C27   C30   S    
