data_mof_unit_46081.cif
_audit_creation_date              2012-12-11T15:55:46-0500
_audit_creation_method            fapswitch 2.2
_symmetry_space_group_name_H-M    P1
_symmetry_Int_Tables_number       1
_space_group_crystal_system       triclinic
_cell_length_a                    11.05352
_cell_length_b                    11.04023
_cell_length_c                    18.763146
_cell_angle_alpha                 90.412026
_cell_angle_beta                  90.642795
_cell_angle_gamma                 59.067226
_cell_volume                      1963.93819137

loop_
_atom_site_label
_atom_site_type_symbol
_atom_type_description
_atom_site_fract_x
_atom_site_fract_y
_atom_site_fract_z
_atom_type_partial_charge
C1    C     C_R   0.360156 0.766206 0.395388 0.536783
C2    C     C_R   0.623517 0.108533 0.173217 0.031748
C3    C     C_R   0.356988 0.318638 0.165911 0.003692
C4    C     C_R   0.472457 0.220801 0.277978 -0.113237
C5    C     C_R   0.480082 0.215626 0.204236 -0.016906
C6    C     C_R   0.016401 0.673509 0.288647 -0.160968
C7    C     C_R   0.906051 0.776705 0.329588 -0.061115
C8    C     C_R   0.647652 0.995985 0.127310 -0.063228
C9    C     C_R   0.781381 0.898710 0.101647 -0.137013
C10   C     C_R   0.239063 0.425115 0.203132 -0.134255
C11   C     C_R   0.234478 0.429631 0.277402 0.018111
C12   C     C_R   0.384080 0.351865 0.388793 0.515277
C13   C     C_R   0.875050 0.742830 0.395907 0.244392
C14   C     C_R   0.951178 0.602051 0.419213 -0.077511
C15   C     C_R   0.059795 0.498629 0.377795 -0.064560
C16   C     C_R   0.100679 0.534642 0.314316 0.042252
C17   C     C_R   0.356568 0.329571 0.314857 0.038880
C18   C     C_R   0.856877 0.342357 0.182409 -0.002361
C19   C     C_R   0.951860 0.308525 0.239067 0.058684
C20   C     C_R   0.905186 0.327326 0.308271 0.012407
C21   C     C_R   0.664187 0.437009 0.266133 -0.198995
C22   C     C_R   0.711575 0.414299 0.195612 -0.177578
C23   C     C_R   0.714872 0.414790 0.394952 0.549029
C24   C     C_3   0.082765 0.171305 0.256843 0.081203
C25   C     C_3   0.028042 0.189498 0.332306 -0.191037
C26   C     C_R   0.762499 0.386198 0.322556 -0.001665
C27   C     C_R   0.369835 0.819707 0.171594 0.007011
C28   C     C_R   0.445971 0.859464 0.217249 0.027820
C29   C     C_R   0.434513 0.852420 0.291590 0.055791
C30   C     C_R   0.285272 0.755785 0.274247 -0.181023
C31   C     C_R   0.298735 0.757962 0.201254 -0.173281
C32   C     C_3   0.604591 0.781005 0.227591 -0.307994
C33   C     C_3   0.586615 0.787847 0.306235 -0.253913
C34   C     C_R   0.344237 0.768084 0.604562 0.550691
C35   C     C_R   0.350104 0.805787 0.320722 0.020444
C36   C     C_R   0.301363 0.307821 0.808354 0.017094
C37   C     C_R   0.412355 0.198824 0.771006 0.054034
C38   C     C_R   0.416659 0.190690 0.698581 0.003746
C39   C     C_R   0.196298 0.411404 0.692872 -0.175746
C40   C     C_R   0.185991 0.409184 0.767762 -0.125786
C41   C     C_3   0.567133 0.105303 0.783023 0.117695
C42   C     C_3   0.572220 0.077844 0.703192 0.027394
C43   C     C_R   0.321923 0.310955 0.658849 -0.006561
C44   C     C_R   0.922022 0.288456 0.820755 0.007662
C45   C     C_R   0.368650 0.346819 0.594139 0.549181
C46   C     C_R   0.896639 0.410165 0.785434 0.017707
C47   C     C_R   0.864297 0.428725 0.714420 0.028639
C48   C     C_R   0.909846 0.192307 0.705408 -0.175668
C49   C     C_R   0.938743 0.174414 0.779293 -0.165635
C50   C     C_3   0.795672 0.562370 0.802460 -0.259045
C51   C     C_3   0.760180 0.582694 0.724108 -0.268491
C52   C     C_R   0.853583 0.326971 0.674776 0.008168
C53   C     C_R   0.302649 0.845876 0.825161 -0.006340
C54   C     C_R   0.199064 0.836317 0.787734 0.044420
C55   C     C_R   0.206961 0.821661 0.714335 -0.055236
C56   C     C_R   0.770754 0.373406 0.608362 0.539481
C57   C     C_R   0.410275 0.846913 0.713077 -0.168041
C58   C     C_R   0.408461 0.851415 0.787090 -0.165422
C59   C     C_3   0.161887 0.724890 0.795993 0.437439
C60   C     C_3   0.175886 0.704946 0.715995 -0.157247
C61   C     C_R   0.313255 0.825305 0.676055 0.001961
C62   C     C_R   0.910375 0.316745 0.111246 0.552898
C63   C     C_R   0.329471 0.292888 0.092809 0.545466
C64   C     C_R   0.311140 0.894937 0.104265 0.532231
C65   C     C_R   0.947344 0.281063 0.897383 0.562852
C66   C     C_R   0.294046 0.287129 0.884268 0.577372
C67   C     C_R   0.897915 0.902313 0.126539 -0.091392
C68   C     C_R   0.276083 0.893957 0.898198 0.553499
C69   C     C_R   0.879975 0.000956 0.178120 -0.095478
C70   C     C_R   0.745089 0.103672 0.200669 -0.123645
Cr1   Cr    Cr6+3 0.601740 0.606840 0.505840 0.985591
Cr2   Cr    Cr6+3 0.291500 0.601560 0.495070 1.004742
Cr3   Cr    Cr6+3 0.606780 0.291630 0.499130 1.042475
Cr4   Cr    Cr6+3 0.062440 0.063060 0.008240 1.018234
Cr5   Cr    Cr6+3 0.062950 0.375000 0.998920 1.016945
Cr6   Cr    Cr6+3 0.374550 0.061770 0.992470 1.032835
H1    H     H_    0.564222 0.141450 0.307069 0.147777
H2    H     H_    0.928666 0.572748 0.470137 0.113136
H3    H     H_    0.118508 0.391996 0.398070 0.113773
H4    H     H_    0.552226 0.489936 0.276589 0.121717
H5    H     H_    0.636030 0.449295 0.152012 0.131385
H6    H     H_    0.095930 0.077448 0.228676 0.124238
H7    H     H_    0.996984 0.111513 0.346353 0.109462
H8    H     H_    0.094723 0.201564 0.372988 0.162071
H9    H     H_    0.231020 0.706075 0.294595 0.154661
H10   H     H_    0.795365 0.814794 0.066135 0.111609
H11   H     H_    0.242520 0.722381 0.167747 0.125485
H12   H     H_    0.659157 0.836640 0.214909 0.139837
H13   H     H_    0.658063 0.672772 0.205422 0.160051
H14   H     H_    0.638600 0.681878 0.330545 0.183557
H15   H     H_    0.607803 0.865251 0.332781 0.188634
H16   H     H_    0.113350 0.498985 0.663149 0.125365
H17   H     H_    0.092755 0.490881 0.793847 0.183214
H18   H     H_    0.617794 0.164719 0.802104 0.123933
H19   H     H_    0.846141 0.884275 0.310456 0.129888
H20   H     H_    0.589433 0.972168 0.690294 0.142006
H21   H     H_    0.922706 0.104748 0.674202 0.131381
H22   H     H_    0.966017 0.075814 0.804319 0.160921
H23   H     H_    0.849247 0.618684 0.821422 0.166054
H24   H     H_    0.705748 0.578614 0.835692 0.155816
H25   H     H_    0.651418 0.607159 0.712597 0.158044
H26   H     H_    0.792878 0.650813 0.697367 0.136612
H27   H     H_    0.496037 0.844351 0.685169 0.123967
H28   H     H_    0.491236 0.856203 0.814897 0.212803
H29   H     H_    0.002557 0.823073 0.109397 0.119450
H30   H     H_    0.269277 0.603523 0.699173 0.122672
H31   H     H_    0.076483 0.732452 0.687806 0.127258
H32   H     H_    0.971369 0.992888 0.202851 0.108789
H33   H     H_    0.736709 0.173627 0.243084 0.123998
H34   H     H_    0.040722 0.704840 0.238959 0.089772
H35   H     H_    0.567326 0.970972 0.116848 0.174956
H36   H     H_    0.144365 0.498723 0.174076 0.135119
O1    O     O_R   0.748670 0.497520 0.427970 -0.535452
O2    O     O_R   0.300170 0.471020 0.567120 -0.519008
O3    O     O_R   0.491630 0.259030 0.574940 -0.466021
O4    O     O_R   0.718640 0.304340 0.577850 -0.498083
O5    O     O_3   0.500010 0.500010 0.500020 -0.270513
O6    O     O_R   0.186620 0.923750 0.087000 -0.528810
O7    O     O_R   0.957350 0.194160 0.084660 -0.493139
O8    O     O_R   0.935120 0.407280 0.085350 -0.516746
O9    O     O_R   0.203800 0.365060 0.067090 -0.506805
O10   O     O_R   0.417470 0.174910 0.067830 -0.530158
O11   O     O_R   0.375160 0.946380 0.070880 -0.522819
O12   O     O_R   0.476470 0.723930 0.429450 -0.515213
O13   O     O_R   0.160500 0.919670 0.926690 -0.519764
O14   O     O_R   0.933140 0.190380 0.936050 -0.496735
O15   O     O_R   0.909010 0.403210 0.925030 -0.522584
O16   O     O_R   0.179590 0.361290 0.918480 -0.508537
O17   O     O_R   0.391360 0.170840 0.907510 -0.458803
O18   O     O_R   0.350950 0.942600 0.922260 -0.497984
O19   O     O_3   0.166650 0.166610 0.999880 -0.285705
O20   O     O_R   0.264730 0.744140 0.416740 -0.516801
O21   O     O_R   0.309440 0.472410 0.418220 -0.510113
O22   O     O_R   0.501630 0.260530 0.414310 -0.513475
O23   O     O_R   0.727920 0.305730 0.428950 -0.496509
O24   O     O_R   0.738670 0.496020 0.588600 -0.527271
O25   O     O_R   0.467190 0.722540 0.578350 -0.507043
O26   O     O_R   0.254720 0.742640 0.577370 -0.520913
O27   O     O_3   0.770257 0.848838 0.436412 -0.724652
H37   H     H_    0.759321 0.806866 0.480655 0.308239
O28   O     O_3   0.203141 0.181679 0.253672 -0.703262
H38   H     H_    0.234748 0.160618 0.203487 0.332037
O29   O     O_3   0.603304 0.985558 0.823458 -0.711612
H39   H     H_    0.707819 0.927758 0.822950 0.336380
N1    N     N_2   0.667065 0.107954 0.666051 -0.482551
H40   H     H_    0.685513 0.182096 0.688521 0.256569
C71   C     C_3   0.781178 0.989562 0.628995 -0.267231
H41   H     H_    0.829955 0.027332 0.590557 0.168103
H42   H     H_    0.741395 0.931051 0.597793 0.139803
H43   H     H_    0.860858 0.917695 0.668241 0.130649
O30   O     O_3   0.022851 0.779372 0.818764 -0.718408
H44   H     H_    0.022323 0.798404 0.870539 0.356906
O31   O     O_3   0.260241 0.607171 0.836448 -0.690946
H45   H     H_    0.355527 0.570376 0.816113 0.297964

loop_
_geom_bond_atom_site_label_1
_geom_bond_atom_site_label_2
_ccdc_geom_bond_type
C44   C49   A    
C7    C13   A    
C21   C26   A    
C29   C33   S    
C41   C42   S    
C19   C20   A    
C40   H17   S    
C1    O20   A    
N1    H40   S    
C59   O31   S    
Cr1   O25   S    
C53   C54   A    
C51   H26   S    
N1    C71   S    
C48   H21   S    
C50   H23   S    
Cr3   O4    S    
C30   C35   A    
C42   H20   S    
C65   O15   A    
C21   C22   A    
C28   C29   A    
C71   H42   S    
C38   C42   S    
C33   H15   S    
C30   C31   A    
Cr6   O19   S    
C36   C66   S    
Cr4   O13   S    
C20   C25   S    
O29   H39   S    
C32   H12   S    
Cr2   O2    S    
C64   O6    A    
Cr1   O1    S    
Cr5   O16   S    
C11   C16   S    
C23   C26   S    
C57   C61   A    
C4    H1    S    
C53   C68   S    
C24   H6    S    
C71   H41   S    
C63   O9    A    
C49   H22   S    
C54   C55   A    
Cr6   O18   S    
C45   O2    A    
C15   H3    S    
Cr3   O23   S    
C44   C46   A    
C8    C9    A    
Cr2   O5    S    
C25   H8    S    
O30   H44   S    
C10   H36   S    
C62   O8    A    
C66   O17   A    
Cr2   O26   S    
C59   C60   S    
C12   O22   A    
C13   C14   A    
C6    H34   S    
C44   C65   S    
Cr4   O6    S    
C56   O24   A    
C69   H32   S    
Cr5   O19   S    
Cr2   O20   S    
C57   C58   A    
C54   C59   S    
C57   H27   S    
Cr4   O19   S    
C31   H11   S    
Cr1   O5    S    
C27   C31   A    
C22   H5    S    
Cr1   O12   S    
C28   C32   S    
C71   H43   S    
Cr3   O5    S    
C24   C25   S    
C10   C11   A    
C8    H35   S    
Cr1   O24   S    
C67   H29   S    
C39   C43   A    
C34   O26   A    
C34   C61   S    
C67   C69   A    
C12   C17   S    
C9    C67   A    
C37   C38   A    
Cr4   O7    S    
C70   H33   S    
C9    H10   S    
C23   O1    A    
Cr6   O17   S    
C45   O3    A    
C41   H18   S    
C36   C40   A    
C24   O28   S    
O27   H37   S    
C50   C51   S    
C56   O4    A    
C30   H9    S    
C68   O18   A    
C43   C45   S    
C62   O7    A    
C47   C52   A    
C60   H31   S    
C4    C17   A    
C48   C49   A    
C59   O30   S    
C12   O21   A    
C32   H13   S    
C2    C5    S    
C58   H28   S    
C13   O27   S    
C39   H16   S    
C39   C40   A    
C63   O10   A    
C60   H30   S    
C1    C35   S    
C46   C50   S    
C46   C47   A    
C36   C37   A    
Cr5   O9    S    
Cr6   O11   S    
C33   H14   S    
C2    C8    A    
Cr5   O8    S    
C4    C5    A    
C3    C5    A    
C11   C17   A    
C47   C51   S    
C53   C58   A    
C41   O29   S    
C6    C7    A    
C3    C63   S    
C51   H25   S    
C64   O11   A    
C7    H19   S    
C29   C35   A    
C34   O25   A    
C50   H24   S    
Cr3   O3    S    
C23   O23   A    
Cr6   O10   S    
C32   C33   S    
C18   C22   A    
C19   C24   S    
C1    O12   A    
C38   C43   A    
C3    C10   A    
C2    C70   A    
O28   H38   S    
C65   O14   A    
Cr2   O21   S    
Cr4   O14   S    
C20   C26   A    
C55   C61   A    
C21   H4    S    
C66   O16   A    
Cr5   O15   S    
C14   H2    S    
C37   C41   S    
C69   C70   A    
C27   C64   S    
C6    C16   A    
C52   C56   S    
C48   C52   A    
Cr3   O22   S    
C27   C28   A    
C25   H7    S    
C18   C19   A    
C14   C15   A    
C18   C62   S    
O31   H45   S    
C55   C60   S    
C42   N1    S    
C68   O13   A    
C15   C16   A    
