data_mof_unit_63138.cif
_audit_creation_date              2012-12-10T18:23:49-0500
_audit_creation_method            fapswitch 2.2
_symmetry_space_group_name_H-M    P1
_symmetry_Int_Tables_number       1
_space_group_crystal_system       triclinic
_cell_length_a                    22.452781
_cell_length_b                    22.447833
_cell_length_c                    14.638599
_cell_angle_alpha                 90.000231
_cell_angle_beta                  90.029988
_cell_angle_gamma                 89.999871
_cell_volume                      7378.09117648

loop_
_atom_site_label
_atom_site_type_symbol
_atom_type_description
_atom_site_fract_x
_atom_site_fract_y
_atom_site_fract_z
_atom_type_partial_charge
C1    C     C_R   0.419700 0.919696 0.499974 0.823600
C2    C     C_R   0.580300 0.080304 0.500026 0.823603
C3    C     C_R   0.580300 0.919696 0.500026 0.823601
C4    C     C_R   0.419700 0.080304 0.499974 0.823604
C5    C     C_R   0.919700 0.419696 0.499974 0.823604
C6    C     C_R   0.080300 0.580304 0.500026 0.823600
C7    C     C_R   0.080300 0.419696 0.500026 0.823603
C8    C     C_R   0.919700 0.580304 0.499974 0.823600
C9    C     C_1   0.337079 0.162921 0.499957 -0.059344
C10   C     C_1   0.662921 0.837080 0.500042 -0.059323
C11   C     C_1   0.662921 0.162921 0.500044 -0.059197
C12   C     C_1   0.337079 0.837079 0.499955 -0.059178
C13   C     C_1   0.837079 0.662920 0.499957 -0.059328
C14   C     C_1   0.162921 0.337079 0.500042 -0.059348
C15   C     C_1   0.162921 0.662921 0.500044 -0.059173
C16   C     C_1   0.837079 0.337079 0.499955 -0.059193
C17   C     C_1   0.499914 0.000000 0.194195 0.211472
C18   C     C_1   0.500086 1.000000 0.805805 0.211472
C19   C     C_1   0.999914 0.500000 0.194194 0.211472
C20   C     C_1   0.000086 0.500000 0.805805 0.211471
C21   C     C_3   0.527918 0.049130 0.969152 -0.211560
C22   C     C_3   0.472082 0.950870 0.030848 -0.211579
C23   C     C_3   0.471468 0.048777 0.030845 -0.211579
C24   C     C_3   0.528532 0.951223 0.969155 -0.211598
C25   C     C_3   0.027886 0.549148 0.969152 -0.211579
C26   C     C_3   0.972114 0.450851 0.030848 -0.211560
C27   C     C_3   0.971436 0.548758 0.030845 -0.211595
C28   C     C_3   0.028564 0.451242 0.969155 -0.211577
C29   C     C_3   0.701752 0.729732 0.544449 -0.155448
C30   C     C_3   0.298969 0.270989 0.458276 -0.155752
C31   C     C_3   0.298313 0.729665 0.455791 -0.155482
C32   C     C_3   0.701061 0.270960 0.541843 -0.155752
C33   C     C_3   0.201031 0.229011 0.541724 -0.155752
C34   C     C_3   0.798248 0.770268 0.455551 -0.155448
C35   C     C_3   0.798939 0.229040 0.458157 -0.155752
C36   C     C_3   0.201687 0.770335 0.544209 -0.155482
C37   C     C_3   0.229847 0.201838 0.455134 -0.155709
C38   C     C_3   0.770880 0.798890 0.542149 -0.155808
C39   C     C_3   0.770185 0.201806 0.544750 -0.155722
C40   C     C_3   0.229183 0.798827 0.457606 -0.155810
C41   C     C_3   0.729120 0.701110 0.457851 -0.155811
C42   C     C_3   0.270153 0.298162 0.544866 -0.155711
C43   C     C_3   0.270817 0.701173 0.542394 -0.155809
C44   C     C_3   0.729814 0.298194 0.455250 -0.155721
C45   C     C_1   0.374846 0.125155 0.499955 -0.161313
C46   C     C_1   0.625154 0.874845 0.500045 -0.161309
C47   C     C_1   0.625153 0.125155 0.500046 -0.161196
C48   C     C_1   0.374846 0.874845 0.499954 -0.161191
C49   C     C_1   0.874846 0.625155 0.499955 -0.161314
C50   C     C_1   0.125154 0.374845 0.500045 -0.161319
C51   C     C_1   0.125154 0.625155 0.500046 -0.161186
C52   C     C_1   0.874847 0.374845 0.499954 -0.161190
C53   C     C_3   0.263214 0.235143 0.586565 -0.146809
C54   C     C_3   0.735338 0.763408 0.413426 -0.146881
C55   C     C_3   0.736723 0.235204 0.413433 -0.146672
C56   C     C_3   0.264534 0.763538 0.586577 -0.146736
C57   C     C_3   0.764662 0.736592 0.586573 -0.146883
C58   C     C_3   0.236786 0.264857 0.413435 -0.146812
C59   C     C_3   0.235466 0.736461 0.413423 -0.146732
C60   C     C_3   0.763277 0.264796 0.586567 -0.146669
C61   C     C_3   0.291264 0.208736 0.499976 0.179639
C62   C     C_3   0.708737 0.791264 0.500024 0.179601
C63   C     C_3   0.708736 0.208736 0.500026 0.179539
C64   C     C_3   0.291264 0.791264 0.499974 0.179506
C65   C     C_3   0.791263 0.708736 0.499976 0.179602
C66   C     C_3   0.208736 0.291264 0.500024 0.179639
C67   C     C_3   0.208736 0.708736 0.500026 0.179506
C68   C     C_3   0.791264 0.291264 0.499974 0.179539
C69   C     C_3   0.555718 0.000350 0.030582 0.337550
C70   C     C_3   0.444282 0.999650 0.969418 0.337550
C71   C     C_3   0.055718 0.500386 0.030582 0.337549
C72   C     C_3   0.944282 0.499613 0.969418 0.337550
C73   C     C_3   0.499850 0.000000 0.091499 -0.023029
C74   C     C_3   0.500150 1.000000 0.908500 -0.023028
C75   C     C_3   0.999850 0.500000 0.091499 -0.023030
C76   C     C_3   0.000150 0.500000 0.908500 -0.023030
Cu1   Cu    Cu3+1 0.500000 1.000000 0.590220 1.002010
Cu2   Cu    Cu3+1 0.500000 1.000000 0.409780 1.002010
Cu3   Cu    Cu3+1 0.000000 0.500000 0.590220 1.002010
Cu4   Cu    Cu3+1 1.000000 0.500000 0.409780 1.002010
H1    H     H_    0.213983 0.161621 0.418304 0.140257
H2    H     H_    0.787340 0.839705 0.576749 0.140133
H3    H     H_    0.786077 0.161563 0.581485 0.140309
H4    H     H_    0.212773 0.839589 0.422805 0.140201
H5    H     H_    0.712660 0.660295 0.423250 0.140133
H6    H     H_    0.286017 0.338379 0.581696 0.140256
H7    H     H_    0.287227 0.660411 0.577194 0.140202
H8    H     H_    0.713923 0.338437 0.418515 0.140309
H9    H     H_    0.661466 0.713773 0.580937 0.139687
H10   H     H_    0.339848 0.287540 0.424025 0.139516
H11   H     H_    0.338654 0.713651 0.419500 0.139723
H12   H     H_    0.660207 0.287487 0.576191 0.139572
H13   H     H_    0.160152 0.212460 0.575975 0.139517
H14   H     H_    0.838534 0.786227 0.419062 0.139688
H15   H     H_    0.839793 0.212513 0.423809 0.139571
H16   H     H_    0.161346 0.786349 0.580500 0.139722
H17   H     H_    0.722621 0.775096 0.342358 0.146309
H18   H     H_    0.274742 0.222265 0.657626 0.146482
H19   H     H_    0.277146 0.775334 0.657647 0.146518
H20   H     H_    0.725142 0.222377 0.342371 0.146668
H21   H     H_    0.225257 0.277734 0.342374 0.146476
H22   H     H_    0.777379 0.724904 0.657642 0.146303
H23   H     H_    0.774858 0.277623 0.657629 0.146675
H24   H     H_    0.222854 0.724666 0.342353 0.146524
H25   H     H_    0.447500 0.088884 0.055642 0.167484
H26   H     H_    0.552500 0.911116 0.944358 0.167470
H27   H     H_    0.551380 0.089534 0.944351 0.167499
H28   H     H_    0.448620 0.910466 0.055649 0.167485
H29   H     H_    0.947442 0.588849 0.055643 0.167469
H30   H     H_    0.052558 0.411150 0.944357 0.167483
H31   H     H_    0.051321 0.589567 0.944351 0.167483
H32   H     H_    0.948678 0.410432 0.055649 0.167497
N1    N     N_1   0.499980 1.000000 0.274190 -0.150398
N2    N     N_1   0.500020 1.000000 0.725810 -0.150398
N3    N     N_1   0.999980 0.500000 0.274190 -0.150398
N4    N     N_1   0.000020 0.500000 0.725810 -0.150397
O1    O     O_R   0.439540 0.939530 0.576170 -0.562607
O2    O     O_R   0.560460 0.060470 0.423830 -0.562602
O3    O     O_R   0.560460 0.939530 0.423830 -0.562739
O4    O     O_R   0.439540 0.060470 0.576170 -0.562735
O5    O     O_R   0.939540 0.439530 0.576170 -0.562595
O6    O     O_R   0.060460 0.560470 0.423830 -0.562600
O7    O     O_R   0.060460 0.439530 0.423830 -0.562741
O8    O     O_R   0.939540 0.560470 0.576170 -0.562746
O9    O     O_R   0.439530 0.939530 0.423800 -0.574511
O10   O     O_R   0.560470 0.060470 0.576200 -0.574502
O11   O     O_R   0.560470 0.939530 0.576200 -0.574483
O12   O     O_R   0.439530 0.060470 0.423800 -0.574475
O13   O     O_R   0.939530 0.439530 0.423800 -0.574504
O14   O     O_R   0.060470 0.560470 0.576200 -0.574512
O15   O     O_R   0.060470 0.439530 0.576200 -0.574473
O16   O     O_R   0.939530 0.560470 0.423800 -0.574481
Br1   Br    Br    0.362791 0.999139 0.926237 -0.516813
Br2   Br    Br    0.637209 0.000862 0.073763 -0.516803
Br3   Br    Br    0.862791 0.499049 0.926235 -0.516802
Br4   Br    Br    0.137209 0.500951 0.073765 -0.516812

loop_
_geom_bond_atom_site_label_1
_geom_bond_atom_site_label_2
_ccdc_geom_bond_type
C9    C45   T    
C69   Br2   S    
Cu4   O16   S    
C26   C72   S    
C40   H4    S    
C11   C47   T    
C6    O14   A    
Cu1   O4    S    
Cu2   O12   S    
C18   N2    T    
C29   H9    S    
C2    O2    A    
C36   C67   S    
C17   N1    T    
Cu4   O6    S    
Cu1   Cu2   S    
C57   H22   S    
Cu3   O5    S    
C31   C43   S    
C9    C61   S    
C59   H24   S    
Cu2   O2    S    
C1    O9    A    
Cu1   O1    S    
C42   C53   S    
C12   C64   S    
C3    O11   A    
C23   H25   S    
C5    O5    A    
C20   C76   S    
C31   C59   S    
C59   C67   S    
C53   C61   S    
C58   C66   S    
C55   C63   S    
C55   H20   S    
C70   C74   S    
C70   Br1   S    
C56   C64   S    
C54   H17   S    
C69   C73   S    
C16   C68   S    
C15   C51   T    
C6    C51   S    
C60   H23   S    
C7    O15   A    
C37   C58   S    
Cu1   O11   S    
C12   C48   T    
C5    O13   A    
C15   C67   S    
C18   C74   S    
C40   C59   S    
Cu3   N4    S    
C38   H2    S    
C17   C73   S    
C23   C70   S    
C37   H1    S    
C10   C62   S    
C23   C73   S    
C14   C50   T    
C27   C75   S    
C34   C65   S    
C24   C69   S    
C4    C45   S    
C33   C53   S    
C56   H19   S    
C4    O12   A    
C35   C55   S    
C34   H14   S    
C36   C40   S    
C32   C63   S    
C7    O7    A    
C71   Br4   S    
C20   N4    T    
C8    O8    A    
C72   Br3   S    
C13   C65   S    
C54   C62   S    
C28   H30   S    
Cu3   O14   S    
C21   C74   S    
C33   C37   S    
C21   C69   S    
C35   C39   S    
C8    O16   A    
C36   C56   S    
C38   C57   S    
C36   H16   S    
C30   H10   S    
Cu4   N3    S    
C19   N3    T    
Cu3   O15   S    
C33   C66   S    
C26   C75   S    
C14   C66   S    
C72   C76   S    
C5    C52   S    
C58   H21   S    
C1    O1    A    
C25   C71   S    
C60   C68   S    
C21   H27   S    
C3    O3    A    
Cu1   O10   S    
C42   H6    S    
C2    O10   A    
C29   C57   S    
C34   C54   S    
C31   H11   S    
C21   C23   S    
C2    C47   S    
C13   C49   T    
C44   C68   S    
Cu2   N1    S    
C24   H26   S    
C32   C60   S    
Cu1   N2    S    
C28   C76   S    
C26   H32   S    
C10   C46   T    
C41   H5    S    
C32   C44   S    
C29   C62   S    
Cu4   O13   S    
C29   C41   S    
C34   C38   S    
C31   C64   S    
C4    O4    A    
C16   C52   T    
C7    C50   S    
C57   C65   S    
C33   H13   S    
C37   C61   S    
C1    C48   S    
C35   H15   S    
C53   H18   S    
C25   C27   S    
C39   C63   S    
Cu3   O8    S    
C3    C46   S    
C26   C28   S    
C40   C64   S    
C25   C76   S    
C43   H7    S    
C19   C75   S    
Cu2   O3    S    
C39   H3    S    
C71   C75   S    
Cu2   O9    S    
C44   C55   S    
C24   C74   S    
C32   H12   S    
C35   C68   S    
C22   H28   S    
C39   C60   S    
C30   C58   S    
C22   C24   S    
C41   C65   S    
C41   C54   S    
C25   H31   S    
Cu3   Cu4   S    
C28   C71   S    
C43   C56   S    
C27   H29   S    
C43   C67   S    
C30   C61   S    
C42   C66   S    
C6    O6    A    
C30   C42   S    
C22   C73   S    
C44   H8    S    
C11   C63   S    
C8    C49   S    
C22   C70   S    
C27   C72   S    
C38   C62   S    
Cu4   O7    S    
