data_mof_unit_68227.cif
_audit_creation_date              2012-12-11T17:19:06-0500
_audit_creation_method            fapswitch 2.2
_symmetry_space_group_name_H-M    P1
_symmetry_Int_Tables_number       1
_space_group_crystal_system       triclinic
_cell_length_a                    14.493742
_cell_length_b                    7.315516
_cell_length_c                    13.698466
_cell_angle_alpha                 90.0
_cell_angle_beta                  100.133864
_cell_angle_gamma                 89.999989
_cell_volume                      1429.77845796

loop_
_atom_site_label
_atom_site_type_symbol
_atom_type_description
_atom_site_fract_x
_atom_site_fract_y
_atom_site_fract_z
_atom_type_partial_charge
O1    O     O_R   0.648180 0.355050 0.151550 -0.533382
O2    O     O_R   0.351820 0.644950 0.848450 -0.536314
O3    O     O_R   0.851820 0.855050 0.348450 -0.533382
O4    O     O_R   0.148180 0.144950 0.651550 -0.536313
O5    O     O_R   0.835240 0.681980 0.154280 -0.538628
O6    O     O_R   0.164760 0.318020 0.845720 -0.546367
O7    O     O_R   0.664760 0.181980 0.345720 -0.538630
O8    O     O_R   0.335240 0.818020 0.654280 -0.546367
C1    C     C_R   0.864262 0.515604 0.133884 0.793912
C2    C     C_R   0.137702 0.484407 0.868042 0.797936
C3    C     C_R   0.635737 0.015603 0.366116 0.793909
C4    C     C_R   0.362298 0.984407 0.631958 0.797935
O9    O     O_R   0.647870 0.684600 0.139630 -0.547417
O10   O     O_R   0.352130 0.315400 0.860370 -0.535409
O11   O     O_R   0.852130 0.184600 0.360370 -0.547417
O12   O     O_R   0.147870 0.815400 0.639630 -0.535410
O13   O     O_R   0.663110 0.857440 0.333700 -0.525912
O14   O     O_R   0.336890 0.142560 0.666300 -0.536037
O15   O     O_R   0.836890 0.357440 0.166300 -0.525915
O16   O     O_R   0.163110 0.642560 0.833700 -0.536037
C5    C     C_R   0.614019 0.516228 0.114740 0.777301
C6    C     C_R   0.385660 0.483939 0.885645 0.799915
C7    C     C_R   0.885981 0.016228 0.385260 0.777300
C8    C     C_R   0.114340 0.983939 0.614355 0.799916
H1    H     H_    0.506608 0.011783 0.754174 0.126651
H2    H     H_    0.487453 0.989216 0.239821 0.133846
H3    H     H_    0.993393 0.511785 0.745825 0.126651
H4    H     H_    0.012547 0.489216 0.260179 0.133846
O17   O     O_3   0.755220 0.522230 0.313690 -0.386678
O18   O     O_3   0.244780 0.477770 0.686310 -0.391037
O19   O     O_3   0.744780 0.022230 0.186310 -0.386679
O20   O     O_3   0.255220 0.977770 0.813690 -0.391037
V1    V     V_3+5 0.749030 0.796100 0.238190 1.434096
V2    V     V_3+5 0.250970 0.203900 0.761810 1.393166
V3    V     V_3+5 0.750970 0.296100 0.261810 1.434095
V4    V     V_3+5 0.249030 0.703900 0.738190 1.393165
C9    C     C_1   0.966922 0.005737 0.465669 -0.220495
C10   C     C_1   0.034042 0.995074 0.533276 -0.197839
C11   C     C_1   0.533077 0.505737 0.034332 -0.220497
C12   C     C_1   0.465958 0.495075 0.966724 -0.197839
C13   C     C_R   0.557914 0.996487 0.706729 -0.307971
C14   C     C_R   0.437738 0.992661 0.290172 -0.281580
C15   C     C_R   0.942086 0.496489 0.793270 -0.307970
C16   C     C_R   0.062262 0.492661 0.209828 -0.281580
C17   C     C_R   0.652583 0.980134 0.751146 0.391033
C18   C     C_R   0.342803 0.983268 0.247397 0.426963
C19   C     C_R   0.847417 0.480136 0.748853 0.391034
C20   C     C_R   0.157197 0.483268 0.252603 0.426963
C21   C     C_R   0.720608 0.972782 0.689685 0.281554
C22   C     C_R   0.275332 0.981909 0.309964 0.223684
C23   C     C_R   0.779392 0.472787 0.810314 0.281553
C24   C     C_R   0.224668 0.481910 0.190036 0.223681
C25   C     C_R   0.693262 0.976135 0.585109 0.274929
C26   C     C_R   0.303815 0.998727 0.413833 0.140407
C27   C     C_R   0.806737 0.476146 0.914890 0.274921
C28   C     C_R   0.196185 0.498727 0.086167 0.140406
C29   C     C_R   0.596707 0.992842 0.540220 -0.016529
C30   C     C_R   0.400738 0.995670 0.457699 -0.008604
C31   C     C_R   0.903293 0.492846 0.959779 -0.016524
C32   C     C_R   0.099262 0.495670 0.042301 -0.008604
C33   C     C_R   0.528320 0.995548 0.602962 -0.070666
C34   C     C_R   0.468784 0.998205 0.394272 -0.079193
C35   C     C_R   0.971680 0.495550 0.897038 -0.070666
C36   C     C_R   0.031215 0.498205 0.105727 -0.079193
C37   C     C_R   0.566492 0.003058 0.434943 -0.075951
C38   C     C_R   0.431027 0.995463 0.562638 -0.085450
C39   C     C_R   0.933508 0.503059 0.065056 -0.075953
C40   C     C_R   0.068973 0.495464 0.937362 -0.085451
O21   O     O_3   0.683214 0.985395 0.853671 -0.577127
C41   C     C_3   0.619859 0.908091 0.909856 0.097240
H5    H     H_    0.661825 0.828220 0.970754 0.176444
H6    H     H_    0.570027 0.807756 0.868099 0.117038
C42   C     C_3   0.570119 0.061617 0.956158 -0.344166
H7    H     H_    0.621793 0.128207 0.014382 0.232345
H8    H     H_    0.544219 0.166747 0.899584 0.200810
C43   C     C_3   0.487872 0.992701 0.001606 -0.734022
H9    H     H_    0.433961 0.930655 0.943636 0.245842
H10   H     H_    0.455594 0.108904 0.035378 0.231851
H11   H     H_    0.511611 0.891026 0.060499 0.235182
O22   O     O_3   0.321064 0.947310 0.145785 -0.581200
C44   C     C_3   0.245343 0.053356 0.095292 0.104832
H12   H     H_    0.270601 0.133392 0.036325 0.150349
H13   H     H_    0.217042 0.151436 0.143318 0.155147
C45   C     C_3   0.166015 0.927915 0.047109 -0.269863
H14   H     H_    0.188923 0.851355 0.985900 0.226252
H15   H     H_    0.150242 0.831508 0.103601 0.238763
C46   C     C_3   0.074910 0.027915 0.007731 -0.791674
H16   H     H_    0.052021 0.109885 0.067348 0.245299
H17   H     H_    0.019260 0.926469 0.980585 0.231014
H18   H     H_    0.083485 0.116615 0.944918 0.245413
O23   O     O_3   0.816786 0.485394 0.646328 -0.577129
C47   C     C_3   0.880142 0.408089 0.590144 0.097241
H19   H     H_    0.838177 0.328216 0.529247 0.176442
H20   H     H_    0.929975 0.307757 0.631902 0.117040
C48   C     C_3   0.929881 0.561615 0.543841 -0.344174
H21   H     H_    0.878207 0.628203 0.485615 0.232344
H22   H     H_    0.955781 0.666748 0.600413 0.200809
C49   C     C_3   0.012129 0.492699 0.498393 -0.734016
H23   H     H_    0.066040 0.430657 0.556364 0.245842
H24   H     H_    0.044406 0.608902 0.464620 0.231850
H25   H     H_    0.988391 0.391022 0.439501 0.235182
O24   O     O_3   0.178935 0.447310 0.354215 -0.581200
C50   C     C_3   0.254656 0.553356 0.404709 0.104832
H26   H     H_    0.229398 0.633392 0.463675 0.150348
H27   H     H_    0.282957 0.651436 0.356682 0.155147
C51   C     C_3   0.333984 0.427915 0.452891 -0.269862
H28   H     H_    0.311076 0.351355 0.514100 0.226254
H29   H     H_    0.349758 0.331508 0.396399 0.238763
C52   C     C_3   0.425089 0.527914 0.492268 -0.791674
H30   H     H_    0.447978 0.609885 0.432652 0.245300
H31   H     H_    0.480739 0.426469 0.519415 0.231014
H32   H     H_    0.416515 0.616615 0.555081 0.245414
O25   O     O_3   0.182543 0.949508 0.269577 -0.666274
H33   H     H_    0.150150 0.892876 0.319907 0.291224
O26   O     O_3   0.815362 0.963564 0.729231 -0.663990
H34   H     H_    0.825241 0.953329 0.802335 0.324039
O27   O     O_3   0.317456 0.449509 0.230423 -0.666277
H35   H     H_    0.349849 0.392876 0.180094 0.291229
O28   O     O_3   0.684639 0.463564 0.770768 -0.663992
H36   H     H_    0.674761 0.453312 0.697664 0.324040
O29   O     O_3   0.760253 0.957615 0.525699 -0.660382
H37   H     H_    0.821202 0.921685 0.565441 0.318923
O30   O     O_3   0.236861 0.024945 0.472264 -0.671316
H38   H     H_    0.185162 0.098834 0.434654 0.318085
O31   O     O_3   0.739745 0.457638 0.974300 -0.660390
H39   H     H_    0.678797 0.421728 0.934556 0.318926
O32   O     O_3   0.263139 0.524943 0.027736 -0.671316
H40   H     H_    0.314837 0.598836 0.065345 0.318086

loop_
_geom_bond_atom_site_label_1
_geom_bond_atom_site_label_2
_ccdc_geom_bond_type
C30   C34   A    
C16   C20   A    
C26   O30   S    
O1    C5    A    
C27   C31   A    
C42   H7    S    
O3    C7    A    
C48   H21   S    
C45   C46   S    
C13   C33   A    
C46   H16   S    
C44   H12   S    
C48   C49   S    
C15   C35   A    
O30   H38   S    
C16   C36   A    
O7    C3    A    
O1    V3    S    
C22   C26   A    
C43   H10   S    
C52   H31   S    
C14   C18   A    
O4    C8    A    
C51   H28   S    
O3    V1    S    
O26   H34   S    
O8    V4    S    
C28   O32   S    
C31   C39   A    
C33   C38   A    
C30   C38   A    
C27   O31   S    
C2    O16   A    
O5    V1    S    
O2    C6    A    
C23   O28   S    
O19   V1    S    
C41   H5    S    
C14   C34   A    
C24   O27   S    
O11   C7    A    
C6    C12   S    
O12   C8    A    
C42   H8    S    
O24   C50   S    
O13   V1    S    
O11   V3    S    
C44   H13   S    
C1    O15   A    
O4    V2    S    
C17   O21   S    
C36   C39   A    
C43   H9    S    
C52   H32   S    
H1    C13   S    
C11   C12   T    
C25   C29   A    
C19   C23   A    
C7    C9    S    
C4    C38   S    
H4    C16   S    
C47   C48   S    
O6    V2    S    
O20   V2    S    
C1    C39   S    
O5    C1    A    
C9    C10   T    
H3    C15   S    
C8    C10   S    
C5    C11   S    
C17   C21   A    
O8    C4    A    
C20   O24   S    
C41   C42   S    
C47   H20   S    
O9    C5    A    
C50   H27   S    
C45   H14   S    
O14   V2    S    
O29   H37   S    
C21   O26   S    
C49   H23   S    
C49   H24   S    
C46   H17   S    
O31   H39   S    
C42   C43   S    
O32   H40   S    
O23   C47   S    
C44   C45   S    
H2    C14   S    
O25   H33   S    
C26   C30   A    
O2    V4    S    
O17   V3    S    
C35   C40   A    
C3    O13   A    
C34   C37   A    
C19   O23   S    
C29   C37   A    
O22   C44   S    
O10   V2    S    
O6    C2    A    
C41   H6    S    
O28   H36   S    
C48   H22   S    
C29   C33   A    
C2    C40   S    
C49   H25   S    
C18   C22   A    
C31   C35   A    
O18   V4    S    
C32   C36   A    
C22   O25   S    
O10   C6    A    
O15   V3    S    
O27   H35   S    
O12   V4    S    
C18   O22   S    
C51   H29   S    
C21   C25   A    
O7    V3    S    
C47   H19   S    
C50   C51   S    
C23   C27   A    
O21   C41   S    
O16   V4    S    
C24   C28   A    
C20   C24   A    
C43   H11   S    
C28   C32   A    
C32   C40   A    
O9    V1    S    
C46   H18   S    
C4    O14   A    
C50   H26   S    
C13   C17   A    
C45   H15   S    
C25   O29   S    
C52   H30   S    
C15   C19   A    
C3    C37   S    
C51   C52   S    
