data_mof_unit_9617.cif
_audit_creation_date              2013-03-05T16:04:29-0500
_audit_creation_method            fapswitch 2.2
_symmetry_space_group_name_H-M    P1
_symmetry_Int_Tables_number       1
_space_group_crystal_system       triclinic
_cell_length_a                    10.948954
_cell_length_b                    9.521652
_cell_length_c                    15.037228
_cell_angle_alpha                 90.65636
_cell_angle_beta                  90.812236
_cell_angle_gamma                 90.248089
_cell_volume                      1567.38685148

loop_
_atom_site_label
_atom_site_type_symbol
_atom_site_description
_atom_site_fract_x
_atom_site_fract_y
_atom_site_fract_z
_atom_type_partial_charge
O1    O     O_R   0.319640 0.618740 0.499990 -0.558595
O2    O     O_R   0.680360 0.381260 0.500010 -0.554788
O3    O     O_R   0.680360 0.618740 0.500010 -0.560797
O4    O     O_R   0.319640 0.381260 0.499990 -0.556061
C1    C     C_R   0.261943 0.499938 0.500372 0.853070
C2    C     C_R   0.738078 0.500477 0.501002 0.852677
O5    O     O_R   0.499970 0.618800 0.370260 -0.587347
O6    O     O_R   0.500030 0.381200 0.629740 -0.587610
O7    O     O_R   0.500030 0.618800 0.629740 -0.585730
O8    O     O_R   0.499970 0.381200 0.370260 -0.586462
C3    C     C_R   0.494125 0.499355 0.328979 0.816640
C4    C     C_R   0.506045 0.500654 0.670997 0.817360
Cu1   Cu    Cu3+1 0.500000 0.640660 0.500000 0.998126
Cu2   Cu    Cu3+1 0.500000 0.359340 0.500000 0.999927
C5    C     C_R   0.610898 0.554848 0.816666 0.111370
C6    C     C_R   0.389572 0.445003 0.183198 0.104808
C7    C     C_R   0.510208 0.500761 0.767685 -0.070140
C8    C     C_R   0.490102 0.499315 0.232260 -0.072950
C9    C     C_R   0.409541 0.445397 0.810188 -0.218671
C10   C     C_R   0.590647 0.555116 0.189786 -0.219007
C11   C     C_R   0.400790 0.452435 0.902443 0.039910
C12   C     C_R   0.599433 0.548128 0.097509 0.039952
C13   C     C_R   0.503411 0.498609 0.953236 -0.037809
C14   C     C_R   0.496873 0.501847 0.046694 -0.036844
C15   C     C_R   0.613439 0.537931 0.910545 0.093677
C16   C     C_R   0.386913 0.462312 0.089373 0.094222
C17   C     C_R   0.289828 0.420742 0.944195 0.155285
C18   C     C_R   0.710371 0.579909 0.055755 0.155138
C19   C     C_R   0.279642 0.441276 0.036432 0.098333
C20   C     C_R   0.720655 0.559076 0.963541 0.098394
H1    H     H_    0.334917 0.406102 0.769083 0.185914
H2    H     H_    0.665181 0.594615 0.230914 0.188113
C21   C     C_R   0.061196 0.373596 0.493816 0.144943
C22   C     C_R   0.938157 0.628999 0.494310 0.134719
C23   C     C_R   0.937265 0.374951 0.512672 0.147077
C24   C     C_R   0.063641 0.628456 0.511559 0.133342
C25   C     C_R   0.872038 0.501695 0.502688 -0.242512
C26   C     C_R   0.128049 0.500563 0.501690 -0.238118
C27   C     C_R   0.449874 0.072564 0.430632 0.036099
C28   C     C_R   0.550826 0.927316 0.569121 0.037677
C29   C     C_R   0.549795 0.075811 0.569554 0.037605
C30   C     C_R   0.448844 0.924051 0.430917 0.038011
H3    H     H_    0.409461 0.126427 0.375070 0.126145
H4    H     H_    0.592491 0.873381 0.624202 0.120937
H5    H     H_    0.589807 0.132428 0.625508 0.144108
H6    H     H_    0.406833 0.867310 0.375737 0.136501
N1    N     N_R   0.500000 0.852070 0.500000 -0.168832
N2    N     N_R   0.500000 0.147930 0.500000 -0.168929
C31   C     C_3   0.705753 0.641199 0.768661 -0.823686
H7    H     H_    0.764142 0.704900 0.814260 0.253657
H8    H     H_    0.762485 0.572405 0.725876 0.228837
H9    H     H_    0.660316 0.720372 0.726808 0.235553
C32   C     C_3   0.295099 0.357855 0.230996 -0.815744
H10   H     H_    0.236675 0.294394 0.185281 0.254548
H11   H     H_    0.340958 0.278419 0.272400 0.239719
H12   H     H_    0.238340 0.426031 0.274163 0.229936
I1    I     I_    0.132711 0.347284 0.869328 -0.387009
I2    I     I_    0.867349 0.653779 0.130597 -0.390973
C33   C     C_3   0.153515 0.468374 0.072479 -0.767529
H13   H     H_    0.104149 0.541624 0.027876 0.259101
H14   H     H_    0.100496 0.369031 0.076312 0.253854
H15   H     H_    0.156331 0.522407 0.138122 0.255910
C34   C     C_3   0.846809 0.531651 0.927654 -0.765707
H16   H     H_    0.896089 0.458671 0.972482 0.258794
H17   H     H_    0.844035 0.477144 0.862169 0.257832
H18   H     H_    0.899888 0.630917 0.923591 0.253572
I3    I     I_    0.131883 0.181272 0.439972 -0.262315
I4    I     I_    0.862005 0.820782 0.443788 -0.203453
I5    I     I_    0.864477 0.189977 0.572871 -0.246881
I6    I     I_    0.142363 0.818382 0.566801 -0.206895

loop_
_geom_bond_atom_site_label_1
_geom_bond_atom_site_label_2
_geom_bond_distance
_ccdc_geom_bond_type
C4    C7    1.453981 S    
C28   N1    1.366169 A    
Cu2   N2    2.012973 S    
C13   C14   1.408170 A    
C34   H17   1.107814 S    
C3    C8    1.454431 S    
C18   I2    2.152188 S    
C17   C19   1.404548 A    
C22   C25   1.416945 A    
C29   H5    1.080558 S    
C8    C10   1.387351 A    
C21   C26   1.413479 A    
O3    Cu1   1.986648 S    
C28   H4    1.076537 S    
O6    C4    1.290318 A    
C31   H9    1.103234 S    
C9    H1    1.080443 S    
O3    C2    1.293782 A    
C31   H8    1.110872 S    
C18   C20   1.404681 A    
C11   C17   1.408566 A    
C2    C25   1.466575 S    
C33   H13   1.110016 S    
C12   C18   1.408529 A    
C32   H10   1.105235 S    
C5    C31   1.517626 S    
O5    C3    1.290340 A    
C5    C15   1.422567 A    
C14   C16   1.423579 A    
C23   I5    2.145092 S    
O2    C2    1.296636 A    
C30   H6    1.081067 S    
C10   H2    1.080559 S    
O1    C1    1.293351 A    
C20   C34   1.512704 S    
C24   C26   1.417222 A    
C28   C29   1.413954 A    
C7    C9    1.387036 A    
C29   N2    1.366093 A    
C10   C12   1.393131 A    
C27   C30   1.414138 A    
C22   C24   1.394614 A    
C30   N1    1.365926 A    
C32   H11   1.103204 S    
C11   C13   1.415206 A    
O4    Cu2   1.986649 S    
O2    Cu2   1.984850 S    
O7    C4    1.292357 A    
C12   C14   1.415180 A    
C33   H14   1.110174 S    
O1    Cu1   1.984851 S    
O8    C3    1.292517 A    
C34   H16   1.109988 S    
O5    Cu1   1.959625 S    
C13   C15   1.423763 A    
C1    C26   1.466450 S    
C21   I3    2.145709 S    
C16   C19   1.421663 A    
C6    C8    1.409462 A    
C31   H7    1.105181 S    
C17   I1    2.152342 S    
C32   H12   1.110956 S    
C22   I4    2.152660 S    
C15   C20   1.421762 A    
C5    C7    1.409427 A    
O8    Cu2   1.964367 S    
O7    Cu1   1.964367 S    
C6    C32   1.517367 S    
C27   N2    1.366549 A    
C33   H15   1.107866 S    
C27   H3    1.076192 S    
O6    Cu2   1.959625 S    
C21   C23   1.390245 A    
Cu1   Cu2   2.678631 S    
Cu1   N1    2.012972 S    
C34   H18   1.110144 S    
C19   C33   1.512791 S    
C23   C25   1.413342 A    
C24   I6    2.152918 S    
O4    C1    1.296988 A    
C9    C11   1.392792 A    
C6    C16   1.422239 A    
