data_mof_unit_19119.cif
_audit_creation_date              2012-12-11T15:18:04-0500
_audit_creation_method            fapswitch 2.2
_symmetry_space_group_name_H-M    P1
_symmetry_Int_Tables_number       1
_space_group_crystal_system       triclinic
_cell_length_a                    15.665165
_cell_length_b                    15.659603
_cell_length_c                    34.476981
_cell_angle_alpha                 89.898354
_cell_angle_beta                  90.029284
_cell_angle_gamma                 119.51702
_cell_volume                      7359.83351238

loop_
_atom_site_label
_atom_site_type_symbol
_atom_type_description
_atom_site_fract_x
_atom_site_fract_y
_atom_site_fract_z
_atom_type_partial_charge
C1    C     C_R   0.578191 0.441446 0.554882 0.573819
C2    C     C_R   0.479520 0.956286 0.215991 0.373135
C3    C     C_3   0.814053 0.744794 0.568358 -0.375068
C4    C     C_3   0.310669 0.039126 0.590209 0.029004
C5    C     C_3   0.242949 0.042742 0.559415 -0.371491
C6    C     C_3   0.360823 0.047436 0.077225 0.019031
C7    C     C_3   0.282523 0.058671 0.055392 -0.366374
C8    C     C_3   0.692919 0.705632 0.079824 0.019185
C9    C     C_3   0.751383 0.749819 0.042861 -0.363329
C10   C     C_3   0.065017 0.315140 0.091505 0.031264
C11   C     C_3   0.079776 0.265325 0.056273 -0.362349
C12   C     C_3   0.162616 0.462137 0.661615 -0.007716
C13   C     C_R   0.512013 0.499040 0.208442 0.344299
C14   C     C_3   0.217903 0.409500 0.673705 -0.332262
C15   C     C_3   0.525526 0.702113 0.642329 0.009441
C16   C     C_3   0.588763 0.810529 0.632994 -0.347673
C17   C     C_3   0.300569 0.790561 0.624158 0.002457
C18   C     C_3   0.194187 0.713948 0.631270 -0.354244
C19   C     C_3   0.239345 0.882609 0.175320 0.017509
C20   C     C_3   0.169551 0.899436 0.200637 -0.355265
C21   C     C_3   0.723051 0.621443 0.174097 -0.001930
C22   C     C_3   0.830341 0.652821 0.166739 -0.362436
C23   C     C_3   0.012491 0.324020 0.185223 -0.011938
C24   C     C_R   0.935588 0.481153 0.201684 0.335185
C25   C     C_3   0.970003 0.220847 0.201682 -0.352356
C26   C     C_3   0.006831 0.686269 0.928868 -0.000943
C27   C     C_3   0.032950 0.778730 0.951882 -0.361090
C28   C     C_3   0.303867 0.323174 0.926415 -0.000515
C29   C     C_3   0.210152 0.260866 0.949227 -0.358494
C30   C     C_3   0.645224 0.905890 0.901923 0.003388
C31   C     C_3   0.714783 0.894831 0.929638 -0.356788
C32   C     C_3   0.698701 0.014691 0.430779 -0.003640
C33   C     C_3   0.795887 0.053470 0.452045 -0.361729
C34   C     C_3   0.326187 0.275608 0.418018 -0.001504
C35   C     C_R   0.026934 0.440880 0.850099 -0.134446
C36   C     C_3   0.272149 0.177787 0.439172 -0.356886
C37   C     C_3   0.907250 0.648590 0.404096 0.002975
C38   C     C_3   0.896468 0.716307 0.432821 -0.354496
C39   C     C_R   0.557561 0.586829 0.849520 -0.135743
C40   C     C_R   0.344742 0.843827 0.835761 -0.135254
C41   C     C_R   0.426813 0.995467 0.356598 -0.135413
C42   C     C_R   0.581262 0.561853 0.350840 -0.137367
C43   C     C_R   0.838970 0.348461 0.335060 -0.134891
C44   C     C_R   0.054008 0.451002 0.888917 -0.162599
C45   C     C_R   0.558690 0.136961 0.555078 0.576573
C46   C     C_R   0.548710 0.601815 0.888689 -0.151296
C47   C     C_R   0.335802 0.833072 0.875885 -0.170846
C48   C     C_R   0.443335 0.035844 0.393515 -0.162490
C49   C     C_R   0.595730 0.550786 0.389941 -0.154802
C50   C     C_R   0.828504 0.337072 0.375154 -0.172349
C51   C     C_R   0.067830 0.612481 0.890145 0.237097
C52   C     C_R   0.384920 0.459646 0.889404 0.243508
C53   C     C_R   0.488688 0.828879 0.878914 0.245619
C54   C     C_R   0.608176 0.057967 0.392796 0.237965
C55   C     C_R   0.467509 0.379679 0.387138 0.244834
C56   C     C_R   0.863774 0.421922 0.554795 0.566123
C57   C     C_R   0.829856 0.492757 0.380100 0.249370
C58   C     C_R   0.042837 0.602673 0.850787 -0.099787
C59   C     C_R   0.394197 0.445661 0.849969 -0.096854
C60   C     C_R   0.496228 0.838294 0.838391 -0.102806
C61   C     C_R   0.591807 0.019582 0.355218 -0.102168
C62   C     C_R   0.455092 0.391055 0.347761 -0.099816
C63   C     C_R   0.840483 0.503340 0.339759 -0.102037
C64   C     C_R   0.026143 0.518589 0.830137 -0.009227
C65   C     C_R   0.478576 0.511561 0.829436 -0.010630
C66   C     C_R   0.425589 0.847715 0.816641 -0.006305
C67   C     C_R   0.441870 0.578179 0.054678 0.577787
C68   C     C_R   0.502646 0.992027 0.336290 -0.007281
C69   C     C_R   0.514205 0.480782 0.329085 -0.009886
C70   C     C_R   0.846734 0.432472 0.317258 -0.000764
C71   C     C_R   0.080634 0.538947 0.908691 0.020763
C72   C     C_R   0.460327 0.542653 0.908392 0.022913
C73   C     C_R   0.407439 0.826160 0.898059 0.020044
C74   C     C_R   0.535667 0.072706 0.411054 0.027030
C75   C     C_R   0.543003 0.458683 0.407942 0.025560
C76   C     C_R   0.824683 0.408936 0.398232 0.019741
C77   C     C_R   0.578186 0.441739 0.445209 0.568247
C78   C     C_R   0.136406 0.558183 0.054914 0.573014
C79   C     C_R   0.557878 0.135234 0.445634 0.569159
C80   C     C_R   0.809850 0.392688 0.440564 0.588446
C81   C     C_R   0.442053 0.578021 0.945356 0.570177
C82   C     C_R   0.135627 0.558044 0.945375 0.562401
C83   C     C_R   0.392635 0.810342 0.940475 0.588350
C84   C     C_R   0.923676 0.460040 0.590169 -0.030104
C85   C     C_R   0.540876 0.461977 0.590782 -0.007442
C86   C     C_R   0.534267 0.072748 0.589402 -0.014409
C87   C     C_R   0.451001 0.912470 0.092954 -0.022548
C88   C     C_R   0.462175 0.545089 0.091551 -0.005425
C89   C     C_R   0.421392 0.863293 0.055009 0.571034
C90   C     C_R   0.076092 0.534047 0.090357 -0.008260
C91   C     C_R   0.976963 0.416905 0.605851 0.273248
C92   C     C_R   0.581399 0.557760 0.605892 0.257686
C93   C     C_R   0.435935 0.006576 0.599462 0.253697
C94   C     C_R   0.390773 0.942520 0.112256 0.250139
C95   C     C_R   0.558138 0.567847 0.102274 0.277943
C96   C     C_R   0.027036 0.437138 0.105181 0.275208
C97   C     C_R   0.013182 0.439875 0.643950 0.287917
C98   C     C_R   0.552506 0.571726 0.643014 0.262133
C99   C     C_R   0.415197 0.949546 0.633468 0.260010
C100  C     C_R   0.006692 0.510174 0.708988 0.342741
C101  C     C_R   0.396323 0.952966 0.152783 0.274456
C102  C     C_R   0.576349 0.546240 0.140154 0.271263
C103  C     C_R   0.985189 0.419644 0.142672 0.282221
C104  C     C_R   0.993729 0.503853 0.666549 -0.024745
C105  C     C_R   0.492389 0.489662 0.666324 -0.013305
C106  C     C_R   0.491508 0.966723 0.659566 -0.016481
C107  C     C_R   0.472290 0.948312 0.173276 0.000058
C108  C     C_R   0.497885 0.506175 0.167149 0.010026
C109  C     C_R   0.982222 0.496821 0.163076 -0.004505
C110  C     C_R   0.952241 0.555319 0.648824 -0.196643
C111  C     C_R   0.483855 0.499165 0.708422 0.353604
C112  C     C_R   0.447393 0.395812 0.649855 -0.200395
C113  C     C_R   0.588943 0.031390 0.648777 -0.194687
C114  C     C_R   0.540289 0.932052 0.152677 -0.179431
C115  C     C_R   0.402911 0.480758 0.155518 -0.179363
C116  C     C_R   0.028174 0.591495 0.147063 -0.199643
C117  C     C_R   0.918642 0.534418 0.610912 -0.207140
C118  C     C_R   0.470268 0.382346 0.612341 -0.205672
C119  C     C_R   0.610092 0.082375 0.613815 -0.200023
C120  C     C_R   0.528717 0.912495 0.113110 -0.195560
C121  C     C_R   0.385015 0.499022 0.118023 -0.203478
C122  C     C_R   0.470412 0.923553 0.698946 0.349887
C123  C     C_R   0.075687 0.610128 0.111514 -0.205313
C124  C     C_R   0.015496 0.514438 0.787590 0.342110
C125  C     C_R   0.481476 0.506077 0.786936 0.343135
C126  C     C_R   0.439006 0.867407 0.774549 0.342201
C127  C     C_R   0.492314 0.971284 0.294412 0.348804
C128  C     C_R   0.511012 0.487402 0.286688 0.342910
C129  C     C_R   0.869833 0.450180 0.275846 0.338344
C130  C     C_3   0.060073 0.389604 0.557743 0.010835
C131  C     C_3   0.067574 0.310296 0.535102 -0.353100
C132  C     C_3   0.741054 0.677759 0.598634 0.025832
Cr1   Cr    Cr6+3 0.522350 0.263930 0.500020 1.015452
Cr2   Cr    Cr6+3 0.736070 0.258420 0.500020 1.025840
Cr3   Cr    Cr6+3 0.741580 0.477650 0.500020 1.016336
Cr4   Cr    Cr6+3 0.263930 0.522350 0.000020 1.016368
Cr5   Cr    Cr6+3 0.258420 0.736070 0.000020 1.031830
Cr6   Cr    Cr6+3 0.477650 0.741580 0.000020 1.011800
H1    H     H_    0.881516 0.571264 0.598974 0.140065
H2    H     H_    0.385379 0.043520 0.407329 0.147501
H3    H     H_    0.199549 0.306924 0.971034 0.155578
H4    H     H_    0.631815 0.964843 0.913372 0.136830
H5    H     H_    0.681469 0.928258 0.873062 0.124020
H6    H     H_    0.732622 0.839000 0.918472 0.138331
H7    H     H_    0.783787 0.966006 0.932423 0.087172
H8    H     H_    0.680328 0.871721 0.958717 0.163943
H9    H     H_    0.689561 0.954299 0.411156 0.121815
H10   H     H_    0.638797 0.985151 0.452831 0.126961
H11   H     H_    0.806383 0.113247 0.472157 0.165533
H12   H     H_    0.796381 0.993404 0.469039 0.084153
H13   H     H_    0.652773 0.612842 0.405414 0.148689
H14   H     H_    0.857347 0.082456 0.430893 0.148224
H15   H     H_    0.278717 0.275772 0.393979 0.119177
H16   H     H_    0.339350 0.334884 0.439065 0.116278
H17   H     H_    0.317419 0.176159 0.463668 0.164060
H18   H     H_    0.201565 0.167480 0.450779 0.076271
H19   H     H_    0.256913 0.116779 0.418941 0.149178
H20   H     H_    0.928696 0.686523 0.375519 0.118225
H21   H     H_    0.966674 0.634857 0.414758 0.131363
H22   H     H_    0.875607 0.680702 0.461795 0.161742
H23   H     H_    0.967093 0.785978 0.435399 0.079968
H24   H     H_    0.823886 0.272002 0.388149 0.189868
H25   H     H_    0.838991 0.733088 0.422722 0.142706
H26   H     H_    0.939473 0.607138 0.665050 0.159219
H27   H     H_    0.398500 0.331608 0.666667 0.156216
H28   H     H_    0.649155 0.044979 0.667919 0.165720
H29   H     H_    0.599229 0.928238 0.167552 0.153313
H30   H     H_    0.342723 0.450071 0.176090 0.135998
H31   H     H_    0.028854 0.652171 0.162368 0.135587
H32   H     H_    0.012198 0.374121 0.835243 0.152531
H33   H     H_    0.437547 0.308112 0.601290 0.141511
H34   H     H_    0.624576 0.637289 0.834600 0.148109
H35   H     H_    0.288778 0.850600 0.819825 0.157432
H36   H     H_    0.356479 0.972978 0.343091 0.145594
H37   H     H_    0.627032 0.632323 0.337175 0.143412
H38   H     H_    0.844127 0.292992 0.318110 0.146365
H39   H     H_    0.040648 0.662868 0.836193 0.148026
H40   H     H_    0.332823 0.386065 0.835154 0.151389
H41   H     H_    0.557771 0.838404 0.824043 0.143935
H42   H     H_    0.650900 0.016118 0.340336 0.143036
H43   H     H_    0.401780 0.327995 0.331551 0.147111
H44   H     H_    0.686003 0.133318 0.606793 0.166549
H45   H     H_    0.843416 0.566952 0.325960 0.130064
H46   H     H_    0.132305 0.437743 0.571573 0.109545
H47   H     H_    0.043723 0.433881 0.536812 0.123826
H48   H     H_    0.996786 0.261713 0.520418 0.161267
H49   H     H_    0.126174 0.344560 0.512845 0.082908
H50   H     H_    0.085645 0.265679 0.555041 0.156607
H51   H     H_    0.759901 0.619726 0.606103 0.122504
H52   H     H_    0.749476 0.722192 0.624921 0.179998
H53   H     H_    0.798751 0.804932 0.560799 0.149213
H54   H     H_    0.889794 0.777209 0.580003 0.086323
H55   H     H_    0.577249 0.891600 0.098823 0.139749
H56   H     H_    0.808556 0.702424 0.541770 0.163897
H57   H     H_    0.362535 0.115977 0.599325 0.122149
H58   H     H_    0.265193 0.997414 0.615525 0.177275
H59   H     H_    0.188782 0.967165 0.550174 0.151861
H60   H     H_    0.203034 0.078999 0.571339 0.085335
H61   H     H_    0.286360 0.085017 0.533829 0.158682
H62   H     H_    0.421187 0.061895 0.056554 0.129181
H63   H     H_    0.389736 0.102968 0.100920 0.161373
H64   H     H_    0.221693 0.045865 0.075355 0.154224
H65   H     H_    0.314661 0.133978 0.043231 0.094638
H66   H     H_    0.311390 0.482505 0.110410 0.132061
H67   H     H_    0.252978 0.004891 0.031254 0.158688
H68   H     H_    0.745421 0.719973 0.103722 0.136987
H69   H     H_    0.650745 0.744132 0.086436 0.120798
H70   H     H_    0.700882 0.737622 0.018238 0.168658
H71   H     H_    0.800346 0.829977 0.046696 0.076180
H72   H     H_    0.796856 0.715317 0.036081 0.156674
H73   H     H_    0.024438 0.256846 0.113293 0.165329
H74   H     H_    0.138669 0.368988 0.103034 0.100240
H75   H     H_    0.121074 0.320055 0.033350 0.172888
H76   H     H_    0.121896 0.228280 0.064744 0.076234
H77   H     H_    0.113372 0.684887 0.100772 0.151407
H78   H     H_    0.007605 0.209655 0.044460 0.152153
H79   H     H_    0.177337 0.519928 0.683494 0.138304
H80   H     H_    0.192269 0.497908 0.633088 0.091781
H81   H     H_    0.206260 0.352225 0.652097 0.158706
H82   H     H_    0.297345 0.463332 0.675335 0.105102
H83   H     H_    0.192200 0.374815 0.702614 0.193154
H84   H     H_    0.471193 0.693142 0.664969 0.143376
H85   H     H_    0.484293 0.665014 0.615361 0.113880
H86   H     H_    0.646140 0.821210 0.611573 0.172106
H87   H     H_    0.542430 0.838812 0.620293 0.088676
H88   H     H_    0.060541 0.392188 0.902639 0.157153
H89   H     H_    0.624527 0.852188 0.659762 0.182890
H90   H     H_    0.348116 0.763329 0.636923 0.106633
H91   H     H_    0.312585 0.799292 0.592195 0.149785
H92   H     H_    0.144900 0.740079 0.619677 0.169540
H93   H     H_    0.177344 0.644587 0.616405 0.064197
H94   H     H_    0.180865 0.699762 0.662871 0.179476
H95   H     H_    0.249726 0.823771 0.188998 0.132173
H96   H     H_    0.204103 0.856659 0.146508 0.163236
H97   H     H_    0.156132 0.956487 0.187417 0.157082
H98   H     H_    0.098537 0.830148 0.203356 0.094569
H99   H     H_    0.608782 0.664162 0.902806 0.158596
H100  H     H_    0.201491 0.923769 0.230002 0.187658
H101  H     H_    0.706487 0.591164 0.203943 0.182272
H102  H     H_    0.713579 0.687437 0.172219 0.106472
H103  H     H_    0.852652 0.683507 0.137103 0.145347
H104  H     H_    0.877478 0.709372 0.188180 0.101837
H105  H     H_    0.841460 0.588423 0.169725 0.190945
H106  H     H_    0.027367 0.375166 0.209856 0.146814
H107  H     H_    0.083985 0.344369 0.171213 0.086135
H108  H     H_    0.956149 0.167697 0.177958 0.144814
H109  H     H_    0.022456 0.218003 0.222612 0.097192
H110  H     H_    0.272424 0.830396 0.889604 0.190338
H111  H     H_    0.899926 0.199912 0.216920 0.190049
H112  H     H_    0.980037 0.623699 0.949681 0.130537
H113  H     H_    0.946983 0.673243 0.908162 0.126186
H114  H     H_    0.058833 0.842596 0.931981 0.151811
H115  H     H_    0.967378 0.769623 0.967821 0.084083
H116  H     H_    0.091850 0.792830 0.973101 0.162627
H117  H     H_    0.366516 0.353007 0.947211 0.123506
H118  H     H_    0.313088 0.275350 0.904882 0.125964
H119  H     H_    0.146147 0.228335 0.929306 0.152795
H120  H     H_    0.214988 0.200830 0.964450 0.082663
N1    N     N_R   0.007336 0.436121 0.767651 -0.227606
N2    N     N_R   0.402334 0.945071 0.237532 -0.181280
N3    N     N_R   0.551723 0.581622 0.230307 -0.259569
N4    N     N_R   0.869532 0.389683 0.214134 -0.157865
N5    N     N_R   0.014564 0.588506 0.728878 -0.235403
N6    N     N_R   0.412183 0.424288 0.729058 -0.254290
N7    N     N_R   0.541980 0.921228 0.720378 -0.245330
N8    N     N_R   0.562891 0.973157 0.234548 -0.230066
N9    N     N_R   0.469141 0.410396 0.226242 -0.198509
N10   N     N_R   0.964363 0.557481 0.226604 -0.262248
N11   N     N_R   0.019513 0.590878 0.767427 -0.226691
N12   N     N_R   0.552856 0.581180 0.766316 -0.222843
N13   N     N_R   0.410558 0.428004 0.767545 -0.234558
N14   N     N_R   0.526499 0.893443 0.757397 -0.225179
N15   N     N_R   0.569362 0.981048 0.273002 -0.230599
N16   N     N_R   0.469538 0.404743 0.264719 -0.223710
N17   N     N_R   0.931888 0.542319 0.262972 -0.242539
N18   N     N_R   0.366866 0.867904 0.752912 -0.224015
N19   N     N_R   0.408613 0.952760 0.275884 -0.235830
N20   N     N_R   0.552531 0.575990 0.268750 -0.237154
N21   N     N_R   0.837974 0.374240 0.250635 -0.217110
N22   N     N_R   0.002476 0.433792 0.729161 -0.162359
N23   N     N_R   0.554288 0.577553 0.727827 -0.152854
N24   N     N_R   0.382295 0.895441 0.715897 -0.156684
O1    O     O_R   0.498680 0.159540 0.541860 -0.490645
O2    O     O_R   0.358060 0.532760 0.040030 -0.521780
O3    O     O_R   0.174700 0.641940 0.040030 -0.515066
O4    O     O_R   0.467240 0.825300 0.040030 -0.518327
O5    O     O_R   0.498590 0.161190 0.456930 -0.507675
O6    O     O_R   0.838810 0.337400 0.456930 -0.528667
O7    O     O_R   0.662600 0.501410 0.456930 -0.497459
O8    O     O_R   0.161190 0.498590 0.956930 -0.510576
O9    O     O_R   0.337400 0.838810 0.956930 -0.522735
O10   O     O_R   0.501410 0.662600 0.956930 -0.504192
O11   O     O_R   0.532680 0.359580 0.461300 -0.462502
O12   O     O_R   0.840460 0.339140 0.541860 -0.472812
O13   O     O_R   0.640420 0.173100 0.461300 -0.478477
O14   O     O_R   0.826900 0.467320 0.461300 -0.466987
O15   O     O_R   0.359580 0.532680 0.961300 -0.459938
O16   O     O_R   0.173100 0.640420 0.961300 -0.477013
O17   O     O_R   0.467320 0.826900 0.961300 -0.464189
O18   O     O_3   0.666667 0.333333 0.499990 -0.279917
O19   O     O_3   0.333333 0.666667 0.999990 -0.281358
O20   O     O_3   0.985606 0.344794 0.586017 -0.510505
O21   O     O_3   0.644968 0.637579 0.583526 -0.547045
O22   O     O_3   0.360658 0.992550 0.574611 -0.545507
O23   O     O_R   0.660860 0.501320 0.541860 -0.488331
O24   O     O_3   0.318782 0.951508 0.092480 -0.548070
O25   O     O_3   0.631769 0.603467 0.074606 -0.522748
O26   O     O_3   0.008672 0.359384 0.080744 -0.520737
O27   O     O_3   0.061309 0.393574 0.659390 -0.506249
O28   O     O_3   0.586097 0.665746 0.656783 -0.542347
O29   O     O_3   0.319464 0.879619 0.641641 -0.539092
O30   O     O_3   0.329450 0.971427 0.171969 -0.522972
O31   O     O_3   0.664230 0.547455 0.147292 -0.526302
O32   O     O_3   0.944938 0.326381 0.158426 -0.524261
O33   O     O_3   0.090737 0.699251 0.908691 -0.564043
O34   O     O_R   0.159540 0.498680 0.041860 -0.495535
O35   O     O_3   0.296547 0.399232 0.907463 -0.538507
O36   O     O_3   0.557090 0.815415 0.899373 -0.539610
O37   O     O_3   0.699552 0.091832 0.409288 -0.564037
O38   O     O_3   0.415284 0.287164 0.403305 -0.531030
O39   O     O_3   0.816897 0.560409 0.401307 -0.533159
O40   O     O_R   0.339140 0.840460 0.041860 -0.465904
O41   O     O_R   0.501320 0.660860 0.041860 -0.511274
O42   O     O_R   0.532760 0.358060 0.540030 -0.526688
O43   O     O_R   0.641940 0.174700 0.540030 -0.515781
O44   O     O_R   0.825300 0.467240 0.540030 -0.520972

loop_
_geom_bond_atom_site_label_1
_geom_bond_atom_site_label_2
_ccdc_geom_bond_type
C101  C107  A    
C41   H36   S    
C45   O1    A    
C19   C20   S    
N1    N22   A    
C6    O24   S    
C103  O32   S    
C125  N13   A    
C57   C76   A    
C126  N14   A    
C17   H90   S    
C55   C62   A    
C13   N9    A    
C100  C104  S    
C7    H65   S    
C14   H83   S    
C79   O13   A    
C54   C74   A    
C25   H111  S    
C80   O14   A    
N3    N20   A    
C91   O20   S    
C84   C117  A    
C20   H98   S    
C98   O28   S    
Cr2   O6    S    
C86   C119  A    
C84   C91   A    
C78   O3    A    
C46   C72   A    
C95   C102  A    
C11   H78   S    
C71   C82   S    
C88   C95   A    
C21   C22   S    
C79   O5    A    
C39   C65   A    
C14   H82   S    
C117  H1    S    
C51   C71   A    
C12   H80   S    
C22   H105  S    
C63   H45   S    
C49   H13   S    
C48   C74   A    
C18   H92   S    
C113  H28   S    
C83   O9    A    
Cr4   O19   S    
C67   O2    A    
Cr1   O1    S    
C70   C129  S    
C29   H119  S    
C30   H5    S    
C119  H44   S    
C37   C38   S    
C52   C72   A    
C50   C76   A    
C67   C88   S    
Cr2   O18   S    
Cr3   O7    S    
C10   H74   S    
C105  C112  A    
N6    N13   A    
C74   C79   S    
C87   C89   S    
C16   H86   S    
C132  H52   S    
C34   H15   S    
C56   O12   A    
C4    H58   S    
C126  N18   A    
C4    C5    S    
C82   O16   A    
C6    C7    S    
C54   C61   A    
C17   O29   S    
C103  C109  A    
Cr6   O19   S    
C130  C131  S    
C33   H11   S    
C62   H43   S    
C104  C110  A    
N2    N19   A    
N18   N24   A    
C118  H33   S    
C20   H100  S    
N4    N21   A    
Cr4   O2    S    
C81   O10   A    
C11   H76   S    
C31   H7    S    
C94   O24   S    
C35   H32   S    
C130  H46   S    
C73   C83   S    
C22   H103  S    
C36   H17   S    
C131  H49   S    
C87   C94   A    
C115  C121  A    
C116  C123  A    
C50   H24   S    
C90   C123  A    
C114  H29   S    
C32   H9    S    
C60   H41   S    
C8    O25   S    
C108  C115  A    
N7    N14   A    
C81   O15   A    
C30   O36   S    
C51   O33   S    
C112  H27   S    
N8    N15   A    
C2    N8    A    
C69   C128  S    
C57   O39   S    
C132  O21   S    
Cr2   O43   S    
C49   C75   A    
C55   C75   A    
C25   H108  S    
C127  N15   A    
C13   C108  S    
C128  N20   A    
C53   C60   A    
C57   C63   A    
C58   C64   A    
C80   O6    A    
C48   H2    S    
C106  C113  A    
C6    H63   S    
C5    H59   S    
C1    O23   A    
C66   C126  S    
C8    H69   S    
Cr2   O12   S    
C86   C93   A    
C9    H72   S    
C29   H3    S    
C106  C122  S    
C17   C18   S    
C75   C77   S    
C36   H19   S    
Cr1   O42   S    
C67   O41   A    
C38   H25   S    
C21   H101  S    
C52   O35   S    
C19   H96   S    
C1    O42   A    
Cr4   O15   S    
C99   C106  A    
C59   H40   S    
C76   C80   S    
C43   C50   A    
C90   C96   A    
C26   O33   S    
C120  H55   S    
C125  N12   A    
C28   O35   S    
C37   H21   S    
C15   H84   S    
C45   C86   S    
C23   H106  S    
C38   H22   S    
Cr4   O8    S    
C3    H54   S    
C59   C65   A    
Cr1   O18   S    
C34   C36   S    
C27   H116  S    
C111  N6    A    
C10   C11   S    
C45   O43   A    
N5    N11   A    
C115  H30   S    
C44   H88   S    
C24   N10   A    
C83   O17   A    
C21   O31   S    
C123  H77   S    
C4    H57   S    
C93   O22   S    
C28   H117  S    
C7    H67   S    
C55   O38   S    
C130  H47   S    
C5    H61   S    
C78   C90   S    
C26   C27   S    
C89   O40   A    
C28   C29   S    
C56   O44   A    
C18   H93   S    
C30   C31   S    
C4    O22   S    
C46   H99   S    
C95   O25   S    
Cr6   O10   S    
C26   H112  S    
C109  C116  A    
C113  C119  A    
C38   H23   S    
C32   O37   S    
Cr5   O19   S    
C93   C99   A    
C72   C81   S    
Cr3   O44   S    
C105  C111  S    
C60   C66   A    
C89   O4    A    
C40   C66   A    
Cr6   O41   S    
C130  O20   S    
C111  N23   A    
C110  C117  A    
C47   H110  S    
C56   C84   S    
C41   C68   A    
C34   H16   S    
C16   H87   S    
C3    C132  S    
C78   O34   A    
C47   C73   A    
C17   H91   S    
C16   H89   S    
C53   O36   S    
C62   C69   A    
C19   O30   S    
C23   H107  S    
C23   O32   S    
C27   H114  S    
C107  C114  A    
C39   H34   S    
C43   H38   S    
C100  N5    A    
C20   H97   S    
C51   C58   A    
C91   C97   A    
C8    H68   S    
C122  N24   A    
C68   C127  S    
C128  N16   A    
C11   H75   S    
C92   O21   S    
C14   H81   S    
C129  N17   A    
C54   O37   S    
C12   H79   S    
C22   H104  S    
C36   H18   S    
C110  H26   S    
C24   C109  S    
C88   C121  A    
C9    H70   S    
C32   H10   S    
C29   H120  S    
C30   H4    S    
C42   H37   S    
C32   C33   S    
C64   C124  S    
C6    H62   S    
C101  O30   S    
C15   H85   S    
C85   C118  A    
C97   C104  A    
C15   O28   S    
C10   H73   S    
C61   H42   S    
C85   C92   A    
C96   C103  A    
C24   N4    A    
Cr6   O17   S    
C132  H51   S    
C114  C120  A    
C40   C47   A    
C2    N2    A    
N9    N16   A    
C97   O27   S    
C99   O29   S    
C34   O38   S    
C92   C98   A    
Cr4   O34   S    
C98   C105  A    
C7    H64   S    
C33   H12   S    
C77   O7    A    
C40   H35   S    
C102  O31   S    
C15   C16   S    
C2    C107  S    
C44   C71   A    
C31   H6    S    
Cr5   O9    S    
Cr2   O13   S    
C82   O8    A    
C31   H8    S    
C94   C101  A    
C9    H71   S    
C8    C9    S    
Cr1   O5    S    
C102  C108  A    
C35   C64   A    
Cr1   O11   S    
C131  H50   S    
C100  N22   A    
Cr5   O16   S    
C19   H95   S    
C1    C85   S    
C124  N11   A    
C3    H56   S    
C124  N1    A    
Cr5   O40   S    
C77   O11   A    
C42   C69   A    
C127  N19   A    
C65   C125  S    
C37   H20   S    
Cr3   O14   S    
C52   C59   A    
C3    H53   S    
C63   C70   A    
Cr5   O3    S    
C10   O26   S    
C35   C44   A    
C27   H115  S    
C39   C46   A    
C25   H109  S    
C12   C14   S    
C43   C70   A    
Cr3   O23   S    
C53   C73   A    
C28   H118  S    
C121  H66   S    
C33   H14   S    
C37   O39   S    
C5    H60   S    
Cr6   O4    S    
C12   O27   S    
C87   C120  A    
C18   H94   S    
Cr3   O18   S    
C96   O26   S    
C112  C118  A    
C61   C68   A    
N10   N17   A    
C41   C48   A    
C116  H31   S    
C129  N21   A    
C58   H39   S    
C23   C25   S    
N12   N23   A    
C26   H113  S    
C42   C49   A    
C131  H48   S    
C21   H102  S    
C13   N3    A    
C122  N7    A    
