data_mof_unit_16730.cif
_audit_creation_date              2013-03-05T15:44:08-0500
_audit_creation_method            fapswitch 2.2
_symmetry_space_group_name_H-M    P1
_symmetry_Int_Tables_number       1
_space_group_crystal_system       triclinic
_cell_length_a                    19.648528
_cell_length_b                    11.139195
_cell_length_c                    19.711761
_cell_angle_alpha                 90.001932
_cell_angle_beta                  95.70816
_cell_angle_gamma                 90.003296
_cell_volume                      4292.89639676

loop_
_atom_site_label
_atom_site_type_symbol
_atom_site_description
_atom_site_fract_x
_atom_site_fract_y
_atom_site_fract_z
_atom_type_partial_charge
O1    O     O_R   0.783100 0.287550 0.345460 -0.508153
O2    O     O_R   0.216900 0.287550 0.654540 -0.508175
O3    O     O_R   0.283100 0.787550 0.345460 -0.508162
O4    O     O_R   0.716900 0.787550 0.654540 -0.508188
O5    O     O_R   0.760020 0.037400 0.337700 -0.525327
O6    O     O_R   0.239980 0.037400 0.662300 -0.525311
O7    O     O_R   0.260020 0.537400 0.337700 -0.525319
O8    O     O_R   0.739980 0.537400 0.662300 -0.525317
C1    C     C_R   0.725376 0.951841 0.359784 0.521462
C2    C     C_R   0.274627 0.951831 0.640216 0.521428
C3    C     C_R   0.225373 0.451842 0.359785 0.521460
C4    C     C_R   0.774624 0.451824 0.640219 0.521416
O9    O     O_R   0.666600 0.921990 0.332020 -0.467490
O10   O     O_R   0.333400 0.921990 0.667980 -0.467500
O11   O     O_R   0.166600 0.421990 0.332020 -0.467496
O12   O     O_R   0.833400 0.421990 0.667980 -0.467507
O13   O     O_R   0.557260 0.082670 0.312540 -0.441559
O14   O     O_R   0.442740 0.082670 0.687460 -0.441679
O15   O     O_R   0.057260 0.582670 0.312540 -0.441581
O16   O     O_R   0.942740 0.582670 0.687460 -0.441725
C5    C     C_R   0.535931 0.180663 0.338527 0.549584
C6    C     C_R   0.464059 0.180660 0.661466 0.549524
C7    C     C_R   0.035931 0.680662 0.338527 0.549573
C8    C     C_R   0.964057 0.680659 0.661465 0.549509
O17   O     O_R   0.548410 0.285740 0.316480 -0.521578
O18   O     O_R   0.451590 0.285740 0.683520 -0.521526
O19   O     O_R   0.048410 0.785740 0.316480 -0.521560
O20   O     O_R   0.951590 0.785740 0.683520 -0.521510
O21   O     O_R   0.680500 0.375040 0.327000 -0.502841
O22   O     O_R   0.319500 0.375040 0.673000 -0.502817
O23   O     O_R   0.180500 0.875040 0.327000 -0.502833
O24   O     O_R   0.819500 0.875040 0.673000 -0.502810
C9    C     C_R   0.736128 0.355503 0.363480 0.540645
C10   C     C_R   0.263862 0.355533 0.636525 0.540646
C11   C     C_R   0.236136 0.855526 0.363475 0.540635
C12   C     C_R   0.763866 0.855521 0.636522 0.540655
O25   O     O_R   0.780350 0.286720 0.192720 -0.467179
O26   O     O_R   0.219650 0.286720 0.807280 -0.467173
O27   O     O_R   0.280350 0.786720 0.192720 -0.467180
O28   O     O_R   0.719650 0.786720 0.807280 -0.467171
O29   O     O_R   0.757470 0.036630 0.196110 -0.500159
O30   O     O_R   0.242530 0.036630 0.803890 -0.500163
O31   O     O_R   0.257470 0.536630 0.196110 -0.500158
O32   O     O_R   0.742530 0.536630 0.803890 -0.500164
C13   C     C_R   0.721653 0.955823 0.162553 0.531458
C14   C     C_R   0.278349 0.955831 0.837449 0.531444
C15   C     C_R   0.221653 0.455823 0.162553 0.531459
C16   C     C_R   0.778349 0.455831 0.837449 0.531445
O33   O     O_R   0.663840 0.921160 0.179280 -0.499841
O34   O     O_R   0.336160 0.921160 0.820720 -0.499821
O35   O     O_R   0.163840 0.421160 0.179280 -0.499839
O36   O     O_R   0.836160 0.421160 0.820720 -0.499818
O37   O     O_R   0.554710 0.081900 0.170950 -0.452324
O38   O     O_R   0.445290 0.081900 0.829050 -0.452305
O39   O     O_R   0.054710 0.581900 0.170950 -0.452322
O40   O     O_R   0.945290 0.581900 0.829050 -0.452303
C17   C     C_R   0.538761 0.180107 0.138715 0.558835
C18   C     C_R   0.461233 0.180109 0.861285 0.558819
C19   C     C_R   0.038761 0.680107 0.138715 0.558832
C20   C     C_R   0.961233 0.680109 0.861285 0.558819
O41   O     O_R   0.545650 0.284910 0.163740 -0.541441
O42   O     O_R   0.454350 0.284910 0.836260 -0.541459
O43   O     O_R   0.045650 0.784910 0.163740 -0.541441
O44   O     O_R   0.954350 0.784910 0.836260 -0.541458
O45   O     O_R   0.677950 0.374280 0.185410 -0.524676
O46   O     O_R   0.322050 0.374280 0.814590 -0.524681
O47   O     O_R   0.177950 0.874280 0.185410 -0.524679
O48   O     O_R   0.822050 0.874280 0.814590 -0.524680
C21   C     C_R   0.737299 0.360243 0.164790 0.555517
C22   C     C_R   0.262702 0.360248 0.835209 0.555529
C23   C     C_R   0.237299 0.860243 0.164790 0.555511
C24   C     C_R   0.762701 0.860248 0.835209 0.555532
Cr1   Cr    Cr6+3 0.765780 0.160710 0.267420 1.056822
Cr2   Cr    Cr6+3 0.234220 0.160710 0.732580 1.056817
Cr3   Cr    Cr6+3 0.265780 0.660710 0.267420 1.056817
Cr4   Cr    Cr6+3 0.734220 0.660710 0.732580 1.056804
Cr5   Cr    Cr6+3 0.612200 0.009560 0.248850 1.124804
Cr6   Cr    Cr6+3 0.387800 0.009560 0.751150 1.124797
Cr7   Cr    Cr6+3 0.112200 0.509560 0.248850 1.124803
Cr8   Cr    Cr6+3 0.887800 0.509560 0.751150 1.124789
Cr9   Cr    Cr6+3 0.616030 0.323720 0.248510 1.019574
Cr10  Cr    Cr6+3 0.383970 0.323720 0.751490 1.019543
Cr11  Cr    Cr6+3 0.116030 0.823720 0.248510 1.019580
Cr12  Cr    Cr6+3 0.883970 0.823720 0.751490 1.019557
O49   O     O_3   0.664670 0.164660 0.254930 -0.295130
O50   O     O_3   0.335330 0.164660 0.745070 -0.295115
O51   O     O_3   0.164670 0.664660 0.254930 -0.295122
O52   O     O_3   0.835330 0.664660 0.745070 -0.295115
C25   C     C_1   0.485663 0.174879 0.594309 0.026196
C26   C     C_1   0.514298 0.174899 0.405673 0.026379
C27   C     C_1   0.985659 0.674871 0.594308 0.026176
C28   C     C_1   0.014298 0.674892 0.405673 0.026327
C29   C     C_1   0.504143 0.172900 0.464901 -0.017390
C30   C     C_1   0.495804 0.172887 0.535077 -0.017488
C31   C     C_1   0.004142 0.672887 0.464901 -0.017424
C32   C     C_1   0.995801 0.672874 0.535076 -0.017491
C33   C     C_3   0.688106 0.472883 0.536309 -0.256570
C34   C     C_3   0.311943 0.472766 0.463677 -0.256554
C35   C     C_3   0.188104 0.972853 0.536311 -0.256559
C36   C     C_3   0.811957 0.972770 0.463674 -0.256575
H1    H     H_    0.674312 0.561164 0.554147 0.167310
H2    H     H_    0.325799 0.561095 0.445908 0.167525
H3    H     H_    0.174301 0.061144 0.554134 0.167335
H4    H     H_    0.825804 0.061112 0.445929 0.167592
H5    H     H_    0.645782 0.420018 0.555404 0.130665
H6    H     H_    0.354207 0.419842 0.444515 0.130614
H7    H     H_    0.145794 0.919974 0.555423 0.130662
H8    H     H_    0.854217 0.919866 0.444499 0.130634
C37   C     C_3   0.680072 0.463087 0.457801 -0.243461
C38   C     C_3   0.320014 0.462838 0.542178 -0.243277
C39   C     C_3   0.180060 0.963031 0.457805 -0.243418
C40   C     C_3   0.820036 0.962802 0.542174 -0.243248
H9    H     H_    0.630357 0.419098 0.440907 0.158790
H10   H     H_    0.369654 0.418555 0.559008 0.158701
H11   H     H_    0.130363 0.918966 0.440926 0.158775
H12   H     H_    0.869667 0.918477 0.558991 0.158690
H13   H     H_    0.678636 0.552491 0.433927 0.145672
H14   H     H_    0.321631 0.552233 0.566098 0.146015
H15   H     H_    0.178580 0.052434 0.433922 0.145713
H16   H     H_    0.821678 0.052191 0.566108 0.146123
H17   H     H_    0.338798 0.050055 0.546775 0.090131
H18   H     H_    0.661358 0.050309 0.453233 0.090039
H19   H     H_    0.838808 0.549988 0.546770 0.090140
H20   H     H_    0.161314 0.550259 0.453229 0.090079
H21   H     H_    0.299897 0.052226 0.434808 0.062590
H22   H     H_    0.700304 0.052427 0.565212 0.062675
H23   H     H_    0.799939 0.552147 0.434806 0.062575
H24   H     H_    0.200274 0.552409 0.565203 0.062656
C41   C     C_3   0.823934 0.458571 0.530509 0.107048
C42   C     C_3   0.176102 0.458832 0.469512 0.106931
C43   C     C_3   0.323937 0.958641 0.530504 0.107015
C44   C     C_3   0.676122 0.958868 0.469514 0.106923
C45   C     C_3   0.749354 0.285554 0.556050 -0.240518
C46   C     C_3   0.250502 0.285604 0.443953 -0.240734
C47   C     C_3   0.249401 0.785571 0.556042 -0.240590
C48   C     C_3   0.750506 0.785609 0.443950 -0.240747
C49   C     C_3   0.759191 0.419033 0.567818 0.028521
C50   C     C_3   0.240800 0.419096 0.432188 0.028498
C51   C     C_3   0.259203 0.919052 0.567813 0.028518
C52   C     C_3   0.740811 0.919104 0.432187 0.028479
H25   H     H_    0.793402 0.234773 0.580299 0.175739
H26   H     H_    0.206406 0.235014 0.419639 0.175708
H27   H     H_    0.293462 0.734837 0.580304 0.175721
H28   H     H_    0.706410 0.735042 0.419621 0.175708
H29   H     H_    0.704256 0.252511 0.580464 0.095094
H30   H     H_    0.295604 0.252397 0.419610 0.095209
H31   H     H_    0.204301 0.752486 0.580438 0.095130
H32   H     H_    0.795612 0.752389 0.419620 0.095231
C53   C     C_3   0.740302 0.387850 0.436247 0.018012
C54   C     C_3   0.259677 0.387894 0.563756 0.017791
C55   C     C_3   0.240316 0.887874 0.436243 0.017963
C56   C     C_3   0.759685 0.887887 0.563754 0.017751
C57   C     C_3   0.806629 0.458955 0.453684 -0.202875
C58   C     C_3   0.193444 0.459247 0.546343 -0.203203
C59   C     C_3   0.306621 0.959041 0.453677 -0.202962
C60   C     C_3   0.693461 0.959268 0.546345 -0.203238
C61   C     C_3   0.738575 0.268274 0.477769 -0.213331
C62   C     C_3   0.261126 0.268302 0.522230 -0.213502
C63   C     C_3   0.238663 0.768291 0.477762 -0.213379
C64   C     C_3   0.761108 0.768296 0.522225 -0.213520
H33   H     H_    0.688001 0.227294 0.464557 0.090216
H34   H     H_    0.311504 0.226743 0.535550 0.090186
H35   H     H_    0.188137 0.727163 0.464519 0.090219
H36   H     H_    0.811471 0.726676 0.535557 0.090183
H37   H     H_    0.778234 0.210742 0.462893 0.176533
H38   H     H_    0.221159 0.211372 0.537000 0.177342
H39   H     H_    0.278405 0.710924 0.462913 0.176781
H40   H     H_    0.721109 0.711420 0.536982 0.177396
H41   H     H_    0.849984 0.422614 0.427666 0.202656
H42   H     H_    0.150063 0.423097 0.572393 0.202501
H43   H     H_    0.349981 0.922755 0.427647 0.202620
H44   H     H_    0.650074 0.923124 0.572391 0.202478
C65   C     C_3   0.483099 0.308809 0.963830 -0.128702
C66   C     C_3   0.516908 0.308811 0.036167 -0.128732
C67   C     C_3   0.983098 0.808808 0.963830 -0.128700
C68   C     C_3   0.016908 0.808810 0.036166 -0.128731
H45   H     H_    0.514492 0.364294 0.931634 0.180334
H46   H     H_    0.485528 0.364317 0.068363 0.180322
H47   H     H_    0.014491 0.864295 0.931635 0.180332
H48   H     H_    0.985529 0.864317 0.068363 0.180318
H49   H     H_    0.375584 0.135096 0.957750 0.067241
H50   H     H_    0.624399 0.135085 0.042249 0.067274
H51   H     H_    0.875584 0.635097 0.957750 0.067240
H52   H     H_    0.124399 0.635084 0.042249 0.067273
H53   H     H_    0.408237 0.181262 0.069148 0.108560
H54   H     H_    0.591755 0.181215 0.930843 0.108556
H55   H     H_    0.908237 0.681260 0.069149 0.108559
H56   H     H_    0.091755 0.681213 0.930843 0.108555
C69   C     C_3   0.428607 0.103113 0.972419 -0.203872
C70   C     C_3   0.571374 0.103101 0.027579 -0.203873
C71   C     C_3   0.928607 0.603112 0.972419 -0.203871
C72   C     C_3   0.071373 0.603100 0.027579 -0.203872
C73   C     C_3   0.554244 0.117495 0.949627 0.071286
C74   C     C_3   0.445738 0.117521 0.050371 0.071294
C75   C     C_3   0.054244 0.617494 0.949627 0.071286
C76   C     C_3   0.945738 0.617520 0.050371 0.071295
C77   C     C_3   0.481596 0.175559 0.934905 -0.008210
C78   C     C_3   0.518395 0.175562 0.065094 -0.008200
C79   C     C_3   0.981596 0.675558 0.934905 -0.008211
C80   C     C_3   0.018395 0.675561 0.065094 -0.008202
H57   H     H_    0.571775 0.007478 0.043004 0.224849
H58   H     H_    0.428195 0.007486 0.956996 0.224856
H59   H     H_    0.071775 0.507477 0.043005 0.224849
H60   H     H_    0.928194 0.507486 0.956995 0.224856
C81   C     C_1   0.764525 0.432860 0.906368 -0.004357
C82   C     C_1   0.235475 0.432852 0.093633 -0.004344
C83   C     C_1   0.264526 0.932860 0.906368 -0.004358
C84   C     C_1   0.735475 0.932851 0.093633 -0.004344
C85   C     C_1   0.754315 0.413265 0.037353 -0.017608
C86   C     C_1   0.245688 0.413266 0.962648 -0.017646
C87   C     C_1   0.254316 0.913265 0.037353 -0.017608
C88   C     C_1   0.745687 0.913266 0.962648 -0.017648
C89   C     C_1   0.758749 0.423004 0.966460 -0.040832
C90   C     C_1   0.241253 0.422999 0.033541 -0.040841
C91   C     C_1   0.258749 0.923004 0.966460 -0.040832
C92   C     C_1   0.741252 0.922999 0.033541 -0.040841
C93   C     C_1   0.748355 0.397553 0.097039 0.029997
C94   C     C_1   0.251648 0.397558 0.902962 0.029970
C95   C     C_1   0.248355 0.897553 0.097039 0.029996
C96   C     C_1   0.751648 0.897558 0.902962 0.029967
N1    N     N_R   0.884871 0.381547 0.547713 0.094538
O53   O     O_R   0.938712 0.425748 0.582401 -0.291067
O54   O     O_R   0.890938 0.277496 0.518783 -0.354205
N2    N     N_R   0.115092 0.381941 0.452334 0.094449
O55   O     O_R   0.061333 0.426155 0.417531 -0.291207
O56   O     O_R   0.108882 0.278009 0.481342 -0.354019
N3    N     N_R   0.384887 0.881639 0.547699 0.094490
O57   O     O_R   0.438694 0.925806 0.582457 -0.291048
O58   O     O_R   0.391002 0.777654 0.518715 -0.354151
N4    N     N_R   0.615096 0.882014 0.452332 0.094489
O59   O     O_R   0.561332 0.926279 0.417563 -0.291238
O60   O     O_R   0.608882 0.778051 0.481300 -0.354013
C97   C     C_3   0.411770 0.370553 0.961878 -0.285801
C98   C     C_3   0.415506 0.507018 0.953164 -0.397437
H61   H     H_    0.441249 0.548737 0.999961 0.164800
H62   H     H_    0.443088 0.530676 0.908452 0.176805
H63   H     H_    0.363341 0.545488 0.944852 0.156681
H64   H     H_    0.378134 0.332408 0.920232 0.190079
H65   H     H_    0.385666 0.351191 0.008065 0.124518
C99   C     C_3   0.588242 0.370540 0.038107 -0.285955
C100  C     C_3   0.584517 0.507026 0.046673 -0.397716
H66   H     H_    0.558938 0.548565 0.999799 0.164763
H67   H     H_    0.556809 0.530854 0.091229 0.176751
H68   H     H_    0.636653 0.545520 0.055106 0.156712
H69   H     H_    0.621841 0.332526 0.079802 0.190237
H70   H     H_    0.614376 0.351017 0.991966 0.124537
C101  C     C_3   0.911769 0.870550 0.961879 -0.285794
C102  C     C_3   0.915505 0.007019 0.953170 -0.397414
H71   H     H_    0.941243 0.048739 0.999976 0.164798
H72   H     H_    0.943096 0.030686 0.908458 0.176800
H73   H     H_    0.863337 0.045481 0.944852 0.156682
H74   H     H_    0.878134 0.832408 0.920232 0.190076
H75   H     H_    0.885666 0.851185 0.008066 0.124512
C103  C     C_3   0.088243 0.870536 0.038106 -0.285943
C104  C     C_3   0.084519 0.007027 0.046667 -0.397692
H76   H     H_    0.058951 0.048569 0.999783 0.164759
H77   H     H_    0.056799 0.030865 0.091220 0.176742
H78   H     H_    0.136657 0.045512 0.055112 0.156713
H79   H     H_    0.121841 0.832523 0.079804 0.190235
H80   H     H_    0.114377 0.851007 0.991965 0.124530
N5    N     N_R   0.561431 0.003019 0.913870 0.082576
O61   O     O_R   0.531770 0.905533 0.932324 -0.317328
O62   O     O_R   0.599679 0.997802 0.863734 -0.334733
N6    N     N_R   0.438531 0.003060 0.086133 0.082554
O63   O     O_R   0.468172 0.905555 0.067679 -0.317320
O64   O     O_R   0.400309 0.997885 0.136289 -0.334753
N7    N     N_R   0.061431 0.503017 0.913870 0.082577
O65   O     O_R   0.031769 0.405532 0.932324 -0.317328
O66   O     O_R   0.099679 0.497799 0.863735 -0.334734
N8    N     N_R   0.938531 0.503058 0.086133 0.082554
O67   O     O_R   0.968172 0.405554 0.067678 -0.317321
O68   O     O_R   0.900309 0.497883 0.136289 -0.334750

loop_
_geom_bond_atom_site_label_1
_geom_bond_atom_site_label_2
_geom_bond_distance
_ccdc_geom_bond_type
C18   O42   1.269343 A    
Cr11  O51   2.011172 S    
C71   H60   1.107543 S    
O4    C12   1.271276 A    
C18   C77   1.467331 S    
C45   C49   1.514237 S    
C29   C30   1.409046 S    
C34   C38   1.543696 S    
O39   C19   1.288080 A    
C17   C78   1.467370 S    
O20   Cr12  2.023231 S    
O5    Cr1   1.962138 S    
O29   C13   1.284650 A    
H54   C73   1.112820 S    
C87   C91   1.412933 S    
C31   C32   1.409047 S    
C36   H4    1.087965 S    
H53   C74   1.112824 S    
C76   C80   1.567715 S    
N2    O55   1.298023 A    
C38   H14   1.100868 S    
O29   Cr1   1.966477 S    
C104  H77   1.110658 S    
C10   C54   1.473360 S    
H49   C69   1.111786 S    
C87   C95   1.206628 T    
O46   C22   1.282068 A    
C65   C66   1.511963 S    
C40   H16   1.100912 S    
O7    C3    1.272859 A    
C33   H1    1.087694 S    
C70   C78   1.560484 S    
C22   C94   1.435678 S    
C11   C55   1.473289 S    
C34   C50   1.588694 S    
C56   C60   1.534407 S    
C21   C93   1.435691 S    
C64   H36   1.100706 S    
C3    C50   1.475057 S    
C71   C79   1.560499 S    
C83   C91   1.206141 T    
O25   C21   1.263659 A    
O26   Cr2   2.074634 S    
N5    O61   1.301274 A    
H55   C76   1.112822 S    
C1    C52   1.475052 S    
C73   C77   1.567732 S    
C56   C64   1.565250 S    
O47   C23   1.282105 A    
O46   Cr10  1.909326 S    
O21   C9    1.266022 A    
O8    Cr4   1.962082 S    
N8    O68   1.300955 A    
O23   Cr11  1.983731 S    
H23   C57   1.106197 S    
C58   H42   1.113287 S    
C39   H15   1.100711 S    
C100  H66   1.108194 S    
O30   C14   1.284703 A    
N2    O56   1.302334 A    
C25   C30   1.204035 T    
O32   Cr4   1.966558 S    
C53   C57   1.534489 S    
C71   C76   1.548286 S    
O44   Cr12  2.105183 S    
C67   C79   1.589237 S    
C1    O9    1.272004 A    
C36   C52   1.588716 S    
C70   C73   1.548285 S    
C27   C32   1.204032 T    
C3    O11   1.271968 A    
C69   C74   1.548284 S    
C72   H59   1.107541 S    
O11   Cr7   2.105561 S    
C44   C52   1.593489 S    
C4    O12   1.271989 A    
H56   C75   1.112820 S    
O28   Cr4   2.074634 S    
N6    O63   1.301294 A    
C16   C81   1.434664 S    
H52   C72   1.111785 S    
C76   N8    1.470551 S    
C34   H6    1.114568 S    
O6    Cr2   1.962082 S    
O27   Cr3   2.074680 S    
C75   N7    1.470569 S    
C97   C98   1.532372 S    
Cr4   O52   1.977898 S    
C44   N4    1.484739 S    
N8    O67   1.301295 A    
O2    Cr2   2.091537 S    
C102  H73   1.108033 S    
C37   H9    1.113731 S    
C48   C52   1.514122 S    
C33   H5    1.114555 S    
O2    C10   1.271269 A    
Cr10  O50   2.011068 S    
C67   C101  1.558250 S    
C103  H80   1.109565 S    
O42   Cr10  2.105183 S    
C104  H78   1.107696 S    
C81   C89   1.206142 T    
C84   C92   1.206134 T    
Cr7   O51   2.009315 S    
H19   C41   1.098378 S    
C99   H70   1.109540 S    
C35   C51   1.588670 S    
C98   H62   1.111295 S    
C68   C80   1.589289 S    
C46   H30   1.112217 S    
O34   Cr6   2.038755 S    
C33   C49   1.588698 S    
C102  H72   1.111393 S    
C14   O34   1.273859 A    
O18   Cr10  2.023231 S    
C75   C79   1.567734 S    
C5    C26   1.431262 S    
O31   Cr3   1.966477 S    
C14   C83   1.434664 S    
O24   Cr12  1.983802 S    
O9    Cr5   2.105561 S    
C36   H8    1.114499 S    
O30   Cr2   1.966558 S    
O22   C10   1.266040 A    
C37   H13   1.100658 S    
O48   Cr12  1.909326 S    
C72   C75   1.548287 S    
C88   C92   1.412923 S    
C47   C63   1.548474 S    
C20   C79   1.467330 S    
C41   N1    1.484623 S    
C35   H3    1.087752 S    
C2    O10   1.271972 A    
C61   H37   1.072089 S    
N5    O62   1.300980 A    
O16   Cr8   1.916826 S    
O15   C7    1.293149 A    
C12   C56   1.473368 S    
C72   C80   1.560483 S    
C15   O35   1.273820 A    
C88   C96   1.206621 T    
C73   N5    1.470567 S    
C86   C90   1.412921 S    
C68   C103  1.558203 S    
C60   H44   1.113323 S    
C28   C31   1.204035 T    
C85   C89   1.412934 S    
O40   C20   1.288015 A    
O43   Cr11  2.105126 S    
O48   C24   1.282070 A    
C100  H67   1.110565 S    
C98   H63   1.107998 S    
C55   C63   1.565437 S    
O41   Cr9   2.105126 S    
O22   Cr10  1.983802 S    
C37   C53   1.543857 S    
C97   H64   1.087756 S    
O6    C2    1.272974 A    
O5    C1    1.272819 A    
N1    O53   1.298122 A    
C66   C99   1.558200 S    
O10   Cr6   2.105455 S    
C46   H26   1.102397 S    
O39   Cr7   1.984530 S    
C68   H48   1.114926 S    
O45   Cr9   1.909308 S    
N3    O57   1.298084 A    
C65   C77   1.589238 S    
O3    C11   1.271300 A    
C19   C80   1.467370 S    
O8    C4    1.272975 A    
C35   C39   1.543702 S    
H17   C43   1.098339 S    
O13   Cr5   1.916840 S    
C13   O33   1.273820 A    
H20   C42   1.098242 S    
H18   C44   1.098258 S    
C43   N3    1.484647 S    
O7    Cr3   1.962138 S    
O47   Cr11  1.909308 S    
Cr2   O50   1.977898 S    
N4    O60   1.302299 A    
O32   C16   1.284703 A    
Cr1   O49   1.977903 S    
C65   C97   1.558249 S    
C48   H32   1.112212 S    
C101  H75   1.109670 S    
C39   H11   1.113737 S    
Cr3   O51   1.977903 S    
O26   C22   1.263617 A    
N3    O58   1.302366 A    
C45   C61   1.548517 S    
O21   Cr9   1.983731 S    
C36   C40   1.543709 S    
C13   C84   1.434656 S    
C7    O19   1.280713 A    
C54   C58   1.534417 S    
O37   Cr5   1.984530 S    
C48   H28   1.102368 S    
C74   N6    1.470550 S    
C45   H29   1.112245 S    
C98   H61   1.108975 S    
C104  H76   1.108299 S    
C42   C50   1.593505 S    
C8    C27   1.431250 S    
C61   H33   1.100970 S    
C38   H10   1.113722 S    
C40   H12   1.113724 S    
H21   C59   1.106116 S    
C102  H71   1.109090 S    
C62   H38   1.071936 S    
C26   C29   1.204042 T    
O14   Cr6   1.916826 S    
O38   C18   1.288016 A    
O25   Cr1   2.074680 S    
C69   C77   1.560500 S    
C5    O17   1.280701 A    
O1    C9    1.271305 A    
O37   C17   1.288081 A    
O28   C24   1.263616 A    
C15   C82   1.434656 S    
C46   C62   1.548361 S    
O14   C6    1.293108 A    
C19   O43   1.269322 A    
C4    C49   1.475124 S    
C66   H46   1.114927 S    
C101  H74   1.087769 S    
C8    O20   1.280742 A    
C38   C54   1.543879 S    
O17   Cr9   2.023221 S    
C39   C55   1.543843 S    
C99   H69   1.087547 S    
C46   C50   1.514116 S    
C67   H47   1.114938 S    
N7    O65   1.301275 A    
O24   C12   1.266023 A    
C70   H57   1.107541 S    
C17   O41   1.269320 A    
Cr8   O52   2.009424 S    
H51   C71   1.111787 S    
H24   C58   1.105978 S    
C69   H58   1.107541 S    
C40   C56   1.543928 S    
C35   H7    1.114561 S    
C54   C62   1.565267 S    
C23   C95   1.435690 S    
C47   H31   1.112236 S    
C55   C59   1.534477 S    
O40   Cr8   1.984434 S    
C20   O44   1.269344 A    
C100  H68   1.107671 S    
O1    Cr1   2.091442 S    
C63   H39   1.072058 S    
C103  C104  1.532285 S    
C42   N2    1.484725 S    
C33   C37   1.543722 S    
O3    Cr3   2.091442 S    
C85   C93   1.206628 T    
N1    O54   1.302403 A    
C67   C68   1.511959 S    
C34   H2    1.088040 S    
C41   C57   1.518704 S    
N7    O66   1.300979 A    
C82   C90   1.206134 T    
C74   C78   1.567714 S    
Cr12  O52   2.011068 S    
O31   C15   1.284650 A    
C103  H79   1.087569 S    
O45   C21   1.282104 A    
O23   C11   1.266051 A    
C47   H27   1.102403 S    
C99   C100  1.532244 S    
C44   C60   1.518915 S    
C6    C25   1.431253 S    
O33   Cr5   2.038766 S    
C47   C51   1.514196 S    
C63   H35   1.100911 S    
C64   H40   1.071962 S    
C97   H65   1.109657 S    
N4    O59   1.298009 A    
O16   C8    1.293093 A    
O35   Cr7   2.038766 S    
O4    Cr4   2.091537 S    
C43   C51   1.593485 S    
C2    C51   1.475101 S    
C62   H34   1.100653 S    
Cr5   O49   2.009315 S    
O19   Cr11  2.023221 S    
C48   C64   1.548323 S    
C59   H43   1.113304 S    
C16   O36   1.273860 A    
C43   C59   1.518780 S    
C41   C49   1.593458 S    
N6    O64   1.300955 A    
Cr6   O50   2.009424 S    
C6    O18   1.280729 A    
C57   H41   1.113332 S    
O27   C23   1.263657 A    
C7    C28   1.431262 S    
C24   C96   1.435678 S    
C9    C53   1.473266 S    
C45   H25   1.102388 S    
H50   C70   1.111784 S    
O12   Cr8   2.105455 S    
C65   H45   1.114939 S    
O36   Cr8   2.038755 S    
C53   C61   1.565498 S    
C42   C58   1.518908 S    
Cr9   O49   2.011172 S    
C86   C94   1.206622 T    
O15   Cr7   1.916840 S    
C101  C102  1.532395 S    
H22   C60   1.106008 S    
C66   C78   1.589291 S    
O38   Cr6   1.984434 S    
O13   C5    1.293160 A    
