data_mof_unit_20549.cif
_audit_creation_date              2013-03-05T16:43:30-0500
_audit_creation_method            fapswitch 2.2
_symmetry_space_group_name_H-M    P1
_symmetry_Int_Tables_number       1
_space_group_crystal_system       triclinic
_cell_length_a                    10.513966
_cell_length_b                    10.662198
_cell_length_c                    9.891907
_cell_angle_alpha                 90.382803
_cell_angle_beta                  88.315784
_cell_angle_gamma                 90.577794
_cell_volume                      1108.34440725

loop_
_atom_site_label
_atom_site_type_symbol
_atom_site_description
_atom_site_fract_x
_atom_site_fract_y
_atom_site_fract_z
_atom_type_partial_charge
O1    O     O_R   0.500020 0.316790 0.614690 -0.617429
O2    O     O_R   0.500000 0.316760 0.385350 -0.573205
C1    C     C_R   0.511586 0.260515 0.498302 0.955703
O3    O     O_R   0.313960 0.499990 0.614650 -0.562439
O4    O     O_R   0.313940 0.499950 0.385310 -0.632600
C2    C     C_R   0.257237 0.501881 0.501537 0.951272
Zn1   Zn    Zn3+2 0.500010 0.500020 0.653130 1.046740
Zn2   Zn    Zn3+2 0.499990 0.499980 0.346870 1.051646
O5    O     O_R   0.500000 0.683240 0.614650 -0.620280
O6    O     O_R   0.499980 0.683210 0.385310 -0.558914
O7    O     O_R   0.686060 0.500050 0.614690 -0.620071
O8    O     O_R   0.686040 0.500010 0.385350 -0.622242
C3    C     C_R   0.506778 0.740362 0.499491 0.926198
C4    C     C_R   0.742484 0.500016 0.498052 0.908683
C5    C     C_3   0.033180 0.522455 0.626956 -0.116481
C6    C     C_3   0.953051 0.409595 0.577978 -0.170796
H1    H     H_    0.911327 0.332989 0.641139 0.221075
H2    H     H_    0.058776 0.541958 0.732461 0.262227
C7    C     C_3   0.877197 0.500826 0.494226 -0.117661
C8    C     C_3   0.954650 0.613433 0.542960 -0.146440
C9    C     C_3   0.045553 0.595270 0.418833 -0.251048
C10   C     C_3   0.964783 0.482828 0.369238 -0.204928
C11   C     C_3   0.042927 0.393527 0.454221 0.692554
C12   C     C_3   0.121904 0.504181 0.503163 -0.123633
H3    H     H_    0.913594 0.703713 0.578735 0.209090
H4    H     H_    0.087543 0.671248 0.355017 0.200565
H5    H     H_    0.933161 0.465444 0.264593 0.197457
C13   C     C_R   0.576495 0.065765 0.606404 -0.030297
C14   C     C_R   0.546265 0.130729 0.490631 -0.316888
C15   C     C_R   0.549312 0.064369 0.365816 0.210870
C16   C     C_R   0.540247 0.934308 0.368482 0.593495
C17   C     C_R   0.535962 0.871689 0.493969 -0.319781
C18   C     C_R   0.573212 0.937945 0.608051 -0.018349
C19   C     C_3   0.538929 0.933579 0.756234 0.099595
C20   C     C_3   0.543335 0.077783 0.753483 0.095751
H6    H     H_    0.442870 0.892684 0.778275 0.127028
H7    H     H_    0.449570 0.121782 0.774505 0.161587
C21   C     C_R   0.420807 0.421270 0.073692 0.190390
N1    N     N_R   0.499140 0.499140 0.142800 -0.110339
C22   C     C_R   0.587990 0.566974 0.069597 0.013161
H8    H     H_    0.657340 0.623396 0.121884 0.180966
C23   C     C_R   0.588317 0.566390 0.925789 -0.030298
H9    H     H_    0.658901 0.620640 0.869922 0.194491
N2    N     N_R   0.499140 0.499180 0.857150 -0.119259
C24   C     C_R   0.421417 0.420218 0.931232 0.134444
C25   C     C_3   0.279318 0.415753 0.933929 0.727887
C26   C     C_3   0.279596 0.417272 0.087525 -0.540066
H10   H     H_    0.239787 0.504782 0.132655 0.226404
H11   H     H_    0.244434 0.329584 0.136615 0.253129
N3    N     N_R   0.638403 0.878317 0.836879 0.252720
O9    O     O_R   0.740787 0.831615 0.779832 -0.375320
O10   O     O_R   0.625298 0.877629 0.967979 -0.273979
N4    N     N_R   0.647704 0.135739 0.827708 0.281542
O11   O     O_R   0.766064 0.112731 0.794652 -0.284806
O12   O     O_R   0.622605 0.222226 0.917354 -0.323508
F1    F     F_    0.227054 0.522774 0.881526 -0.665677
N5    N     N_R   0.228620 0.299036 0.876859 0.203787
O13   O     O_R   0.260800 0.190764 0.924631 -0.373778
O14   O     O_R   0.150351 0.302381 0.777718 -0.343512
F2    F     F_    0.093168 0.280786 0.409388 -0.625282
N6    N     N_R   0.557339 0.126134 0.237379 0.268775
O15   O     O_R   0.655318 0.197269 0.207429 -0.307956
O16   O     O_R   0.475965 0.099380 0.144606 -0.263794
F3    F     F_    0.530597 0.871681 0.249016 -0.578175

loop_
_geom_bond_atom_site_label_1
_geom_bond_atom_site_label_2
_geom_bond_distance
_ccdc_geom_bond_type
C5    H2    1.103330 S    
N3    O10   1.300153 A    
C11   C12   1.520554 S    
Zn1   O5    1.992761 S    
C14   C15   1.418621 A    
Zn2   N1    2.018883 S    
C6    H1    1.110600 S    
C20   N4    1.467209 S    
O4    Zn2   1.981733 S    
C3    C17   1.431482 S    
C16   C17   1.412743 A    
Zn2   O8    2.003762 S    
C2    C12   1.422962 S    
C17   C18   1.391284 A    
C22   C23   1.422411 A    
C18   C19   1.500078 S    
N5    O13   1.301930 A    
C26   H11   1.111374 S    
O1    Zn1   1.987800 S    
N4    O11   1.302638 A    
C8    C9    1.546014 S    
Zn1   O7    1.981733 S    
C11   F2    1.382964 S    
C1    C14   1.435532 S    
C21   C26   1.487172 S    
N6    O15   1.301356 A    
C23   N2    1.367846 A    
O3    Zn1   2.003761 S    
O4    C2    1.279581 A    
C4    C7    1.415706 S    
Zn2   O6    1.987800 S    
C22   H8    1.081773 S    
C20   H7    1.109589 S    
C9    H4    1.110358 S    
O8    C4    1.278254 A    
C13   C18   1.363125 A    
O2    C1    1.281129 A    
C6    C11   1.534080 S    
C19   H6    1.112265 S    
C10   H5    1.110325 S    
N4    O12   1.298678 A    
C25   N5    1.465074 S    
C6    C7    1.527687 S    
C15   C16   1.389419 A    
O7    C4    1.281749 A    
C19   N3    1.464629 S    
N5    O14   1.299508 A    
C8    H3    1.110399 S    
C15   N6    1.434817 S    
C5    C6    1.545396 S    
C13   C14   1.388790 A    
C26   H10   1.111932 S    
C24   C25   1.493761 S    
C7    C10   1.531967 S    
C21   N1    1.358924 A    
N2    C24   1.368494 A    
O3    C2    1.283662 A    
C19   C20   1.538157 S    
C23   H9    1.078060 S    
C9    C12   1.532785 S    
C25   F1    1.382025 S    
N1    C22   1.368839 A    
N6    O16   1.301253 A    
O5    C3    1.295104 A    
C25   C26   1.519421 S    
C5    C12   1.530033 S    
C21   C24   1.408998 A    
N3    O9    1.302495 A    
C9    C10   1.547652 S    
C16   F3    1.359355 S    
Zn1   N2    2.017979 S    
C10   C11   1.534718 S    
O2    Zn2   1.992761 S    
C7    C8    1.527314 S    
C13   C20   1.491065 S    
C5    C8    1.542820 S    
O1    C1    1.297807 A    
O6    C3    1.283278 A    
