data_mof_unit_7510.cif
_audit_creation_date              2012-10-26T21:12:35-0400
_audit_creation_method            fapswitch 2.2
_symmetry_space_group_name_H-M    P1
_symmetry_Int_Tables_number       1
_space_group_crystal_system       triclinic
_cell_length_a                    23.516388
_cell_length_b                    10.814737
_cell_length_c                    9.612187
_cell_angle_alpha                 89.30877
_cell_angle_beta                  89.987815
_cell_angle_gamma                 94.334316
_cell_volume                      2437.43513978

loop_
_atom_site_label
_atom_site_type_symbol
_atom_type_description
_atom_site_fract_x
_atom_site_fract_y
_atom_site_fract_z
_atom_type_partial_charge
C1    C     C_R   0.501437 0.261971 0.501751 0.541113
C2    C     C_R   0.123247 0.607997 0.542799 0.400235
C3    C     C_R   0.239037 0.506569 0.625325 -0.057050
C4    C     C_R   0.391023 0.499937 0.500012 0.541968
C5    C     C_R   0.298276 0.505054 0.625817 -0.146676
C6    C     C_R   0.328464 0.501680 0.499812 0.005381
C7    C     C_R   0.298311 0.500385 0.373476 -0.148899
C8    C     C_R   0.239094 0.501974 0.373302 -0.057195
C9    C     C_R   0.209229 0.504818 0.499149 0.241781
C10   C     C_R   0.761285 0.502313 0.625035 -0.062321
C11   C     C_R   0.701955 0.500648 0.625602 -0.164560
C12   C     C_R   0.963339 0.294801 0.408086 -0.123024
C13   C     C_R   0.671609 0.500626 0.499629 -0.000795
C14   C     C_R   0.701721 0.501361 0.373202 -0.145513
C15   C     C_R   0.761036 0.502875 0.372904 -0.066604
C16   C     C_R   0.492639 0.735229 0.500383 0.541007
C17   C     C_R   0.791021 0.503423 0.498752 0.242568
C18   C     C_R   0.518698 0.108418 0.763660 -0.145554
C19   C     C_R   0.508790 0.042249 0.889385 0.292747
C20   C     C_R   0.475684 0.928879 0.888646 0.296331
C21   C     C_R   0.464506 0.872122 0.759008 -0.144807
C22   C     C_R   0.482563 0.930994 0.633019 -0.023342
C23   C     C_R   0.022668 0.294965 0.408276 -0.123251
C24   C     C_R   0.500410 0.057638 0.634639 -0.028678
C25   C     C_R   0.499279 0.126205 0.506939 -0.005287
C26   C     C_R   0.487783 0.063196 0.382216 -0.153516
C27   C     C_R   0.482259 0.935282 0.380745 -0.168441
C28   C     C_R   0.608972 0.499982 0.499956 0.564946
C29   C     C_R   0.483133 0.867715 0.504829 -0.016428
C30   C     C_R   0.590761 0.647638 0.131833 0.304868
C31   C     C_R   0.640013 0.673458 0.050144 -0.166379
C32   C     C_R   0.635007 0.682616 0.908628 -0.234547
C33   C     C_R   0.583725 0.645310 0.847882 -0.095986
C34   C     C_R   0.056495 0.399516 0.453225 0.028790
C35   C     C_R   0.541406 0.572631 0.922386 0.121961
C36   C     C_R   0.542906 0.572860 0.072235 0.166125
C37   C     C_R   0.460322 0.431102 0.074895 -0.010070
C38   C     C_R   0.460525 0.430696 0.927264 -0.006954
C39   C     C_R   0.883979 0.607169 0.542574 0.399454
C40   C     C_R   0.877015 0.400990 0.454019 0.400302
C41   C     C_R   0.936598 0.399166 0.452899 0.029178
C42   C     C_R   0.970102 0.504463 0.498273 -0.028304
C43   C     C_R   0.943719 0.609533 0.543605 0.029095
C44   C     C_3   0.585969 0.101328 0.023678 -0.021905
C45   C     C_R   0.030131 0.504650 0.498393 -0.028282
C46   C     C_3   0.605228 0.165209 0.157737 -0.371636
C47   C     C_3   0.408869 0.794902 0.007615 -0.027119
C48   C     C_3   0.383364 0.771617 0.151794 -0.370656
C49   C     C_3   0.610333 0.821853 0.273090 -0.007025
C50   C     C_3   0.634544 0.849271 0.417345 -0.365875
C51   C     C_R   0.063649 0.609930 0.543754 0.029292
C52   C     C_R   0.036899 0.714314 0.588522 -0.122202
C53   C     C_R   0.977555 0.714110 0.588470 -0.123839
C54   C     C_R   0.116213 0.401681 0.454648 0.400800
Cu1   Cu    Cu3+1 0.500000 0.499990 0.640660 0.912112
Cu2   Cu    Cu3+1 0.500000 0.500010 0.359340 0.975085
H1    H     H_    0.938544 0.212667 0.372798 0.169804
H2    H     H_    0.041895 0.212949 0.373124 0.169521
H3    H     H_    0.680482 0.704102 0.096801 0.124243
H4    H     H_    0.670084 0.723755 0.846472 0.135725
H5    H     H_    0.580466 0.671222 0.741478 0.194397
H6    H     H_    0.428198 0.373394 0.873077 0.125261
H7    H     H_    0.061698 0.796449 0.623793 0.171263
H8    H     H_    0.958322 0.796090 0.623703 0.168639
H9    H     H_    0.216194 0.508433 0.723016 0.131169
H10   H     H_    0.320335 0.506350 0.724749 0.121158
H11   H     H_    0.320380 0.497899 0.274768 0.120237
H12   H     H_    0.679951 0.498839 0.724571 0.135379
H13   H     H_    0.216329 0.500984 0.275359 0.130872
H14   H     H_    0.784205 0.501977 0.722719 0.130858
H15   H     H_    0.606430 0.156545 0.936329 0.118688
H16   H     H_    0.601544 0.006603 0.023411 0.131040
H17   H     H_    0.591095 0.107535 0.249140 0.142406
H18   H     H_    0.652498 0.178827 0.159813 0.107750
H19   H     H_    0.587329 0.257148 0.164411 0.182739
H20   H     H_    0.418337 0.703473 0.965130 0.136433
H21   H     H_    0.376098 0.837346 0.942436 0.134131
H22   H     H_    0.375921 0.860997 0.201847 0.167042
H23   H     H_    0.679556 0.500460 0.274520 0.135698
H24   H     H_    0.342002 0.715492 0.143386 0.100682
H25   H     H_    0.412424 0.719493 0.217098 0.182245
H26   H     H_    0.574084 0.878363 0.252973 0.159797
H27   H     H_    0.643958 0.855448 0.198148 0.102173
H28   H     H_    0.673575 0.799114 0.433378 0.160566
H29   H     H_    0.645714 0.950395 0.427323 0.105976
H30   H     H_    0.603280 0.819313 0.499398 0.155815
H31   H     H_    0.783778 0.503684 0.274889 0.128851
H32   H     H_    0.484829 0.112521 0.284111 0.194644
H33   H     H_    0.542500 0.197223 0.769738 0.157793
H34   H     H_    0.440404 0.783409 0.755468 0.137519
H35   H     H_    0.478888 0.889364 0.281845 0.193477
H36   H     H_    0.427823 0.374296 0.130679 0.124248
N1    N     N_R   0.852023 0.503936 0.498342 -0.397747
N2    N     N_R   0.148222 0.504892 0.498822 -0.398978
N3    N     N_R   0.500540 0.501210 0.147910 -0.245222
N4    N     N_R   0.500560 0.501290 0.852040 -0.251817
O1    O     O_R   0.500000 0.319640 0.618810 -0.504966
O2    O     O_R   0.582120 0.500020 0.618760 -0.529388
O3    O     O_R   0.582120 0.500050 0.381190 -0.446173
O4    O     O_2   0.857994 0.707413 0.584435 -0.500721
O5    O     O_3   0.525741 0.094513 0.015052 -0.546727
O6    O     O_3   0.459727 0.873566 0.016305 -0.551285
O7    O     O_3   0.591373 0.693896 0.265425 -0.503737
O8    O     O_2   0.844255 0.300428 0.412276 -0.499872
O9    O     O_2   0.142127 0.301156 0.413350 -0.492138
O10   O     O_2   0.156023 0.708573 0.584411 -0.494905
O11   O     O_R   0.500000 0.319660 0.381240 -0.508615
O12   O     O_R   0.417880 0.499950 0.618810 -0.511673
O13   O     O_R   0.417880 0.499980 0.381240 -0.520513
O14   O     O_R   0.500000 0.680340 0.618760 -0.538389
O15   O     O_R   0.500000 0.680360 0.381190 -0.447792

loop_
_geom_bond_atom_site_label_1
_geom_bond_atom_site_label_2
_ccdc_geom_bond_type
C23   H2    S    
Cu1   Cu2   S    
C22   C29   A    
C27   C29   A    
C11   C13   A    
C41   C42   A    
C19   C20   A    
C40   N1    A    
C4    O13   A    
C16   O14   A    
C7    C8    A    
C35   N4    A    
C52   C53   A    
C4    O12   A    
C12   C23   A    
C26   C27   A    
C12   C41   A    
C18   C24   A    
C47   H20   S    
C30   C31   A    
C53   H8    S    
C20   O6    S    
C45   C51   A    
Cu2   N3    S    
C31   H3    S    
C48   H25   S    
C37   N3    A    
C44   H15   S    
C18   C19   A    
C48   H22   S    
C39   N1    A    
C50   H29   S    
C43   C53   A    
C31   C32   A    
C8    C9    A    
C30   O7    S    
C13   C28   S    
C27   H35   S    
Cu2   O15   S    
C37   H36   S    
C47   O6    S    
C21   C22   A    
C1    C25   S    
C3    H9    S    
C46   H19   S    
C44   C46   S    
C21   H34   S    
C50   H28   S    
C51   C52   A    
C2    N2    A    
C24   C25   A    
C4    C6    S    
C2    C51   A    
C1    O1    A    
C5    H10   S    
C39   C43   A    
C16   C29   S    
C2    O10   S    
C42   C45   A    
C49   H26   S    
Cu2   O11   S    
C37   C38   A    
C3    C9    A    
C40   O8    S    
C47   C48   S    
C23   C34   A    
Cu1   O1    S    
C8    H13   S    
C34   C45   A    
C14   H23   S    
C1    O11   A    
C12   H1    S    
C10   H14   S    
C28   O3    A    
C33   H5    S    
C40   C41   A    
C34   C54   A    
Cu1   O14   S    
C22   C24   A    
C17   N1    S    
C42   C43   A    
C32   H4    S    
Cu2   O13   S    
C46   H18   S    
C11   H12   S    
C15   H31   S    
C28   O2    A    
C15   C17   A    
C54   O9    S    
C18   H33   S    
Cu1   N4    S    
C3    C5    A    
C52   H7    S    
C49   O7    S    
C44   O5    S    
C6    C7    A    
C30   C36   A    
Cu1   O12   S    
C32   C33   A    
C49   H27   S    
C25   C26   A    
C19   O5    S    
C36   N3    A    
C48   H24   S    
C39   O4    S    
C5    C6    A    
Cu1   O2    S    
C33   C35   A    
C44   H16   S    
C54   N2    A    
C10   C11   A    
C50   H30   S    
C7    H11   S    
C20   C21   A    
C26   H32   S    
C49   C50   S    
C38   N4    A    
C47   H21   S    
C14   C15   A    
C35   C36   A    
C10   C17   A    
Cu2   O3    S    
C13   C14   A    
C9    N2    S    
C46   H17   S    
C16   O15   A    
C38   H6    S    
