data_mof_unit_7602.cif
_audit_creation_date              2012-12-11T14:33:51-0500
_audit_creation_method            fapswitch 2.2
_symmetry_space_group_name_H-M    P1
_symmetry_Int_Tables_number       1
_space_group_crystal_system       triclinic
_cell_length_a                    13.838003
_cell_length_b                    13.972234
_cell_length_c                    27.352397
_cell_angle_alpha                 90.131391
_cell_angle_beta                  89.516913
_cell_angle_gamma                 119.493734
_cell_volume                      4603.00959062

loop_
_atom_site_label
_atom_site_type_symbol
_atom_type_description
_atom_site_fract_x
_atom_site_fract_y
_atom_site_fract_z
_atom_type_partial_charge
C1    C     C_R   0.233602 0.787111 0.568736 0.539906
C2    C     C_R   0.212357 0.446565 0.568829 0.541772
C3    C     C_R   0.552133 0.764978 0.569187 0.540474
C4    C     C_3   0.660180 0.734530 0.790197 -0.212123
C5    C     C_3   0.244034 0.954401 0.782613 -0.212278
C6    C     C_3   0.056408 0.312636 0.786548 -0.211475
C7    C     C_3   0.639256 0.721508 0.734352 -0.213230
C8    C     C_3   0.259791 0.938912 0.727673 -0.213150
C9    C     C_3   0.073267 0.347132 0.731946 -0.213393
C10   C     C_1   0.707807 0.862696 0.860138 -0.073708
C11   C     C_1   0.114326 0.882137 0.852639 -0.072745
C12   C     C_1   0.115762 0.231190 0.852209 -0.074176
C13   C     C_1   0.626839 0.813589 0.659262 -0.075487
C14   C     C_1   0.176010 0.819056 0.656324 -0.075756
C15   C     C_1   0.177901 0.358493 0.656398 -0.075929
C16   C     C_1   0.599500 0.795478 0.617000 -0.017728
C17   C     C_1   0.198173 0.805970 0.615151 -0.017651
C18   C     C_1   0.192220 0.393285 0.615262 -0.017470
C19   C     C_R   0.067116 0.156554 0.097159 0.556118
C20   C     C_R   0.773992 0.882510 0.086878 0.569439
C21   C     C_R   0.115740 0.892644 0.087449 0.595655
C22   C     C_R   0.069910 0.160537 0.943228 0.531239
C23   C     C_R   0.780206 0.887361 0.950649 0.550976
C24   C     C_R   0.090986 0.930117 0.943529 0.530011
C25   C     C_R   0.635861 0.898564 0.361458 -0.146927
C26   C     C_R   0.104725 0.766264 0.364292 -0.137305
C27   C     C_R   0.254796 0.339885 0.367829 -0.137054
C28   C     C_R   0.659185 0.912764 0.311200 0.006500
C29   C     C_R   0.086723 0.771878 0.314389 0.018382
C30   C     C_R   0.228998 0.288434 0.321823 0.015577
C31   C     C_R   0.687725 0.931386 0.209171 0.003377
C32   C     C_R   0.054401 0.788711 0.214569 0.007386
C33   C     C_R   0.188399 0.214655 0.224207 0.011927
C34   C     C_R   0.235141 0.786608 0.430793 0.540832
C35   C     C_R   0.211122 0.442693 0.432312 0.550049
C36   C     C_R   0.554888 0.766079 0.431277 0.544001
C37   C     C_R   0.692364 0.018412 0.236638 -0.126729
C38   C     C_R   0.964570 0.750552 0.247483 -0.116959
C39   C     C_R   0.281175 0.223816 0.248953 -0.116567
C40   C     C_R   0.678321 0.009320 0.287364 -0.148250
C41   C     C_R   0.980667 0.742232 0.297177 -0.126599
C42   C     C_R   0.302857 0.263168 0.297060 -0.128883
C43   C     C_R   0.709760 0.942953 0.159082 -0.156776
C44   C     C_R   0.039893 0.803993 0.165763 -0.148914
C45   C     C_R   0.171393 0.185830 0.174687 -0.154908
C46   C     C_R   0.709420 0.857354 0.132486 -0.023130
C47   C     C_R   0.131214 0.851581 0.133714 -0.022331
C48   C     C_R   0.088022 0.192970 0.148677 -0.024527
C49   C     C_R   0.622996 0.718938 0.357276 -0.128083
C50   C     C_R   0.300442 0.832982 0.347266 -0.120435
C51   C     C_R   0.075245 0.331408 0.370350 -0.125961
C52   C     C_R   0.637471 0.728385 0.307145 0.008898
C53   C     C_R   0.283444 0.836376 0.297771 0.005452
C54   C     C_R   0.052703 0.289012 0.323629 0.014233
C55   C     C_R   0.655300 0.825198 0.283672 0.066469
C56   C     C_R   0.176948 0.807951 0.281044 0.066970
C57   C     C_R   0.130297 0.269122 0.298575 0.068755
C58   C     C_R   0.625760 0.638647 0.280036 -0.147894
C59   C     C_R   0.371422 0.866684 0.264887 -0.138149
C60   C     C_R   0.958308 0.276668 0.300181 -0.135136
C61   C     C_R   0.630466 0.643857 0.229465 -0.124577
C62   C     C_R   0.356287 0.875467 0.215408 -0.098854
C63   C     C_R   0.945987 0.255268 0.250624 -0.117532
C64   C     C_R   0.654030 0.741724 0.205020 -0.017177
C65   C     C_R   0.252551 0.855471 0.197984 -0.001493
C66   C     C_R   0.023706 0.237542 0.224278 -0.007475
C67   C     C_3   0.563150 0.851909 0.738411 -0.214185
C68   C     C_3   0.141948 0.734105 0.738749 -0.215798
C69   C     C_3   0.272266 0.390226 0.736319 -0.215668
C70   C     C_R   0.666361 0.833021 0.232592 0.037490
C71   C     C_R   0.161156 0.816703 0.231076 0.042335
C72   C     C_R   0.112568 0.237486 0.249237 0.045399
C73   C     C_R   0.668114 0.752017 0.153983 0.047902
C74   C     C_R   0.237600 0.874227 0.148745 0.039313
C75   C     C_R   0.018358 0.226639 0.173317 0.044612
C76   C     C_R   0.612768 0.799304 0.384061 -0.004931
C77   C     C_R   0.212064 0.799238 0.380519 0.011435
C78   C     C_R   0.179907 0.366847 0.390767 -0.004184
C79   C     C_3   0.766934 0.924298 0.722587 -0.215292
C80   C     C_3   0.053673 0.847330 0.714834 -0.213716
C81   C     C_3   0.123032 0.200560 0.712696 -0.213394
C82   C     C_3   0.787518 0.937340 0.778516 -0.215527
C83   C     C_3   0.036711 0.863379 0.769706 -0.217013
C84   C     C_3   0.106443 0.166611 0.767287 -0.219210
C85   C     C_1   0.735281 0.873418 0.902417 -0.019130
C86   C     C_1   0.103511 0.902607 0.894399 -0.018030
C87   C     C_1   0.097256 0.200031 0.894009 -0.023953
C88   C     C_3   0.649095 0.828002 0.712160 0.071758
C89   C     C_3   0.157675 0.834270 0.707969 0.071762
C90   C     C_3   0.162034 0.324576 0.707911 0.071813
C91   C     C_3   0.584071 0.864848 0.794393 -0.214026
C92   C     C_3   0.124542 0.750649 0.793667 -0.211703
C93   C     C_3   0.255344 0.355823 0.791016 -0.212078
C94   C     C_3   0.684721 0.850176 0.807294 0.070991
C95   C     C_3   0.129294 0.862783 0.801063 0.070601
C96   C     C_3   0.133430 0.266055 0.800698 0.070298
Cr1   Cr    Cr6+3 0.164410 0.584450 0.499910 1.021370
Cr2   Cr    Cr6+3 0.415550 0.579960 0.499910 1.017127
Cr3   Cr    Cr6+3 0.420040 0.835590 0.499910 1.016826
Cr4   Cr    Cr6+3 0.155170 0.075460 0.019960 1.060217
Cr5   Cr    Cr6+3 0.924540 0.079710 0.019960 1.051267
Cr6   Cr    Cr6+3 0.920290 0.844830 0.019960 1.057721
H1    H     H_    0.599717 0.947538 0.806159 0.115649
H2    H     H_    0.042850 0.682738 0.806419 0.117543
H3    H     H_    0.312518 0.324356 0.800890 0.114646
H4    H     H_    0.477445 0.783744 0.731552 0.108220
H5    H     H_    0.216082 0.723248 0.734576 0.107868
H6    H     H_    0.302238 0.480009 0.733415 0.108158
H7    H     H_    0.508681 0.802675 0.814262 0.116712
H8    H     H_    0.189852 0.747073 0.815776 0.119886
H9    H     H_    0.276828 0.428962 0.814283 0.119746
H10   H     H_    0.731451 0.721809 0.799032 0.111473
H11   H     H_    0.252421 0.036736 0.788586 0.105209
H12   H     H_    0.968075 0.249560 0.793132 0.110285
H13   H     H_    0.734250 0.020489 0.141273 0.186939
H14   H     H_    0.958533 0.787062 0.153561 0.152739
H15   H     H_    0.225444 0.161791 0.155909 0.142605
H16   H     H_    0.629012 0.961307 0.382108 0.120195
H17   H     H_    0.036452 0.737120 0.390304 0.107934
H18   H     H_    0.334558 0.364034 0.384246 0.119816
H19   H     H_    0.705910 0.093092 0.218782 0.153654
H20   H     H_    0.882307 0.729133 0.234885 0.133494
H21   H     H_    0.339816 0.205844 0.230328 0.131365
H22   H     H_    0.680569 0.076897 0.307801 0.109583
H23   H     H_    0.910638 0.713958 0.322144 0.113335
H24   H     H_    0.378278 0.275887 0.314499 0.108967
H25   H     H_    0.617172 0.570824 0.210289 0.169195
H26   H     H_    0.426787 0.898678 0.191356 0.170214
H27   H     H_    0.875964 0.254761 0.233314 0.149317
H28   H     H_    0.609161 0.562794 0.297906 0.109131
H29   H     H_    0.452230 0.884254 0.277551 0.129813
H30   H     H_    0.898151 0.291777 0.319284 0.105979
H31   H     H_    0.568582 0.928404 0.723406 0.113021
H32   H     H_    0.069028 0.657584 0.725300 0.112825
H33   H     H_    0.337562 0.375229 0.719997 0.113523
H34   H     H_    0.607374 0.642599 0.374359 0.134446
H35   H     H_    0.382610 0.853526 0.359900 0.133056
H36   H     H_    0.014826 0.347671 0.388499 0.136936
H37   H     H_    0.830488 0.908914 0.704624 0.108600
H38   H     H_    0.063229 0.919365 0.693557 0.109663
H39   H     H_    0.043577 0.151374 0.692874 0.110227
H40   H     H_    0.776347 0.002087 0.707141 0.111721
H41   H     H_    0.978924 0.773236 0.700839 0.112542
H42   H     H_    0.185493 0.182006 0.695879 0.111361
H43   H     H_    0.807267 0.021562 0.789879 0.109743
H44   H     H_    0.953855 0.796833 0.782094 0.109463
H45   H     H_    0.161328 0.132551 0.776625 0.107831
H46   H     H_    0.860475 0.927741 0.787290 0.100363
H47   H     H_    0.037167 0.942164 0.774618 0.098941
H48   H     H_    0.019232 0.101451 0.773515 0.101186
H49   H     H_    0.555067 0.650714 0.727417 0.111152
H50   H     H_    0.336312 0.932507 0.722482 0.111621
H51   H     H_    0.099423 0.436105 0.729015 0.110663
H52   H     H_    0.700495 0.702574 0.716516 0.112566
H53   H     H_    0.271653 0.012441 0.706920 0.112842
H54   H     H_    0.992970 0.300688 0.712427 0.113981
H55   H     H_    0.586079 0.670020 0.809965 0.117181
H56   H     H_    0.311237 0.952181 0.803814 0.119296
H57   H     H_    0.074468 0.384996 0.809768 0.120872
O1    O     O_R   0.137150 0.468200 0.553200 -0.512038
O2    O     O_R   0.531800 0.668950 0.553200 -0.510703
O3    O     O_R   0.331050 0.862850 0.553200 -0.508133
O4    O     O_R   0.179100 0.982980 0.967000 -0.484353
O5    O     O_R   0.017020 0.196120 0.967000 -0.473475
O6    O     O_R   0.803880 0.820900 0.967000 -0.505194
O7    O     O_R   0.173970 0.688730 0.549930 -0.500542
O8    O     O_R   0.311270 0.485240 0.549930 -0.500681
O9    O     O_R   0.514760 0.826030 0.549930 -0.497948
O10   O     O_R   0.140110 0.470540 0.446010 -0.521339
O11   O     O_R   0.529460 0.669570 0.446010 -0.523151
O12   O     O_R   0.330430 0.859890 0.446010 -0.520391
O13   O     O_R   0.176710 0.690910 0.450560 -0.496920
O14   O     O_R   0.309090 0.485800 0.450560 -0.501985
O15   O     O_R   0.514200 0.823290 0.450560 -0.504906
O16   O     O_3   0.333333 0.666667 0.499990 -0.265924
O17   O     O_R   0.176750 0.985260 0.074180 -0.501167
O18   O     O_R   0.014740 0.191490 0.074180 -0.448774
O19   O     O_R   0.808510 0.823250 0.074180 -0.483563
O20   O     O_R   0.146100 0.172630 0.068980 -0.467325
O21   O     O_R   0.827370 0.973470 0.068980 -0.516356
O22   O     O_R   0.026530 0.853900 0.068980 -0.492690
O23   O     O_3   0.000000 1.000000 0.020040 -0.307817
O24   O     O_R   0.148270 0.170520 0.969620 -0.487551
O25   O     O_R   0.829480 0.977750 0.969620 -0.522580
O26   O     O_R   0.022250 0.851730 0.969620 -0.475957
C97   C     C_2   0.643287 0.655434 0.122654 0.589274
O27   O     O_2   0.691816 0.603250 0.128863 -0.533460
O28   O     O_R   0.568857 0.629019 0.084073 -0.668779
H58   H     H_    0.560170 0.563514 0.064549 0.345883
C98   C     C_2   0.331995 0.920921 0.113287 0.576668
O29   O     O_2   0.322766 0.876090 0.073801 -0.484833
O30   O     O_R   0.429810 0.017592 0.124510 -0.709769
H59   H     H_    0.487527 0.041152 0.097413 0.347773
C99   C     C_2   0.955552 0.270342 0.146149 0.599936
O31   O     O_2   0.854313 0.218742 0.144673 -0.574411
O32   O     O_R   0.014017 0.371633 0.122223 -0.642156
H60   H     H_    0.963187 0.393401 0.104931 0.348168

loop_
_geom_bond_atom_site_label_1
_geom_bond_atom_site_label_2
_ccdc_geom_bond_type
C15   C18   T    
C99   O32   S    
C43   C46   A    
C10   C85   T    
C36   O15   A    
C98   O29   D    
Cr1   O16   S    
C2    C18   S    
C33   C45   A    
C79   H37   S    
C48   C75   A    
C27   C78   A    
C92   H8    S    
C25   H16   S    
Cr2   O2    S    
C6    C9    S    
C6    H57   S    
C53   C59   A    
C50   H35   S    
Cr1   O10   S    
C20   O21   A    
C54   C60   A    
C27   H18   S    
C25   C28   A    
C21   O22   A    
C7    H52   S    
C59   H29   S    
C67   C88   S    
C33   C39   A    
Cr1   O13   S    
C31   C43   A    
C60   C63   A    
C82   C94   S    
C67   H31   S    
C37   C40   A    
C69   C93   S    
C80   C83   S    
C34   C77   S    
C64   C70   A    
C84   H45   S    
C79   H40   S    
Cr3   O12   S    
C10   C94   S    
C11   C86   T    
C45   H15   S    
Cr1   O7    S    
C83   H44   S    
C30   C57   A    
C39   H21   S    
C84   C96   S    
C80   C89   S    
Cr4   O24   S    
C8    H53   S    
C6    H12   S    
C36   C76   S    
C33   C72   A    
C43   H13   S    
C74   C98   S    
C28   C55   A    
C31   C70   A    
C66   C72   A    
C7    C88   S    
C9    H54   S    
Cr4   O17   S    
Cr6   O23   S    
C64   C73   A    
C68   H5    S    
C32   C38   A    
C39   C42   A    
Cr4   O23   S    
C19   O18   A    
Cr2   O8    S    
C12   C87   T    
C44   C47   A    
C93   H3    S    
C49   C52   A    
C58   C61   A    
C81   H39   S    
C99   O31   D    
C4    H10   S    
C63   C66   A    
C9    H51   S    
C69   H33   S    
C23   O6    A    
C27   C30   A    
C14   C17   T    
C60   H30   S    
C4    C7    S    
C79   C88   S    
C5    C95   S    
C69   H6    S    
C3    O9    A    
C73   C97   S    
C32   C71   A    
C81   H42   S    
C40   H22   S    
C26   C77   A    
C50   C53   A    
Cr1   O1    S    
C41   H23   S    
C83   H47   S    
C26   H17   S    
C38   C41   A    
Cr2   O14   S    
C92   H2    S    
C19   C48   S    
C20   O19   A    
C65   C71   A    
C92   C95   S    
C65   C74   A    
C31   C37   A    
O28   H58   S    
C35   O14   A    
C61   C64   A    
C3    C16   S    
C51   H36   S    
C14   C89   S    
C22   O24   A    
C80   H41   S    
C79   C82   S    
Cr3   O3    S    
C22   O5    A    
C5    H11   S    
C4    H55   S    
C56   C71   A    
C83   C95   S    
C67   C91   S    
C68   C89   S    
C32   C44   A    
C49   C76   A    
C61   H25   S    
C22   C87   S    
C38   H20   S    
Cr5   O25   S    
C52   C58   A    
C93   H9    S    
C7    H49   S    
C81   C90   S    
C49   H34   S    
C1    O3    A    
C93   C96   S    
C6    C96   S    
C35   O10   A    
C37   H19   S    
C24   O4    A    
C42   H24   S    
C97   O28   S    
C69   C90   S    
C50   C77   A    
C19   O20   A    
C81   C84   S    
C34   O13   A    
Cr3   O9    S    
C45   C48   A    
C11   C95   S    
C34   O12   A    
C59   C62   A    
C98   O30   S    
C62   C65   A    
C29   C41   A    
Cr6   O22   S    
C1    C17   S    
Cr5   O5    S    
C30   C42   A    
C47   C74   A    
C91   H1    S    
O32   H60   S    
C8    H50   S    
C9    C90   S    
C5    C8    S    
C82   H46   S    
C52   C55   A    
C67   H4    S    
C29   C56   A    
Cr6   O6    S    
Cr6   O26   S    
C35   C78   S    
C36   O11   A    
C51   C54   A    
O30   H59   S    
C25   C76   A    
C68   H32   S    
C51   C78   A    
C23   O25   A    
Cr5   O21   S    
C80   H38   S    
C15   C90   S    
C62   H26   S    
Cr2   O16   S    
C91   H7    S    
C4    C94   S    
Cr3   O15   S    
C1    O7    A    
C58   H28   S    
Cr6   O19   S    
C66   C75   A    
C13   C88   S    
C68   C92   S    
Cr4   O4    S    
C63   H27   S    
C57   C72   A    
C21   O17   A    
C53   C56   A    
C55   C70   A    
Cr5   O18   S    
C3    O2    A    
Cr2   O11   S    
C75   C99   S    
Cr3   O16   S    
C82   H43   S    
C44   H14   S    
C26   C29   A    
C2    O1    A    
C5    H56   S    
C23   C85   S    
C13   C16   T    
C28   C40   A    
C12   C96   S    
C8    C89   S    
C21   C47   S    
C97   O27   D    
Cr4   O20   S    
C24   C86   S    
C2    O8    A    
C54   C57   A    
C46   C73   A    
C20   C46   S    
Cr5   O23   S    
C91   C94   S    
C24   O26   A    
C84   H48   S    
