data_mof_unit_53744.cif
_audit_creation_date              2012-12-11T14:21:07-0500
_audit_creation_method            fapswitch 2.2
_symmetry_space_group_name_H-M    P1
_symmetry_Int_Tables_number       1
_space_group_crystal_system       monoclinic
_cell_length_a                    21.993967
_cell_length_b                    7.215158
_cell_length_c                    15.044189
_cell_angle_alpha                 90.0
_cell_angle_beta                  107.253521
_cell_angle_gamma                 90.0
_cell_volume                      2279.93438892

loop_
_atom_site_label
_atom_site_type_symbol
_atom_type_description
_atom_site_fract_x
_atom_site_fract_y
_atom_site_fract_z
_atom_type_partial_charge
O1    O     O_R   0.584770 0.505770 0.002090 -0.542980
O2    O     O_R   0.415230 0.005770 0.997910 -0.542980
O3    O     O_R   0.467060 0.173340 0.861950 -0.542637
O4    O     O_R   0.532940 0.673340 0.138050 -0.542638
C1    C     C_R   0.455193 0.344797 0.826559 0.674937
C2    C     C_R   0.544807 0.844797 0.173440 0.674938
O5    O     O_R   0.587510 0.175890 0.993210 -0.541574
O6    O     O_R   0.412490 0.675890 0.006790 -0.541575
O7    O     O_R   0.536540 0.008150 0.130100 -0.535701
O8    O     O_R   0.463460 0.508150 0.869900 -0.535701
C3    C     C_R   0.613067 0.343883 0.998409 0.729270
C4    C     C_R   0.386933 0.843883 0.001591 0.729270
O9    O     O_3   0.483140 0.340040 0.044760 -0.377251
O10   O     O_3   0.516860 0.840040 0.955240 -0.377251
V1    V     V_3+5 0.503130 0.064190 0.991700 1.395104
V2    V     V_3+5 0.496870 0.564190 0.008300 1.395105
C5    C     C_2   0.218882 0.779472 0.029634 -0.143198
C6    C     C_2   0.781118 0.279472 0.970366 -0.143198
C7    C     C_2   0.171927 0.878075 0.970469 -0.066637
C8    C     C_2   0.828073 0.378075 0.029531 -0.066636
H1    H     H_    0.209586 0.721651 0.091027 0.131738
H2    H     H_    0.790413 0.221651 0.908972 0.131738
C9    C     C_2   0.280133 0.725574 0.014280 0.094103
C10   C     C_2   0.719867 0.225574 0.985720 0.094103
C11   C     C_2   0.320048 0.860175 0.002481 -0.338774
C12   C     C_2   0.679952 0.360175 0.997519 -0.338774
H3    H     H_    0.302809 0.000865 0.997009 0.126326
H4    H     H_    0.697191 0.500865 0.002990 0.126326
C13   C     C_R   0.922369 0.890466 0.724563 -0.120795
C14   C     C_R   0.077631 0.390466 0.275437 -0.120794
C15   C     C_R   0.570936 0.859725 0.273926 -0.021202
C16   C     C_R   0.429064 0.359725 0.726074 -0.021203
C17   C     C_R   0.932440 0.943287 0.570534 0.411603
C18   C     C_R   0.067560 0.443287 0.429466 0.411603
C19   C     C_R   0.958402 0.942821 0.666924 -0.217662
C20   C     C_R   0.041598 0.442821 0.333076 -0.217662
C21   C     C_R   0.856888 0.853902 0.686149 0.203460
C22   C     C_R   0.143112 0.353902 0.313851 0.203460
C23   C     C_R   0.827075 0.880934 0.588878 -0.032926
C24   C     C_R   0.172925 0.380934 0.411122 -0.032926
C25   C     C_R   0.866968 0.899057 0.529439 -0.040299
C26   C     C_R   0.133032 0.399057 0.470561 -0.040299
C27   C     C_R   0.759298 0.892292 0.548375 0.080747
C28   C     C_R   0.240702 0.392292 0.451625 0.080747
C29   C     C_R   0.732332 0.865624 0.451156 0.008898
C30   C     C_R   0.267668 0.365624 0.548844 0.008898
C31   C     C_R   0.773685 0.849190 0.395963 -0.246288
C32   C     C_R   0.226315 0.349190 0.604037 -0.246288
C33   C     C_R   0.839144 0.872086 0.432428 0.315060
C34   C     C_R   0.160856 0.372086 0.567572 0.315060
C35   C     C_R   0.718753 0.951793 0.600215 -0.149283
C36   C     C_R   0.281247 0.451793 0.399785 -0.149283
C37   C     C_R   0.652842 0.974876 0.559602 0.050564
C38   C     C_R   0.347158 0.474876 0.440398 0.050564
C39   C     C_R   0.625833 0.938988 0.463653 0.110470
C40   C     C_R   0.374167 0.438988 0.536347 0.110469
C41   C     C_R   0.664931 0.872187 0.410378 0.074126
C42   C     C_R   0.335069 0.372187 0.589622 0.074126
C43   C     C_R   0.560851 0.976381 0.418379 -0.189855
C44   C     C_R   0.439149 0.476381 0.581621 -0.189854
C45   C     C_R   0.534261 0.940208 0.324438 -0.194016
C46   C     C_R   0.465739 0.440208 0.675562 -0.194016
C47   C     C_R   0.635260 0.822792 0.316360 -0.200834
C48   C     C_R   0.364740 0.322791 0.683639 -0.200834
H5    H     H_    0.661036 0.759111 0.273561 0.098141
H6    H     H_    0.338964 0.259110 0.726439 0.098141
H7    H     H_    0.484847 0.975553 0.290888 0.112572
H8    H     H_    0.515153 0.475554 0.709112 0.112572
H9    H     H_    0.007902 0.981085 0.697559 0.162935
H10   H     H_    0.992098 0.481085 0.302441 0.162935
H11   H     H_    0.756069 0.832892 0.321569 0.146950
H12   H     H_    0.243931 0.332892 0.678431 0.146950
H13   H     H_    0.738793 0.996653 0.671354 0.161298
H14   H     H_    0.261207 0.496653 0.328646 0.161298
H15   H     H_    0.529830 0.038457 0.453753 0.133199
H16   H     H_    0.470170 0.538457 0.546247 0.133198
O11   O     O_R   0.036450 0.233070 0.130130 -0.517886
O12   O     O_R   0.963550 0.733070 0.869870 -0.517886
O13   O     O_R   0.912470 0.560570 0.006790 -0.532510
O14   O     O_R   0.087530 0.060570 0.993210 -0.532510
C49   C     C_R   0.889047 0.391381 0.008374 0.724630
C50   C     C_R   0.110953 0.891381 0.991626 0.724629
O15   O     O_R   0.032920 0.562940 0.138050 -0.545053
O16   O     O_R   0.967080 0.062940 0.861950 -0.545053
O17   O     O_R   0.084790 0.730500 0.002090 -0.544180
O18   O     O_R   0.915210 0.230500 0.997910 -0.544180
C51   C     C_R   0.047213 0.394933 0.174122 0.755234
C52   C     C_R   0.952787 0.894933 0.825878 0.755233
O19   O     O_3   0.016820 0.396170 0.955260 -0.377245
O20   O     O_3   0.983180 0.896170 0.044740 -0.377244
V3    V     V_3+5 0.996880 0.672090 0.008300 1.528281
V4    V     V_3+5 0.003120 0.172090 0.991700 1.528281
Br1   Br    Br    0.814007 0.730289 0.764775 -0.626971
Br2   Br    Br    0.185993 0.230289 0.235225 -0.626971
C53   C     C_3   0.173945 0.948211 0.876009 -0.369418
C54   C     C_3   0.173708 0.787821 0.808622 -0.319317
C55   C     C_3   0.168943 0.858988 0.711261 -0.618005
H17   H     H_    0.122012 0.925787 0.679952 0.276666
H18   H     H_    0.207584 0.960035 0.714059 0.220440
H19   H     H_    0.173559 0.741508 0.666112 0.237620
H20   H     H_    0.218001 0.705051 0.833756 0.207447
H21   H     H_    0.132546 0.695026 0.804212 0.229264
H22   H     H_    0.131128 0.035089 0.844742 0.192978
H23   H     H_    0.215355 0.040156 0.882786 0.183495
C56   C     C_3   0.826055 0.448210 0.123991 -0.369418
C57   C     C_3   0.826292 0.287820 0.191378 -0.319318
C58   C     C_3   0.831057 0.358988 0.288739 -0.618006
H24   H     H_    0.877988 0.425787 0.320048 0.276666
H25   H     H_    0.792416 0.460034 0.285941 0.220440
H26   H     H_    0.826441 0.241507 0.333888 0.237620
H27   H     H_    0.781999 0.205051 0.166244 0.207447
H28   H     H_    0.867455 0.195025 0.195788 0.229264
H29   H     H_    0.868872 0.535089 0.155258 0.192978
H30   H     H_    0.784645 0.540156 0.117214 0.183495
C59   C     C_3   0.294639 0.520009 0.022673 -0.319536
C60   C     C_3   0.318351 0.461427 0.125176 -0.297725
C61   C     C_3   0.317447 0.251774 0.135964 -0.725096
H31   H     H_    0.271384 0.194109 0.092714 0.250415
H32   H     H_    0.358005 0.189688 0.116940 0.221721
H33   H     H_    0.321490 0.214450 0.208825 0.237601
H34   H     H_    0.367436 0.514121 0.156566 0.196534
H35   H     H_    0.287287 0.520862 0.164066 0.201779
H36   H     H_    0.249507 0.445510 0.988062 0.170038
H37   H     H_    0.327780 0.474883 0.984202 0.185991
C62   C     C_3   0.705360 0.020009 0.977327 -0.319537
C63   C     C_3   0.681649 0.961427 0.874824 -0.297725
C64   C     C_3   0.682553 0.751774 0.864036 -0.725096
H38   H     H_    0.728616 0.694109 0.907286 0.250415
H39   H     H_    0.641995 0.689688 0.883060 0.221721
H40   H     H_    0.678510 0.714450 0.791175 0.237601
H41   H     H_    0.632564 0.014121 0.843434 0.196534
H42   H     H_    0.712712 0.020862 0.835934 0.201779
H43   H     H_    0.750493 0.945510 0.011938 0.170038
H44   H     H_    0.672220 0.974883 0.015798 0.185990
Br3   Br    Br    0.884429 0.841082 0.341624 -0.558012
Br4   Br    Br    0.115571 0.341083 0.658376 -0.558012
C65   C     C_3   0.612525 0.044833 0.619139 -0.349613
C66   C     C_3   0.565623 0.895764 0.632533 -0.327268
C67   C     C_3   0.512440 0.980640 0.665144 -0.733874
H45   H     H_    0.532460 0.065084 0.728743 0.226394
H46   H     H_    0.481795 0.069332 0.609342 0.230971
H47   H     H_    0.482565 0.868958 0.681138 0.229687
H48   H     H_    0.543531 0.817497 0.567556 0.191745
H49   H     H_    0.591182 0.792436 0.684212 0.201091
H50   H     H_    0.642978 0.089454 0.688494 0.161889
H51   H     H_    0.586738 0.171961 0.586824 0.173757
C68   C     C_3   0.387475 0.544833 0.380861 -0.349613
C69   C     C_3   0.434377 0.395764 0.367467 -0.327268
C70   C     C_3   0.487560 0.480640 0.334856 -0.733874
H52   H     H_    0.467540 0.565083 0.271257 0.226394
H53   H     H_    0.518205 0.569332 0.390658 0.230971
H54   H     H_    0.517435 0.368958 0.318862 0.229687
H55   H     H_    0.456469 0.317497 0.432444 0.191745
H56   H     H_    0.408818 0.292436 0.315788 0.201090
H57   H     H_    0.357022 0.589454 0.311505 0.161889
H58   H     H_    0.413262 0.671961 0.413176 0.173757
Br5   Br    Br    0.989194 0.037407 0.505671 -0.393543
Br6   Br    Br    0.010805 0.537407 0.494329 -0.393543

loop_
_geom_bond_atom_site_label_1
_geom_bond_atom_site_label_2
_ccdc_geom_bond_type
C62   H44   S    
O15   C51   A    
C47   H5    S    
O11   V4    S    
O4    V2    S    
C63   C64   S    
C54   H21   S    
C61   H31   S    
C39   C43   A    
C15   C45   A    
C53   C54   S    
O1    C3    A    
O2    C4    A    
C2    O7    A    
C55   H17   S    
O17   V3    S    
O3    V1    S    
O8    V2    S    
C23   C25   A    
C57   H28   S    
O5    C3    A    
C29   C41   A    
C5    C9    S    
C60   H35   S    
C37   C65   S    
C56   H29   S    
C10   C12   D    
C36   H14   S    
C66   H48   S    
C70   H53   S    
C17   C19   A    
C67   H47   S    
C57   C58   S    
C62   H43   S    
C59   C60   S    
C60   C61   S    
C14   C22   A    
C44   C46   A    
C29   C31   A    
C13   C52   S    
C35   H13   S    
O12   C52   A    
C68   C69   S    
C20   H10   S    
C53   H22   S    
C18   C26   A    
C58   H24   S    
C7    C50   S    
C68   H57   S    
O13   V3    S    
C49   O18   A    
C1    C16   S    
C28   C36   A    
C32   C34   A    
C2    C15   S    
C33   Br3   S    
O6    V2    S    
C8    C49   S    
C30   C42   A    
C58   H25   S    
C69   H56   S    
C32   H12   S    
C19   H9    S    
C25   C33   A    
C55   H18   S    
C36   C38   A    
C41   C47   A    
C38   C40   A    
C57   H27   S    
C37   C39   A    
C42   C48   A    
C30   C32   A    
C43   C45   A    
C59   H36   S    
C60   H34   S    
C15   C47   A    
C56   H30   S    
C69   C70   S    
C16   C48   A    
O14   C50   A    
C61   H33   S    
O13   C49   A    
C23   C27   A    
O5    V1    S    
C28   C30   A    
C3    C12   S    
C44   H16   S    
C5    H1    S    
C40   C44   A    
C35   C37   A    
C48   H6    S    
O14   V4    S    
C64   H39   S    
C68   H58   S    
C45   H7    S    
C63   H42   S    
O6    C4    A    
C54   C55   S    
C22   Br2   S    
C21   Br1   S    
O1    V2    S    
O19   V4    S    
O2    V1    S    
C27   C29   A    
C31   H11   S    
C26   C34   A    
C18   Br6   S    
O4    C2    A    
C31   C33   A    
C39   C41   A    
C10   C62   S    
C58   H26   S    
C6    C10   S    
C70   H54   S    
C69   H55   S    
C64   H38   S    
C43   H15   S    
C55   H19   S    
C7    C53   S    
C53   H23   S    
C8    C56   S    
C65   C66   S    
C65   H50   S    
C59   H37   S    
C6    H2    S    
O16   C52   A    
O3    C1    A    
C67   H45   S    
C46   H8    S    
O12   V3    S    
C11   H3    S    
C50   O17   A    
O15   V3    S    
C56   C57   S    
C13   C19   A    
C12   H4    S    
C14   C20   A    
C4    C11   S    
C17   C25   A    
C65   H51   S    
C61   H32   S    
O7    V1    S    
C64   H40   S    
C16   C46   A    
C1    O8    A    
C21   C23   A    
O18   V4    S    
C70   H52   S    
C22   C24   A    
C67   H46   S    
C27   C35   A    
O20   V3    S    
C62   C63   S    
C63   H41   S    
C66   H49   S    
C24   C26   A    
C5    C7    D    
C18   C20   A    
C40   C42   A    
C6    C8    D    
C9    C11   D    
C17   Br5   S    
C66   C67   S    
C9    C59   S    
C24   C28   A    
O11   C51   A    
O9    V2    S    
C13   C21   A    
O10   V1    S    
C34   Br4   S    
O16   V4    S    
C14   C51   S    
C54   H20   S    
C38   C68   S    
