data_mof_unit_9034.cif
_audit_creation_date              2012-12-11T15:31:54-0500
_audit_creation_method            fapswitch 2.2
_symmetry_space_group_name_H-M    P1
_symmetry_Int_Tables_number       1
_space_group_crystal_system       triclinic
_cell_length_a                    13.581188
_cell_length_b                    13.577476
_cell_length_c                    27.667296
_cell_angle_alpha                 90.221474
_cell_angle_beta                  90.233018
_cell_angle_gamma                 119.929519
_cell_volume                      4421.28508386

loop_
_atom_site_label
_atom_site_type_symbol
_atom_type_description
_atom_site_fract_x
_atom_site_fract_y
_atom_site_fract_z
_atom_type_partial_charge
C1    C     C_R   0.619387 0.898595 0.431213 0.546914
C2    C     C_R   0.716151 0.438410 0.222494 -0.099455
C3    C     C_R   0.706064 0.421224 0.272437 -0.098532
C4    C     C_R   0.667870 0.312389 0.290938 0.039639
C5    C     C_R   0.687866 0.346913 0.190862 0.038188
C6    C     C_1   0.694465 0.365816 0.139571 -0.056757
C7    C     C_1   0.651112 0.291750 0.342000 -0.054151
C8    C     C_1   0.701741 0.390830 0.097484 -0.011909
C9    C     C_1   0.233054 0.862818 0.382563 -0.004609
C10   C     C_R   0.184143 0.930568 0.263592 -0.160687
C11   C     C_R   0.169351 0.923438 0.213335 -0.126009
C12   C     C_R   0.599717 0.218653 0.431342 0.549921
C13   C     C_R   0.156031 0.738761 0.213498 -0.095087
C14   C     C_R   0.172731 0.746143 0.263767 0.276121
C15   C     C_R   0.184465 0.841611 0.289056 0.038645
C16   C     C_R   0.155297 0.827489 0.188184 -0.012213
C17   C     C_1   0.129552 0.814198 0.137191 -0.055763
C18   C     C_1   0.206222 0.852398 0.340435 -0.023469
C19   C     C_1   0.099375 0.795158 0.095469 -0.010847
C20   C     C_1   0.634342 0.866675 0.383488 -0.016484
C21   C     C_R   0.706202 0.777905 0.272706 -0.108569
C22   C     C_R   0.713583 0.765643 0.222843 -0.105980
C23   C     C_R   0.279611 0.878951 0.430493 0.546057
C24   C     C_R   0.599687 0.854618 0.208118 -0.114118
C25   C     C_R   0.592287 0.866863 0.258001 -0.118874
C26   C     C_R   0.646327 0.829432 0.290392 0.032342
C27   C     C_R   0.661106 0.804695 0.190408 0.037925
C28   C     C_1   0.674556 0.796186 0.139188 -0.058064
C29   C     C_1   0.641714 0.846993 0.341525 -0.070089
C30   C     C_1   0.692471 0.786771 0.097223 -0.013315
C31   C     C_R   0.621095 0.249718 0.620829 0.048310
C32   C     C_R   0.729671 0.294588 0.642023 0.262531
C33   C     C_R   0.739937 0.305965 0.692605 -0.109093
C34   C     C_R   0.620363 0.900377 0.569007 0.563498
C35   C     C_R   0.642319 0.260664 0.721610 -0.006571
C36   C     C_R   0.535075 0.206697 0.699676 -0.147161
C37   C     C_R   0.525163 0.207473 0.650322 -0.173174
C38   C     C_R   0.568004 0.298692 0.796451 -0.119245
C39   C     C_R   0.581549 0.334620 0.843742 -0.131682
C40   C     C_R   0.759362 0.333426 0.848540 -0.119039
C41   C     C_R   0.743554 0.292900 0.801158 -0.113506
C42   C     C_R   0.650365 0.280736 0.774028 0.044710
C43   C     C_R   0.680524 0.359119 0.869140 0.025292
C44   C     C_R   0.215683 0.859296 0.613295 0.061227
C45   C     C_R   0.599355 0.218973 0.569766 0.570847
C46   C     C_R   0.227378 0.953369 0.639315 -0.172186
C47   C     C_R   0.205076 0.945032 0.688350 -0.097329
C48   C     C_R   0.160475 0.839990 0.711428 0.045052
C49   C     C_R   0.134109 0.742461 0.684145 -0.117521
C50   C     C_R   0.162653 0.751498 0.635261 0.092922
C51   C     C_R   0.175193 0.763382 0.790693 -0.171628
C52   C     C_R   0.149713 0.743979 0.839558 -0.145318
C53   C     C_R   0.070854 0.869435 0.836905 -0.114127
C54   C     C_R   0.096145 0.889870 0.787785 0.271132
C55   C     C_R   0.144165 0.831919 0.764071 0.045255
C56   C     C_R   0.277397 0.880254 0.567590 0.565454
C57   C     C_R   0.094314 0.794242 0.862588 -0.019493
C58   C     C_R   0.636580 0.860851 0.616093 0.063714
C59   C     C_R   0.538791 0.783731 0.641637 -0.157002
C60   C     C_R   0.545932 0.762634 0.690048 -0.135179
C61   C     C_R   0.650743 0.817973 0.713706 0.009356
C62   C     C_R   0.750024 0.887448 0.687919 -0.112458
C63   C     C_R   0.743834 0.908736 0.638888 0.088457
C64   C     C_R   0.699479 0.900187 0.796109 -0.068963
C65   C     C_R   0.710933 0.889024 0.845583 0.086248
C66   C     C_R   0.626796 0.684405 0.833925 -0.146956
C67   C     C_1   0.631410 0.265258 0.383850 -0.008857
C68   C     C_R   0.615081 0.696579 0.784896 -0.130045
C69   C     C_R   0.655644 0.804781 0.765677 0.007525
C70   C     C_R   0.679238 0.780426 0.864391 0.031814
C71   C     C_R   0.049485 0.761136 0.048184 0.546089
C72   C     C_R   0.714299 0.435658 0.049702 0.544792
C73   C     C_R   0.723512 0.770688 0.049533 0.544826
C74   C     C_R   0.043202 0.755903 0.910234 0.546594
C75   C     C_R   0.706939 0.427036 0.913126 0.541929
C76   C     C_R   0.716860 0.765737 0.912092 0.536779
C77   C     C_R   0.640837 0.221110 0.259339 -0.102766
C78   C     C_R   0.650776 0.238280 0.209378 -0.104974
Cr1   Cr    Cr6+3 0.417720 0.831920 0.499820 1.033229
Cr2   Cr    Cr6+3 0.668190 0.085770 0.500360 1.048901
Cr3   Cr    Cr6+3 0.414060 0.082260 0.499840 1.019106
Cr4   Cr    Cr6+3 0.908000 0.821090 0.979770 1.015565
Cr5   Cr    Cr6+3 0.912420 0.571130 0.979880 1.024856
Cr6   Cr    Cr6+3 0.657970 0.566940 0.980940 1.020242
H1    H     H_    0.610646 0.136404 0.273319 0.107010
H2    H     H_    0.761489 0.727045 0.209538 0.107611
H3    H     H_    0.558859 0.885205 0.183476 0.106262
H4    H     H_    0.545492 0.906649 0.271315 0.096051
H5    H     H_    0.496418 0.293386 0.776862 0.095702
H6    H     H_    0.518624 0.352652 0.858767 0.127018
H7    H     H_    0.823779 0.350313 0.708794 0.104338
H8    H     H_    0.806567 0.276297 0.785235 0.095996
H9    H     H_    0.835592 0.350136 0.867993 0.124657
H10   H     H_    0.457716 0.165523 0.720563 0.108559
H11   H     H_    0.628428 0.166949 0.185300 0.108940
H12   H     H_    0.440701 0.168279 0.635173 0.134592
H13   H     H_    0.261813 0.035726 0.622624 0.120742
H14   H     H_    0.215923 0.721647 0.773221 0.110474
H15   H     H_    0.168703 0.685952 0.858722 0.136224
H16   H     H_    0.228043 0.022009 0.708411 0.127345
H17   H     H_    0.024857 0.906137 0.853919 0.138165
H18   H     H_    0.095001 0.659732 0.701107 0.101469
H19   H     H_    0.455087 0.744611 0.625160 0.141674
H20   H     H_    0.744706 0.522781 0.208485 0.106642
H21   H     H_    0.726334 0.983519 0.781231 0.124214
H22   H     H_    0.468939 0.707434 0.709639 0.111450
H23   H     H_    0.579129 0.622190 0.761596 0.118235
H24   H     H_    0.601646 0.600254 0.847321 0.135698
H25   H     H_    0.831854 0.925971 0.705954 0.132016
H26   H     H_    0.726588 0.492209 0.296465 0.111888
H27   H     H_    0.195374 0.005447 0.282596 0.122594
H28   H     H_    0.167382 0.991922 0.194217 0.128214
H29   H     H_    0.142428 0.663074 0.194398 0.124503
H30   H     H_    0.748128 0.748500 0.297335 0.112117
O1    O     O_R   0.302900 0.805360 0.446400 -0.500114
O2    O     O_R   0.657980 0.180990 0.549630 -0.471321
O3    O     O_R   0.503420 0.197810 0.553190 -0.533096
O4    O     O_R   0.320350 0.978840 0.548910 -0.520104
O5    O     O_3   0.499990 0.999990 0.500010 -0.261574
O6    O     O_R   0.819150 0.845650 0.033320 -0.506027
O7    O     O_R   0.006060 0.815720 0.028680 -0.493177
O8    O     O_R   0.028100 0.664460 0.032550 -0.506878
O9    O     O_R   0.811290 0.477490 0.029660 -0.494351
O10   O     O_R   0.638120 0.455970 0.034270 -0.505519
O11   O     O_R   0.667540 0.672320 0.030160 -0.493348
O12   O     O_R   0.522090 0.841370 0.450730 -0.498727
O13   O     O_R   0.814460 0.840990 0.926980 -0.526572
O14   O     O_R   0.001710 0.811400 0.930110 -0.508469
O15   O     O_R   0.023410 0.659800 0.926210 -0.512521
O16   O     O_R   0.806940 0.473170 0.931090 -0.501458
O17   O     O_R   0.633420 0.451310 0.927930 -0.527505
O18   O     O_R   0.663190 0.668000 0.931580 -0.504342
O19   O     O_3   0.826130 0.653050 0.980200 -0.244152
O20   O     O_R   0.693280 0.995650 0.447220 -0.501534
O21   O     O_R   0.657260 0.178740 0.451050 -0.490626
O22   O     O_R   0.502640 0.195380 0.446850 -0.505703
O23   O     O_R   0.319630 0.976590 0.450330 -0.496296
O24   O     O_R   0.303680 0.807790 0.552740 -0.476153
O25   O     O_R   0.522820 0.843620 0.549310 -0.518908
O26   O     O_R   0.694060 0.998080 0.553560 -0.485851
O27   O     O_3   0.824791 0.331830 0.613132 -0.568026
C79   C     C_3   0.882606 0.271425 0.623623 0.025726
H31   H     H_    0.884936 0.227787 0.589952 0.179153
H32   H     H_    0.840674 0.203636 0.651446 0.115438
C80   C     C_3   0.004783 0.354907 0.639312 -0.281215
H33   H     H_    0.050972 0.410415 0.608354 0.176263
H34   H     H_    0.004739 0.409151 0.669471 0.156541
C81   C     C_3   0.067236 0.293413 0.655752 -0.495644
H35   H     H_    0.023132 0.237462 0.686922 0.140454
H36   H     H_    0.155046 0.356768 0.667160 0.144970
H37   H     H_    0.071992 0.241662 0.625634 0.154899
O28   O     O_3   0.057548 0.950726 0.761218 -0.578018
C82   C     C_3   0.102142 0.063054 0.779404 -0.013354
H38   H     H_    0.151580 0.123107 0.750145 0.134358
H39   H     H_    0.161554 0.084667 0.810804 0.111203
C83   C     C_3   0.004387 0.082921 0.792880 -0.253476
H40   H     H_    0.951127 0.070696 0.760408 0.156980
H41   H     H_    0.950959 0.020190 0.820487 0.179059
C84   C     C_3   0.047536 0.202613 0.812746 -0.488422
H42   H     H_    0.099000 0.216407 0.846018 0.147730
H43   H     H_    0.974109 0.213810 0.821830 0.155273
H44   H     H_    0.100119 0.266858 0.785327 0.139715
N1    N     N_3   0.140043 0.651828 0.608527 -0.604136
H45   H     H_    0.182326 0.615016 0.625780 0.214470
H46   H     H_    0.052740 0.594530 0.610068 0.246154
N2    N     N_3   0.753786 0.988476 0.875611 -0.647934
H47   H     H_    0.834437 0.009972 0.888495 0.248793
H48   H     H_    0.699325 0.970254 0.904995 0.237150
N3    N     N_3   0.845835 0.978869 0.612660 -0.614015
H49   H     H_    0.890192 0.056711 0.630780 0.211000
H50   H     H_    0.896067 0.940475 0.613912 0.238961
O29   O     O_3   0.168987 0.656012 0.288416 -0.563260
C85   C     C_3   0.277078 0.665059 0.286328 0.006802
H51   H     H_    0.339672 0.739900 0.307943 0.140346
H52   H     H_    0.307527 0.673729 0.248340 0.123122
C86   C     C_3   0.268645 0.557343 0.307495 -0.245761
H53   H     H_    0.235921 0.545580 0.345037 0.187581
H54   H     H_    0.207899 0.482750 0.285445 0.174531
C87   C     C_3   0.383732 0.563107 0.308161 -0.477137
H55   H     H_    0.420635 0.579337 0.271315 0.160228
H56   H     H_    0.373216 0.481156 0.321158 0.151215
H57   H     H_    0.442810 0.631604 0.333078 0.163467

loop_
_geom_bond_atom_site_label_1
_geom_bond_atom_site_label_2
_ccdc_geom_bond_type
C48   C55   S    
C66   C68   A    
C21   C26   A    
C40   C41   A    
Cr1   O1    S    
C15   C18   S    
C41   C42   A    
C71   O8    A    
Cr1   O25   S    
C35   C36   A    
C83   C84   S    
C24   C27   A    
Cr4   O6    S    
C40   H9    S    
C52   H15   S    
C80   H33   S    
C64   H21   S    
C66   C70   A    
C85   H51   S    
Cr3   O23   S    
C38   H5    S    
Cr2   O21   S    
C36   C37   A    
N1    H46   S    
C81   H36   S    
Cr5   O15   S    
C10   C15   A    
C33   H7    S    
C84   H42   S    
C38   C39   A    
C73   O11   A    
C63   N3    S    
C3    H26   S    
C45   O3    A    
C65   C70   A    
Cr3   O3    S    
C34   O25   A    
C58   C63   A    
Cr2   O20   S    
N3    H49   S    
C35   C42   S    
C44   C50   A    
C17   C19   T    
C46   C47   A    
C19   C71   S    
C83   H41   S    
C40   C43   A    
C74   O14   A    
N1    H45   S    
C53   H17   S    
C68   C69   A    
C12   O21   A    
Cr1   O5    S    
C12   O22   A    
C84   H43   S    
C68   H23   S    
C82   H39   S    
C39   H6    S    
C75   O16   A    
C87   H57   S    
C51   H14   S    
C86   H54   S    
C11   H28   S    
Cr2   O5    S    
C77   H1    S    
C59   C60   A    
C82   H38   S    
C73   O6    A    
C21   C22   A    
C72   O10   A    
N2    H48   S    
N3    H50   S    
C79   C80   S    
C4    C7    S    
C80   H34   S    
C44   C46   A    
C20   C29   T    
C85   H52   S    
C43   C75   S    
C12   C67   S    
Cr6   O19   S    
C8    C72   S    
C23   O23   A    
C51   C52   A    
Cr2   O2    S    
C81   H37   S    
C24   C25   A    
Cr5   O16   S    
C14   O29   S    
C52   C57   A    
C49   H18   S    
C30   C73   S    
C53   C57   A    
C16   C17   S    
C6    C8    T    
C58   C59   A    
C77   C78   A    
C23   O1    A    
Cr3   O4    S    
Cr6   O18   S    
C25   H4    S    
C47   H16   S    
C31   C37   A    
C37   H12   S    
C60   C61   A    
C57   C74   S    
C62   C63   A    
C36   H10   S    
C56   O24   A    
C11   C16   A    
C44   C56   S    
C47   C48   A    
C2    H20   S    
C78   H11   S    
Cr1   O24   S    
C84   H44   S    
C10   H27   S    
C64   C69   A    
C81   H35   S    
C82   C83   S    
Cr4   O14   S    
C32   O27   S    
C86   H53   S    
C46   H13   S    
C22   C27   A    
C72   O9    A    
C1    O12   A    
N2    H47   S    
C79   H32   S    
C13   C16   A    
C2    C5    A    
C1    O20   A    
C80   C81   S    
C60   H22   S    
O29   C85   S    
Cr3   O22   S    
C85   C86   S    
C61   C69   S    
Cr6   O11   S    
C54   C55   A    
C83   H40   S    
C1    C20   S    
Cr4   O7    S    
C50   N1    S    
C14   C15   A    
C56   O4    A    
Cr1   O12   S    
C31   C32   A    
C9    C23   S    
C66   H24   S    
C21   H30   S    
C54   O28   S    
C53   C54   A    
Cr6   O10   S    
Cr3   O5    S    
Cr6   O17   S    
C59   H19   S    
C64   C65   A    
C86   C87   S    
Cr4   O19   S    
C28   C30   T    
C2    C3    A    
C25   C26   A    
C4    C77   A    
Cr2   O26   S    
O27   C79   S    
C32   C33   A    
C70   C76   S    
C76   O18   A    
C45   O2    A    
C5    C6    S    
C62   H25   S    
C48   C49   A    
C65   N2    S    
C34   O26   A    
C33   C35   A    
C51   C55   A    
C22   H2    S    
Cr5   O8    S    
C61   C62   A    
C24   H3    S    
Cr4   O13   S    
Cr5   O19   S    
C10   C11   A    
C7    C67   T    
C87   H55   S    
C38   C42   A    
C71   O7    A    
C9    C18   T    
C41   H8    S    
O28   C82   S    
C75   O17   A    
C26   C29   S    
C49   C50   A    
C31   C45   S    
C74   O15   A    
C27   C28   S    
C34   C58   S    
C76   O13   A    
C79   H31   S    
Cr5   O9    S    
C5    C78   A    
C13   C14   A    
C39   C43   A    
C13   H29   S    
C3    C4    A    
C87   H56   S    
