data_mof_unit_62670.cif
_audit_creation_date              2012-12-10T19:53:36-0500
_audit_creation_method            fapswitch 2.2
_symmetry_space_group_name_H-M    P1
_symmetry_Int_Tables_number       1
_space_group_crystal_system       monoclinic
_cell_length_a                    18.399783
_cell_length_b                    18.400461
_cell_length_c                    42.909629
_cell_angle_alpha                 90.0
_cell_angle_beta                  90.0
_cell_angle_gamma                 90.012206
_cell_volume                      14527.6763074

loop_
_atom_site_label
_atom_site_type_symbol
_atom_type_description
_atom_site_fract_x
_atom_site_fract_y
_atom_site_fract_z
_atom_type_partial_charge
C1    C     C_R   1.000000 0.500000 0.915886 0.796645
C2    C     C_R   0.500000 0.000000 0.118643 -0.167937
C3    C     C_R   0.757640 0.811658 0.019692 -0.207329
C4    C     C_R   0.811659 0.757637 0.019692 -0.207368
C5    C     C_R   0.755185 0.190784 0.021204 -0.209490
C6    C     C_R   0.188341 0.242363 0.019692 -0.207368
C7    C     C_R   0.244815 0.809216 0.021204 -0.209490
C8    C     C_R   0.689817 0.256173 0.520611 -0.203009
C9    C     C_R   0.742870 0.688866 0.520028 -0.204040
C10   C     C_R   0.310183 0.743827 0.520611 -0.203009
C11   C     C_R   0.257130 0.311133 0.520028 -0.204040
C12   C     C_R   0.311124 0.257084 0.520046 -0.206239
C13   C     C_R   0.500000 0.000000 0.618262 -0.164447
C14   C     C_R   0.256121 0.689832 0.520633 -0.213341
C15   C     C_R   0.688876 0.742916 0.520046 -0.206239
C16   C     C_R   0.743879 0.310168 0.520633 -0.213341
C17   C     C_3   0.350179 0.709039 0.955795 -0.454288
C18   C     C_3   0.294497 0.353684 0.957921 -0.455916
C19   C     C_3   0.649821 0.290961 0.955795 -0.454288
C20   C     C_3   0.705503 0.646316 0.957921 -0.455916
C21   C     C_3   0.646301 0.705525 0.957921 -0.455601
C22   C     C_3   0.709044 0.350173 0.955793 -0.452954
C23   C     C_3   0.353699 0.294474 0.957921 -0.455601
C24   C     C_R   1.000000 0.500000 0.618644 -0.167883
C25   C     C_3   0.290956 0.649827 0.955793 -0.452954
C26   C     C_3   0.851396 0.207845 0.456490 -0.452264
C27   C     C_3   0.793977 0.853192 0.457605 -0.457697
C28   C     C_3   0.148604 0.792155 0.456490 -0.452264
C29   C     C_3   0.206023 0.146808 0.457605 -0.457697
C30   C     C_3   0.146834 0.206030 0.457593 -0.457698
C31   C     C_3   0.207837 0.851358 0.456479 -0.452593
C32   C     C_3   0.853166 0.793970 0.457593 -0.457698
C33   C     C_3   0.792163 0.148642 0.456479 -0.452593
C34   C     C_R   0.042387 0.551606 0.135394 -0.050852
C35   C     C_R   0.500000 0.000000 0.781536 0.423088
C36   C     C_R   0.448390 0.957616 0.135395 -0.050853
C37   C     C_R   0.957613 0.448394 0.135394 -0.050852
C38   C     C_R   0.551610 0.042384 0.135395 -0.050852
C39   C     C_R   0.445428 0.038495 0.634822 -0.057839
C40   C     C_R   0.948397 0.457610 0.635395 -0.048616
C41   C     C_R   0.554572 0.961505 0.634822 -0.057839
C42   C     C_R   0.051603 0.542390 0.635395 -0.048616
C43   C     C_R   0.039569 0.552390 0.168028 -0.178078
C44   C     C_R   0.447607 0.960435 0.168028 -0.178090
C45   C     C_R   0.960431 0.447610 0.168028 -0.178077
C46   C     C_R   1.000000 0.500000 0.781590 0.399317
C47   C     C_R   0.552393 0.039565 0.168028 -0.178091
C48   C     C_R   0.446911 0.038665 0.667472 -0.173353
C49   C     C_R   0.947610 0.460430 0.668028 -0.176980
C50   C     C_R   0.553089 0.961335 0.667472 -0.173353
C51   C     C_R   0.052389 0.539570 0.668028 -0.176980
C52   C     C_2   0.093251 0.602952 0.119882 0.941393
C53   C     C_2   0.397041 0.906757 0.119882 0.941388
C54   C     C_2   0.906749 0.397048 0.119882 0.941393
C55   C     C_2   0.602959 0.093243 0.119882 0.941387
C56   C     C_2   0.384528 0.076945 0.618937 0.927666
C57   C     C_R   1.000000 0.500000 0.281592 0.399022
C58   C     C_2   0.897063 0.406741 0.619881 0.940908
C59   C     C_2   0.615472 0.923055 0.618937 0.927667
C60   C     C_2   0.102937 0.593258 0.619881 0.940908
C61   C     C_2   0.513802 0.138056 0.816432 0.924285
C62   C     C_2   0.897177 0.406782 0.817208 0.925346
C63   C     C_2   0.486199 0.861944 0.816432 0.924285
C64   C     C_2   0.102823 0.593218 0.817208 0.925346
C65   C     C_2   0.093393 0.602666 0.317210 0.926484
C66   C     C_2   0.397325 0.906616 0.317210 0.926479
C67   C     C_2   0.906607 0.397333 0.317210 0.926484
C68   C     C_R   0.500000 0.000000 0.281592 0.399027
C69   C     C_2   0.602675 0.093384 0.317210 0.926479
C70   C     C_R   0.000000 0.500000 0.218471 0.310055
C71   C     C_R   0.500000 0.000000 0.218471 0.310058
C72   C     C_R   0.500000 0.000000 0.718402 0.329504
C73   C     C_R   0.500000 0.000000 0.915781 0.804706
C74   C     C_R   0.000000 0.500000 0.718470 0.310404
C75   C     C_R   0.504834 0.066619 0.832320 -0.032312
C76   C     C_R   0.948407 0.457633 0.832777 -0.021064
C77   C     C_R   0.495167 0.933381 0.832320 -0.032311
C78   C     C_R   0.051593 0.542367 0.832777 -0.021064
C79   C     C_R   0.042453 0.551522 0.332779 -0.022893
C80   C     C_R   0.448473 0.957551 0.332778 -0.022910
C81   C     C_R   0.957547 0.448478 0.332779 -0.022893
C82   C     C_R   0.551527 0.042449 0.332778 -0.022910
C83   C     C_R   0.503639 0.065588 0.864970 -0.216409
C84   C     C_R   0.500000 1.000000 0.415887 0.795872
C85   C     C_R   0.947626 0.460403 0.865414 -0.219585
C86   C     C_R   0.496361 0.934412 0.864970 -0.216408
C87   C     C_R   0.052374 0.539596 0.865414 -0.219585
C88   C     C_R   0.039681 0.552309 0.365415 -0.219835
C89   C     C_R   0.447687 0.960323 0.365415 -0.219885
C90   C     C_R   0.960319 0.447691 0.365415 -0.219835
C91   C     C_R   0.552313 0.039677 0.365415 -0.219885
C92   C     C_R   0.500000 0.000000 0.881414 -0.049136
C93   C     C_R   1.000000 0.500000 0.881716 -0.033650
C94   C     C_R   1.000000 0.500000 0.381717 -0.033714
C95   C     C_R   1.000000 0.500000 0.415887 0.796419
C96   C     C_R   0.500000 0.000000 0.381716 -0.033473
C97   C     C_R   0.500000 0.000000 0.815763 -0.087000
C98   C     C_R   1.000000 0.500000 0.816047 -0.083050
C99   C     C_R   1.000000 0.500000 0.316048 -0.083009
C100  C     C_R   0.500000 0.000000 0.316048 -0.083009
C101  C     C_R   1.000000 0.500000 0.084174 0.909756
C102  C     C_R   0.500000 0.000000 0.084174 0.909568
C103  C     C_R   0.500000 0.000000 0.584036 0.942802
C104  C     C_R   1.000000 0.500000 0.584174 0.910554
C105  C     C_R   0.860082 0.639977 0.000011 0.813191
C106  C     C_R   0.000000 0.500000 0.184314 0.034975
C107  C     C_R   0.360125 0.859985 0.000078 0.816398
C108  C     C_R   0.139918 0.360023 0.000011 0.813191
C109  C     C_R   0.639875 0.140015 0.000078 0.816398
C110  C     C_R   0.140014 0.639876 0.000076 0.815515
C111  C     C_R   0.639978 0.860084 0.000011 0.813640
C112  C     C_R   0.859986 0.360124 0.000076 0.815515
C113  C     C_R   0.360022 0.139916 0.000011 0.813640
C114  C     C_R   0.360032 0.139922 0.500046 0.815492
C115  C     C_R   0.860089 0.360026 0.500052 0.815844
C116  C     C_R   0.639968 0.860078 0.500046 0.815492
C117  C     C_R   0.500000 0.000000 0.184314 0.034974
C118  C     C_R   0.139911 0.639974 0.500052 0.815844
C119  C     C_R   0.639954 0.139940 0.500036 0.814933
C120  C     C_R   0.139953 0.360055 0.500030 0.813505
C121  C     C_R   0.360046 0.860060 0.500036 0.814933
C122  C     C_R   0.860047 0.639945 0.500030 0.813505
C123  C     C_R   0.255562 0.692597 0.981050 0.125631
C124  C     C_R   0.308163 0.256319 0.981499 0.126007
C125  C     C_R   0.744438 0.307402 0.981050 0.125631
C126  C     C_R   0.691837 0.743680 0.981499 0.126006
C127  C     C_R   0.743671 0.691841 0.981499 0.126440
C128  C     C_R   0.500000 0.000000 0.683964 0.028260
C129  C     C_R   0.692594 0.255564 0.981051 0.126342
C130  C     C_R   0.256328 0.308159 0.981499 0.126440
C131  C     C_R   0.307406 0.744436 0.981051 0.126343
C132  C     C_R   0.755750 0.192424 0.481145 0.124051
C133  C     C_R   0.808142 0.756314 0.481497 0.127292
C134  C     C_R   0.244250 0.807576 0.481145 0.124051
C135  C     C_R   0.191858 0.243686 0.481497 0.127292
C136  C     C_R   0.243677 0.191832 0.481509 0.127392
C137  C     C_R   0.192392 0.755749 0.481156 0.125787
C138  C     C_R   0.756323 0.808168 0.481509 0.127392
C139  C     C_R   0.000000 0.500000 0.684314 0.035781
C140  C     C_R   0.807608 0.244251 0.481156 0.125787
C141  C     C_R   0.195586 0.695456 0.000609 -0.087325
C142  C     C_R   0.303949 0.194997 0.000232 -0.081569
C143  C     C_R   0.804414 0.304544 0.000609 -0.087324
C144  C     C_R   0.696051 0.805003 0.000232 -0.081569
C145  C     C_R   0.804998 0.696050 0.000232 -0.081606
C146  C     C_R   0.695454 0.195589 0.000610 -0.087530
C147  C     C_R   0.195001 0.303950 0.000232 -0.081606
C148  C     C_R   0.304546 0.804411 0.000610 -0.087530
C149  C     C_R   0.695304 0.195753 0.500424 -0.081704
C150  C     C_R   0.000000 0.500000 0.118643 -0.168008
C151  C     C_R   0.804116 0.695175 0.500347 -0.082984
C152  C     C_R   0.304696 0.804247 0.500424 -0.081703
C153  C     C_R   0.195884 0.304825 0.500347 -0.082984
C154  C     C_R   0.304799 0.195837 0.500370 -0.088484
C155  C     C_R   0.195703 0.695328 0.500449 -0.085909
C156  C     C_R   0.695201 0.804163 0.500370 -0.088484
C157  C     C_R   0.804297 0.304671 0.500449 -0.085908
C158  C     C_R   0.190780 0.755183 0.021203 -0.209364
C159  C     C_R   0.242360 0.188342 0.019692 -0.207329
C160  C     C_R   0.809220 0.244817 0.021203 -0.209364
H1    H     H_    0.145552 0.760463 0.037195 0.190360
H2    H     H_    0.736440 0.642521 0.535339 0.186654
H3    H     H_    0.355913 0.738026 0.536303 0.186146
H4    H     H_    0.263560 0.357479 0.535339 0.186654
H5    H     H_    0.357448 0.263481 0.535373 0.188082
H6    H     H_    0.261876 0.644140 0.536349 0.188565
H7    H     H_    0.642552 0.736519 0.535373 0.188081
H8    H     H_    0.738124 0.355860 0.536349 0.188565
H9    H     H_    0.351239 0.742110 0.934121 0.217529
H10   H     H_    0.263888 0.357250 0.935640 0.218809
H11   H     H_    0.648761 0.257890 0.934121 0.217529
H12   H     H_    0.235715 0.141781 0.034865 0.185971
H13   H     H_    0.736112 0.642750 0.935640 0.218809
H14   H     H_    0.642738 0.736136 0.935640 0.219780
H15   H     H_    0.742115 0.351222 0.934118 0.219306
H16   H     H_    0.357262 0.263864 0.935640 0.219780
H17   H     H_    0.257885 0.648778 0.934118 0.219306
H18   H     H_    0.853367 0.240052 0.434589 0.220939
H19   H     H_    0.762885 0.856292 0.435435 0.217628
H20   H     H_    0.146632 0.759948 0.434589 0.220939
H21   H     H_    0.237115 0.143707 0.435435 0.217628
H22   H     H_    0.143774 0.237095 0.435415 0.217556
H23   H     H_    0.854448 0.239537 0.037195 0.190360
H24   H     H_    0.240022 0.853294 0.434571 0.220924
H25   H     H_    0.856225 0.762905 0.435415 0.217556
H26   H     H_    0.759978 0.146706 0.434571 0.220924
H27   H     H_    0.403954 0.689479 0.964103 0.207620
H28   H     H_    0.313087 0.406422 0.967732 0.206943
H29   H     H_    0.596046 0.310521 0.964103 0.207620
H30   H     H_    0.686913 0.593577 0.967732 0.206943
H31   H     H_    0.593558 0.686946 0.967732 0.206870
H32   H     H_    0.689492 0.403950 0.964099 0.207512
H33   H     H_    0.406442 0.313054 0.967732 0.206870
H34   H     H_    0.764285 0.858219 0.034865 0.185972
H35   H     H_    0.310508 0.596050 0.964099 0.207512
H36   H     H_    0.904809 0.188605 0.465346 0.206702
H37   H     H_    0.812778 0.906132 0.467138 0.207215
H38   H     H_    0.095191 0.811395 0.465346 0.206701
H39   H     H_    0.187222 0.093868 0.467138 0.207215
H40   H     H_    0.093871 0.187271 0.467120 0.207445
H41   H     H_    0.188632 0.904787 0.465330 0.206836
H42   H     H_    0.906129 0.812728 0.467120 0.207445
H43   H     H_    0.811368 0.095213 0.465330 0.206836
H44   H     H_    0.071416 0.591801 0.180942 0.182973
H45   H     H_    0.858222 0.764278 0.034864 0.185997
H46   H     H_    0.408192 0.928590 0.180942 0.182975
H47   H     H_    0.928584 0.408199 0.180942 0.182973
H48   H     H_    0.591808 0.071410 0.180942 0.182975
H49   H     H_    0.405193 0.067975 0.680102 0.188956
H50   H     H_    0.908199 0.428582 0.680943 0.182114
H51   H     H_    0.594807 0.932025 0.680102 0.188957
H52   H     H_    0.091801 0.571418 0.680943 0.182114
H53   H     H_    0.507487 0.116359 0.877670 0.192157
H54   H     H_    0.908213 0.428518 0.878310 0.175873
H55   H     H_    0.492513 0.883641 0.877670 0.192157
H56   H     H_    0.760467 0.145558 0.037196 0.190354
H57   H     H_    0.091787 0.571482 0.878310 0.175873
H58   H     H_    0.071630 0.591669 0.378313 0.176380
H59   H     H_    0.408324 0.928377 0.378312 0.176358
H60   H     H_    0.928370 0.408331 0.378313 0.176380
H61   H     H_    0.591676 0.071623 0.378312 0.176358
H62   H     H_    0.166945 0.620360 0.085826 0.344496
H63   H     H_    0.379629 0.833065 0.085826 0.344469
H64   H     H_    0.833055 0.379640 0.085826 0.344496
H65   H     H_    0.620371 0.166935 0.085826 0.344469
H66   H     H_    0.315169 0.081684 0.582516 0.342487
H67   H     H_    0.141778 0.235722 0.034864 0.185997
H68   H     H_    0.879678 0.333044 0.585825 0.344160
H69   H     H_    0.684831 0.918315 0.582516 0.342487
H70   H     H_    0.120322 0.666956 0.585825 0.344160
H71   H     H_    0.553862 0.194546 0.779933 0.362833
H72   H     H_    0.879691 0.333966 0.782836 0.359640
H73   H     H_    0.446138 0.805454 0.779933 0.362833
H74   H     H_    0.120309 0.666034 0.782836 0.359641
H75   H     H_    0.166240 0.620034 0.282838 0.360297
H76   H     H_    0.379952 0.833773 0.282837 0.360299
H77   H     H_    0.833760 0.379966 0.282838 0.360297
H78   H     H_    0.239533 0.854442 0.037196 0.190354
H79   H     H_    0.620047 0.166227 0.282837 0.360299
H80   H     H_    0.644087 0.261974 0.536303 0.186146
N1    N     N_R   0.006516 0.436789 0.234494 -0.139800
N2    N     N_R   0.063133 0.492837 0.765504 -0.128247
N3    N     N_R   0.446986 0.035031 0.765551 -0.126922
N4    N     N_R   0.936867 0.507162 0.765504 -0.128247
N5    N     N_R   0.007068 0.436859 0.265505 -0.128819
N6    N     N_R   0.563143 0.992928 0.265505 -0.128820
N7    N     N_R   0.992932 0.563141 0.265505 -0.128819
N8    N     N_R   0.436857 0.007071 0.265505 -0.128820
N9    N     N_R   0.563213 0.993480 0.234494 -0.139801
N10   N     N_R   0.993484 0.563211 0.234494 -0.139800
N11   N     N_R   0.436787 0.006520 0.234494 -0.139800
N12   N     N_R   0.552960 0.964968 0.734549 -0.150210
N13   N     N_R   0.063204 0.493390 0.734493 -0.139289
N14   N     N_R   0.447041 0.035032 0.734549 -0.150210
N15   N     N_R   0.936796 0.506610 0.734493 -0.139289
N16   N     N_R   0.553014 0.964969 0.765551 -0.126922
O1    O     O_3   1.000000 0.500000 0.999980 -0.490517
O2    O     O_R   1.000000 0.560770 0.430670 -0.640495
O3    O     O_R   0.439230 0.000000 0.430670 -0.640813
O4    O     O_R   0.000000 0.439230 0.430670 -0.640494
O5    O     O_R   0.000000 0.560690 0.069300 -0.618332
O6    O     O_R   0.439310 0.000000 0.069300 -0.618462
O7    O     O_R   1.000000 0.439310 0.069300 -0.618331
O8    O     O_R   0.560690 0.000000 0.069300 -0.618462
O9    O     O_R   0.500000 0.060690 0.569300 -0.617512
O10   O     O_R   0.939310 0.500000 0.569300 -0.617998
O11   O     O_R   0.500000 0.939310 0.569300 -0.617511
O12   O     O_3   0.500000 0.000000 0.999980 -0.489481
O13   O     O_R   0.060690 0.500000 0.569300 -0.617998
O14   O     O_R   0.853850 0.585430 0.981810 -0.642225
O15   O     O_R   0.414570 0.853850 0.981810 -0.643545
O16   O     O_R   0.146150 0.414570 0.981810 -0.642225
O17   O     O_R   0.585430 0.146150 0.981810 -0.643545
O18   O     O_R   0.146150 0.585430 0.981810 -0.643855
O19   O     O_R   0.585430 0.853850 0.981810 -0.642743
O20   O     O_R   0.853850 0.414570 0.981810 -0.643855
O21   O     O_R   0.414570 0.146150 0.981810 -0.642743
O22   O     O_R   0.353850 0.085430 0.481810 -0.642085
O23   O     O_3   0.500000 0.000000 0.499980 -0.490303
O24   O     O_R   0.914570 0.353850 0.481810 -0.643834
O25   O     O_R   0.646150 0.914570 0.481810 -0.642085
O26   O     O_R   0.085430 0.646150 0.481810 -0.643834
O27   O     O_R   0.646150 0.085430 0.481810 -0.643945
O28   O     O_R   0.085430 0.353850 0.481810 -0.642276
O29   O     O_R   0.353850 0.914570 0.481810 -0.643945
O30   O     O_R   0.914570 0.646150 0.481810 -0.642276
O31   O     O_R   0.085450 0.353830 0.018160 -0.645933
O32   O     O_R   0.646170 0.085450 0.018160 -0.638806
O33   O     O_R   0.914550 0.646170 0.018160 -0.645933
O34   O     O_3   1.000000 0.500000 0.499980 -0.490644
O35   O     O_R   0.353830 0.914550 0.018160 -0.638806
O36   O     O_R   0.914550 0.353830 0.018160 -0.638780
O37   O     O_R   0.353830 0.085450 0.018160 -0.645866
O38   O     O_R   0.085450 0.646170 0.018160 -0.638780
O39   O     O_R   0.646170 0.914550 0.018160 -0.645866
O40   O     O_R   0.585450 0.853830 0.518160 -0.640097
O41   O     O_R   0.146170 0.585450 0.518160 -0.639055
O42   O     O_R   0.414550 0.146170 0.518160 -0.640098
O43   O     O_R   0.853830 0.414550 0.518160 -0.639055
O44   O     O_R   0.414550 0.853830 0.518160 -0.645231
O45   O     O_R   0.060770 0.500000 0.930670 -0.640406
O46   O     O_R   0.853830 0.585450 0.518160 -0.645785
O47   O     O_R   0.585450 0.146170 0.518160 -0.645231
O48   O     O_R   0.146170 0.414550 0.518160 -0.645785
O49   O     O_2   0.101146 0.664350 0.130278 -0.601593
O50   O     O_R   0.134302 0.580467 0.094191 -0.809772
O51   O     O_2   0.335639 0.898865 0.130278 -0.601596
O52   O     O_R   0.419525 0.865705 0.094192 -0.809823
O53   O     O_2   0.898854 0.335650 0.130278 -0.601593
O54   O     O_R   0.865698 0.419532 0.094191 -0.809772
O55   O     O_2   0.664361 0.101134 0.130278 -0.601596
O56   O     O_R   0.500000 0.060770 0.930670 -0.646201
O57   O     O_R   0.580475 0.134295 0.094192 -0.809822
O58   O     O_2   0.357577 0.130899 0.630935 -0.604619
O59   O     O_R   0.356318 0.050610 0.590846 -0.819994
O60   O     O_2   0.835659 0.398842 0.630273 -0.607656
O61   O     O_R   0.919565 0.365691 0.594193 -0.808861
O62   O     O_2   0.642425 0.869102 0.630935 -0.604619
O63   O     O_R   0.643681 0.949390 0.590845 -0.819995
O64   O     O_2   0.164341 0.601158 0.630273 -0.607656
O65   O     O_R   0.080435 0.634309 0.594193 -0.808861
O66   O     O_2   0.490018 0.193280 0.828600 -0.608025
O67   O     O_R   0.939230 0.500000 0.930670 -0.640406
O68   O     O_R   0.551252 0.142946 0.788144 -0.789413
O69   O     O_2   0.836224 0.397691 0.827908 -0.607445
O70   O     O_R   0.919323 0.367059 0.791092 -0.788870
O71   O     O_2   0.509982 0.806720 0.828600 -0.608025
O72   O     O_R   0.448748 0.857053 0.788144 -0.789414
O73   O     O_2   0.163776 0.602309 0.827908 -0.607445
O74   O     O_R   0.080677 0.632941 0.791092 -0.788870
O75   O     O_2   0.102594 0.663598 0.327913 -0.602770
O76   O     O_R   0.133075 0.580461 0.291092 -0.789230
O77   O     O_2   0.336390 0.897418 0.327913 -0.602779
O78   O     O_R   0.500000 0.939230 0.930670 -0.646201
O79   O     O_R   0.419529 0.866935 0.291091 -0.789233
O80   O     O_2   0.897406 0.336402 0.327913 -0.602770
O81   O     O_R   0.866925 0.419539 0.291092 -0.789230
O82   O     O_2   0.663610 0.102582 0.327913 -0.602779
O83   O     O_R   0.580471 0.133065 0.291091 -0.789233
O84   O     O_R   0.560770 0.000000 0.430670 -0.640813
Zn1   Zn    Zn3+2 1.000000 0.586730 0.025950 1.012997
Zn2   Zn    Zn3+2 0.500000 0.913260 0.974020 0.975380
Zn3   Zn    Zn3+2 0.086740 0.500000 0.974020 0.975933
Zn4   Zn    Zn3+2 0.500000 0.086740 0.974020 0.975380
Zn5   Zn    Zn3+2 0.413260 0.000000 0.474020 0.976841
Zn6   Zn    Zn3+2 0.000000 0.413260 0.474020 0.975897
Zn7   Zn    Zn3+2 0.586740 0.000000 0.474020 0.976841
Zn8   Zn    Zn3+2 0.000000 0.586740 0.474020 0.975897
Zn9   Zn    Zn3+2 0.413270 0.000000 0.025950 1.013671
Zn10  Zn    Zn3+2 1.000000 0.413270 0.025950 1.012997
Zn11  Zn    Zn3+2 0.586730 0.000000 0.025950 1.013671
Zn12  Zn    Zn3+2 0.500000 0.086730 0.525950 1.017133
Zn13  Zn    Zn3+2 0.913270 0.500000 0.525950 1.013483
Zn14  Zn    Zn3+2 0.500000 0.913270 0.525950 1.017133
Zn15  Zn    Zn3+2 0.086730 0.500000 0.525950 1.013483
Zn16  Zn    Zn3+2 0.913260 0.500000 0.974020 0.975933

loop_
_geom_bond_atom_site_label_1
_geom_bond_atom_site_label_2
_ccdc_geom_bond_type
C119  C149  S    
C19   C129  S    
H66   O59   S    
C17   C131  S    
H68   O61   S    
C133  C151  A    
C57   N7    A    
C26   H36   S    
H65   O57   S    
C126  C127  A    
N1    N5    A    
C79   C99   A    
C118  O26   A    
C32   C133  S    
C76   C98   A    
C2    C36   A    
C113  C142  S    
C115  O43   A    
C104  O13   A    
C36   C53   S    
C83   H53   S    
C91   C96   A    
C110  O18   A    
C38   C55   S    
C29   H39   S    
C102  O6    A    
C103  O11   A    
C13   C103  S    
O35   Zn9   S    
C46   C98   S    
C8    C16   A    
C113  O37   A    
C30   H22   S    
C116  O25   A    
O1    Zn16  S    
C71   N11   A    
C56   O58   D    
C88   C94   A    
C18   H10   S    
C27   C138  S    
C40   C58   S    
C159  H12   S    
O38   Zn1   S    
C53   O52   S    
O43   Zn13  S    
H63   O52   S    
C135  C136  A    
H64   O54   S    
C119  O27   A    
C23   H16   S    
C81   C99   A    
C68   N6    A    
C33   H43   S    
C82   C91   A    
C89   H59   S    
C39   C56   S    
C6    H67   S    
C123  C141  A    
C124  C130  A    
C28   H20   S    
O9    Zn12  S    
C65   O76   S    
C127  C145  A    
C81   C90   A    
O42   Zn12  S    
C36   C44   A    
C16   C157  A    
C37   C45   A    
N7    N10   A    
C105  O14   A    
C9    C151  A    
C122  O46   A    
H72   O70   S    
C61   O66   D    
C28   C137  S    
C12   C154  A    
O3    Zn5   S    
C17   C25   S    
C89   C96   A    
C9    C15   A    
C54   O53   D    
C107  C148  S    
C103  O9    A    
O34   Zn8   S    
C116  C156  S    
O56   Zn4   S    
C125  C129  A    
C20   C21   S    
C1    C93   S    
O28   Zn6   S    
C21   C126  S    
C76   C85   A    
C114  C154  S    
C62   O69   D    
C115  O24   A    
C30   H40   S    
C84   O84   A    
C35   N3    A    
C65   C79   S    
O17   Zn4   S    
C37   C150  A    
O19   Zn2   S    
O29   Zn5   S    
C22   H15   S    
C143  C160  A    
C68   N8    A    
C32   H25   S    
O40   Zn14  S    
C2    C102  S    
C40   C49   A    
C57   C99   S    
H70   O65   S    
C121  O44   A    
C137  C155  A    
C73   O56   A    
C59   O62   D    
C69   C82   S    
C85   C93   A    
O1    Zn10  S    
C49   H50   S    
O23   Zn5   S    
C77   C97   A    
C33   H26   S    
C14   H6    S    
C90   H60   S    
O78   Zn2   S    
C61   O68   S    
C15   H7    S    
C31   C134  S    
H77   O81   S    
C29   C136  S    
C105  O33   A    
C8    H80   S    
O1    Zn1   S    
C95   O4    A    
H79   O83   S    
O25   Zn7   S    
C111  O39   A    
C71   C117  S    
C131  C148  A    
C63   O72   S    
C20   C127  S    
C10   C14   A    
C12   H5    S    
C64   O74   S    
C22   C125  S    
C43   C106  A    
C110  C141  S    
O34   Zn6   S    
C29   C30   S    
O36   Zn10  S    
C2    C38   A    
C26   C33   S    
C5    C160  A    
O23   Zn14  S    
C38   C47   A    
O2    Zn8   S    
C25   C123  S    
C19   H29   S    
C33   C132  S    
C67   C81   S    
C49   C139  A    
C71   N9    A    
O12   Zn9   S    
C58   O60   D    
C3    C4    A    
C130  C147  A    
C64   C78   S    
C34   C43   A    
C73   C92   S    
C72   N14   A    
H69   O63   S    
C77   C86   A    
C73   O78   A    
O14   Zn16  S    
C66   C80   S    
O18   Zn3   S    
O12   Zn2   S    
C67   O80   D    
C58   O61   S    
C85   H54   S    
C6    C147  A    
C125  C143  A    
C4    C145  A    
C87   C93   A    
C126  C144  A    
O22   Zn5   S    
C88   H58   S    
C102  O8    A    
C32   H42   S    
C11   C153  A    
C48   H49   S    
C43   H44   S    
N2    N13   A    
C52   O49   D    
N6    N9    A    
C51   C139  A    
O1    Zn3   S    
C95   O2    A    
C10   H3    S    
C31   H24   S    
C24   C42   A    
C84   O3    A    
C27   H37   S    
C46   N4    A    
C142  C159  A    
C134  C137  A    
C13   C41   A    
C34   C150  A    
C4    H45   S    
C110  O38   A    
C47   H48   S    
O11   Zn14  S    
C69   O83   S    
C53   O51   D    
C112  C143  S    
O45   Zn3   S    
C27   H19   S    
C60   O65   S    
C26   C140  S    
C70   N1    A    
C20   H30   S    
C25   H17   S    
C21   H31   S    
O26   Zn8   S    
C101  C150  S    
C75   C97   A    
C80   C89   A    
O48   Zn15  S    
C55   O55   D    
C158  H1    S    
C10   C152  A    
C109  O32   A    
C51   H52   S    
O12   Zn11  S    
O84   Zn7   S    
C70   N10   A    
C160  H23   S    
C59   O63   S    
C74   N15   A    
C65   O75   D    
C60   O64   D    
O5    Zn1   S    
O21   Zn4   S    
C133  C138  A    
C132  C149  A    
C62   C76   S    
C21   H14   S    
C79   C88   A    
C90   C94   A    
O12   Zn4   S    
C107  O15   A    
C108  O16   A    
O30   Zn8   S    
C70   C106  S    
C28   H38   S    
O13   Zn15  S    
C54   O54   S    
C48   C128  A    
C136  C154  A    
C7    H78   S    
C64   O73   D    
C105  C145  S    
C23   H33   S    
C44   H46   S    
O34   Zn15  S    
O37   Zn9   S    
C121  O29   A    
C66   O79   S    
O39   Zn11  S    
C129  C146  A    
O67   Zn16  S    
C72   C128  S    
C50   C128  A    
C46   N2    A    
C113  O21   A    
C41   C50   A    
C62   O70   S    
H62   O50   S    
C116  O40   A    
C69   O82   D    
C123  C131  A    
C27   C32   S    
C28   C31   S    
C3    C144  A    
C112  O20   A    
C19   H11   S    
O24   Zn6   S    
C132  C140  A    
O31   Zn10  S    
C34   C52   S    
C8    C149  A    
C63   O71   D    
C75   C83   A    
C17   H27   S    
H76   O79   S    
C18   H28   S    
C94   C95   S    
C74   N13   A    
C141  C158  A    
C120  O28   A    
O32   Zn11  S    
C30   C135  S    
C114  O42   A    
C119  O47   A    
C120  O48   A    
C109  O17   A    
C68   C100  S    
C39   C48   A    
C101  O5    A    
C14   C155  A    
C109  C146  S    
C6    C159  A    
C7    C158  A    
C61   C75   S    
C83   C92   A    
N3    N14   A    
C29   H21   S    
C115  C157  S    
C104  O10   A    
C67   O81   S    
C55   O57   S    
C17   H9    S    
H71   O68   S    
O34   Zn13  S    
C84   C96   S    
C66   O77   D    
O33   Zn1   S    
C86   H55   S    
C11   H4    S    
O44   Zn14  S    
H73   O72   S    
N4    N15   A    
C78   C98   A    
O16   Zn3   S    
O47   Zn12  S    
O41   Zn15  S    
O27   Zn7   S    
C111  O19   A    
C91   H61   S    
O23   Zn12  S    
C25   H35   S    
C56   O59   S    
C42   C51   A    
N12   N16   A    
C108  C147  S    
C134  C152  A    
H75   O76   S    
C45   H47   S    
C80   C100  A    
C1    O45   A    
O8    Zn11  S    
C1    O67   A    
C107  O35   A    
O4    Zn6   S    
C26   H18   S    
C3    H34   S    
C13   C39   A    
C18   C23   S    
C19   C22   S    
C41   C59   S    
C57   N5    A    
C42   C60   S    
C5    H56   S    
C24   C104  S    
O10   Zn13  S    
C140  C157  A    
H74   O74   S    
C20   H13   S    
O20   Zn16  S    
O6    Zn9   S    
C118  C155  S    
C72   N12   A    
C15   C156  A    
C111  C144  S    
O15   Zn2   S    
C37   C54   S    
O46   Zn13  S    
C50   H51   S    
C101  O7    A    
C35   N16   A    
C112  O36   A    
C52   O50   S    
C22   H32   S    
C78   C87   A    
C45   C106  A    
C7    C148  A    
C63   C77   S    
C138  C156  A    
O7    Zn10  S    
C5    C146  A    
C118  O41   A    
C82   C100  A    
C124  C142  A    
C11   C12   A    
N8    N11   A    
C23   C124  S    
C74   C139  S    
C135  C153  A    
C121  C152  S    
C122  C151  S    
C122  O30   A    
C108  O31   A    
C86   C92   A    
C44   C117  A    
C16   H8    S    
C120  C153  S    
C24   C40   A    
O23   Zn7   S    
C87   H57   S    
C9    H2    S    
C31   H41   S    
C18   C130  S    
C114  O22   A    
C47   C117  A    
C35   C97   S    
