data_mof_unit_47551.cif
_audit_creation_date              2012-12-11T17:12:39-0500
_audit_creation_method            fapswitch 2.2
_symmetry_space_group_name_H-M    P1
_symmetry_Int_Tables_number       1
_space_group_crystal_system       triclinic
_cell_length_a                    17.289934
_cell_length_b                    6.893796
_cell_length_c                    14.310819
_cell_angle_alpha                 90.117897
_cell_angle_beta                  110.352566
_cell_angle_gamma                 89.883798
_cell_volume                      1599.25870238

loop_
_atom_site_label
_atom_site_type_symbol
_atom_type_description
_atom_site_fract_x
_atom_site_fract_y
_atom_site_fract_z
_atom_type_partial_charge
O1    O     O_R   0.314130 0.635770 0.168990 -0.549704
O2    O     O_R   0.685870 0.364230 0.831010 -0.532883
O3    O     O_R   0.185870 0.135770 0.331010 -0.548816
O4    O     O_R   0.814130 0.864230 0.668990 -0.530968
O5    O     O_R   0.146800 0.302460 0.139760 -0.546997
O6    O     O_R   0.853200 0.697540 0.860240 -0.532761
O7    O     O_R   0.353200 0.802460 0.360240 -0.547291
O8    O     O_R   0.646800 0.197540 0.639760 -0.532633
C1    C     C_R   0.113687 0.475779 0.113515 0.733129
C2    C     C_R   0.885593 0.524179 0.887830 0.716111
C3    C     C_R   0.386364 0.975744 0.386376 0.734652
C4    C     C_R   0.614536 0.024219 0.611943 0.716963
O9    O     O_R   0.311100 0.305780 0.157130 -0.534890
O10   O     O_R   0.688900 0.694220 0.842870 -0.556758
O11   O     O_R   0.188900 0.805780 0.342870 -0.534546
O12   O     O_R   0.811100 0.194220 0.657130 -0.556749
O13   O     O_R   0.351340 0.139640 0.348510 -0.532793
O14   O     O_R   0.648660 0.860360 0.651490 -0.542271
O15   O     O_R   0.148660 0.639640 0.151490 -0.534191
O16   O     O_R   0.851340 0.360360 0.848510 -0.545393
C5    C     C_R   0.335964 0.474350 0.140330 0.728274
C6    C     C_R   0.665358 0.525777 0.862231 0.761051
C7    C     C_R   0.164179 0.974947 0.359897 0.728862
C8    C     C_R   0.834147 0.025033 0.637241 0.746532
C9    C     C_1   0.534574 0.009370 0.531268 -0.189864
C10   C     C_1   0.467358 0.991385 0.465103 -0.194841
C11   C     C_1   0.965632 0.509171 0.968339 -0.192914
C12   C     C_1   0.032798 0.491296 0.034586 -0.194103
O17   O     O_3   0.263010 0.470920 0.312770 -0.370386
O18   O     O_3   0.736990 0.529080 0.687230 -0.366623
O19   O     O_3   0.236990 0.970920 0.187230 -0.372099
O20   O     O_3   0.763010 0.029080 0.812770 -0.368993
V1    V     V_3+5 0.247590 0.194450 0.238360 1.402517
V2    V     V_3+5 0.752410 0.805550 0.761640 1.411749
V3    V     V_3+5 0.252410 0.694450 0.261640 1.402724
V4    V     V_3+5 0.747590 0.305550 0.738360 1.409762
C13   C     C_R   0.108933 0.990993 0.417479 -0.213163
C14   C     C_R   0.883105 0.015667 0.570555 -0.185358
C15   C     C_R   0.390669 0.488916 0.082148 -0.206532
C16   C     C_R   0.616391 0.518361 0.929035 -0.189275
C17   C     C_R   0.887556 0.943181 0.404748 0.467416
C18   C     C_R   0.095573 0.113268 0.569800 0.478602
C19   C     C_R   0.611629 0.444980 0.094189 0.469018
C20   C     C_R   0.402010 0.611110 0.928723 0.482172
C21   C     C_R   0.843952 0.960549 0.471139 -0.363825
C22   C     C_R   0.143645 0.068925 0.512407 -0.353680
C23   C     C_R   0.655051 0.459505 0.027689 -0.366235
C24   C     C_R   0.354572 0.558893 0.986022 -0.356136
C25   C     C_R   0.968403 0.056481 0.605873 0.378369
C26   C     C_R   0.021854 0.961260 0.375517 0.397053
C27   C     C_R   0.531736 0.566576 0.894448 0.376061
C28   C     C_R   0.477898 0.464639 0.124073 0.396767
C29   C     C_R   0.012549 0.051280 0.538681 -0.133518
C30   C     C_R   0.973675 0.983421 0.438654 -0.129316
C31   C     C_R   0.486322 0.555609 0.960495 -0.130382
C32   C     C_R   0.525562 0.486791 0.060482 -0.128844
H1    H     H_    0.208511 0.107398 0.540281 0.143340
H2    H     H_    0.778876 0.924901 0.445442 0.130631
H3    H     H_    0.288572 0.584266 0.957246 0.132408
H4    H     H_    0.719816 0.420471 0.052997 0.131304
O21   O     O_3   0.983480 0.898514 0.277143 -0.533174
C33   C     C_3   0.001486 0.020530 0.207454 0.123005
H5    H     H_    0.055066 0.961062 0.191184 0.137131
H6    H     H_    0.013630 0.173894 0.233487 0.093357
C34   C     C_3   0.930745 0.020275 0.107889 -0.679810
H7    H     H_    0.879032 0.109996 0.112373 0.200892
H8    H     H_    0.951776 0.084583 0.049729 0.179144
H9    H     H_    0.909807 0.869625 0.085269 0.226762
O22   O     O_3   0.012582 0.048633 0.707499 -0.547192
C35   C     C_3   0.008277 0.226530 0.754332 0.156367
H10   H     H_    0.952776 0.229579 0.775483 0.124380
H11   H     H_    0.006879 0.354499 0.706363 0.116986
C36   C     C_3   0.082697 0.241872 0.850331 -0.667402
H12   H     H_    0.140677 0.209709 0.836477 0.254399
H13   H     H_    0.086953 0.390850 0.880938 0.157073
H14   H     H_    0.076601 0.137179 0.906268 0.203547
O23   O     O_3   0.516879 0.404546 0.222709 -0.533097
C37   C     C_3   0.498721 0.528216 0.291942 0.121774
H15   H     H_    0.445425 0.469177 0.308744 0.136958
H16   H     H_    0.486098 0.680953 0.265190 0.093384
C38   C     C_3   0.569643 0.530031 0.391350 -0.679171
H17   H     H_    0.621200 0.619001 0.386250 0.200432
H18   H     H_    0.548689 0.596084 0.449320 0.179977
H19   H     H_    0.590785 0.379785 0.414705 0.226805
O24   O     O_3   0.489744 0.578543 0.792596 -0.544741
C39   C     C_3   0.492903 0.769299 0.758481 0.161560
H20   H     H_    0.551885 0.795200 0.747245 0.119588
H21   H     H_    0.486065 0.881365 0.811179 0.125007
C40   C     C_3   0.424395 0.793315 0.657802 -0.665095
H22   H     H_    0.364380 0.744752 0.661383 0.255652
H23   H     H_    0.419019 0.948029 0.635175 0.160863
H24   H     H_    0.438297 0.704226 0.600824 0.206079
O25   O     O_3   0.846701 0.871509 0.309498 -0.536223
C41   C     C_3   0.793304 0.016334 0.251690 0.143591
H25   H     H_    0.829727 0.145619 0.245707 0.126459
H26   H     H_    0.746397 0.059393 0.284720 0.147080
C42   C     C_3   0.746648 0.942042 0.146455 -0.696979
H27   H     H_    0.688318 0.870853 0.142899 0.181810
H28   H     H_    0.730030 0.065219 0.093361 0.194328
H29   H     H_    0.784586 0.837306 0.122049 0.228847
O26   O     O_3   0.129120 0.228306 0.653552 -0.546815
C43   C     C_3   0.134645 0.421234 0.622088 0.065621
H30   H     H_    0.072727 0.476779 0.575083 0.118406
H31   H     H_    0.177206 0.430502 0.579074 0.134529
C44   C     C_3   0.168702 0.554475 0.711938 -0.680360
H32   H     H_    0.228415 0.497712 0.763142 0.240497
H33   H     H_    0.178519 0.701510 0.686655 0.203513
H34   H     H_    0.124703 0.567207 0.752369 0.211925
O27   O     O_3   0.652510 0.372925 0.189269 -0.535768
C45   C     C_3   0.706388 0.516965 0.247062 0.145338
H35   H     H_    0.670397 0.647406 0.253105 0.126935
H36   H     H_    0.753362 0.558215 0.213931 0.146645
C46   C     C_3   0.752867 0.442860 0.352293 -0.696015
H37   H     H_    0.811039 0.370327 0.355844 0.180910
H38   H     H_    0.769765 0.566306 0.405394 0.194913
H39   H     H_    0.714684 0.339355 0.376677 0.229274
O28   O     O_3   0.366369 0.720478 0.842878 -0.544341
C47   C     C_3   0.333087 0.894998 0.866486 0.054821
H40   H     H_    0.375974 0.964026 0.935715 0.121480
H41   H     H_    0.272970 0.866186 0.875819 0.139382
C48   C     C_3   0.316666 0.041342 0.782381 -0.668381
H42   H     H_    0.277187 0.975857 0.710952 0.226882
H43   H     H_    0.284374 0.169215 0.798633 0.209398
H44   H     H_    0.375279 0.092153 0.775702 0.211123

loop_
_geom_bond_atom_site_label_1
_geom_bond_atom_site_label_2
_ccdc_geom_bond_type
C2    C11   S    
C16   C23   A    
C31   C32   A    
O1    C5    A    
O25   C41   S    
C38   H19   S    
C36   H12   S    
O3    C7    A    
C37   C38   S    
C27   O24   S    
C42   H27   S    
C14   C25   A    
O23   C37   S    
O7    C3    A    
C44   H33   S    
O26   C43   S    
O20   V4    S    
C18   C29   A    
O24   C39   S    
O4    C8    A    
C39   H21   S    
O3    V1    S    
O17   V1    S    
C43   C44   S    
O8    V4    S    
C45   H35   S    
C14   C21   A    
C33   H6    S    
C42   H28   S    
C23   H4    S    
C47   H40   S    
C1    O15   A    
C17   O25   S    
C2    O16   A    
C34   H8    S    
O5    V1    S    
O2    C6    A    
C8    C14   S    
O19   V1    S    
C35   H10   S    
C40   H23   S    
C27   C31   A    
C46   H39   S    
O11   C7    A    
C15   C28   A    
O12   C8    A    
C25   O22   S    
C36   H13   S    
O22   C35   S    
O13   V1    S    
O11   V3    S    
C38   H18   S    
C38   H17   S    
C45   H36   S    
C44   H34   S    
O4    V2    S    
C21   H2    S    
O18   V2    S    
C43   H30   S    
C39   H20   S    
C41   C42   S    
C9    C10   T    
C7    C13   S    
O6    V2    S    
C47   C48   S    
O20   V2    S    
C43   H31   S    
O5    C1    A    
C33   H5    S    
C5    C15   S    
O8    C4    A    
C34   H9    S    
C6    C16   S    
C35   C36   S    
O9    C5    A    
C41   H25   S    
C26   C30   A    
C40   H24   S    
C41   H26   S    
O14   V2    S    
C45   C46   S    
C48   H42   S    
C34   H7    S    
C22   H1    S    
C18   C22   A    
C36   H14   S    
O19   V3    S    
C28   O23   S    
C18   O26   S    
C42   H29   S    
O1    V3    S    
C24   H3    S    
C46   H37   S    
O2    V4    S    
C3    O13   A    
C33   C34   S    
C37   H15   S    
O7    V3    S    
C39   C40   S    
O10   V2    S    
O6    C2    A    
C29   C30   A    
C16   C27   A    
C44   H32   S    
O17   V3    S    
C3    C10   S    
O18   V4    S    
C4    C9    S    
O10   C6    A    
C40   H22   S    
O15   V3    S    
O28   C47   S    
O12   V4    S    
C13   C26   A    
C20   C31   A    
C20   O28   S    
C25   C29   A    
C37   H16   S    
O21   C33   S    
C47   H41   S    
C17   C30   A    
C48   H43   S    
O16   V4    S    
C20   C24   A    
C19   C32   A    
O9    V1    S    
C4    O14   A    
C11   C12   T    
C48   H44   S    
C26   O21   S    
C17   C21   A    
C35   H11   S    
C19   O27   S    
C13   C22   A    
O27   C45   S    
C19   C23   A    
C28   C32   A    
C1    C12   S    
C15   C24   A    
C46   H38   S    
