data_mof_unit_11504.cif
_audit_creation_date              2012-12-10T17:22:42-0500
_audit_creation_method            fapswitch 2.2
_symmetry_space_group_name_H-M    P1
_symmetry_Int_Tables_number       1
_space_group_crystal_system       triclinic
_cell_length_a                    10.615319
_cell_length_b                    10.852588
_cell_length_c                    9.578353
_cell_angle_alpha                 90.007372
_cell_angle_beta                  90.312931
_cell_angle_gamma                 92.725983
_cell_volume                      1102.19635958

loop_
_atom_site_label
_atom_site_type_symbol
_atom_type_description
_atom_site_fract_x
_atom_site_fract_y
_atom_site_fract_z
_atom_type_partial_charge
C1    C     C_R   0.508597 0.262754 0.501127 0.803356
C2    C     C_3   0.962529 0.600410 0.432197 -0.169799
C3    C     C_3   0.039515 0.497781 0.367042 -0.128948
C4    C     C_3   0.122349 0.499625 0.498779 0.009033
C5    C     C_R   0.551644 0.117125 0.764800 -0.163256
C6    C     C_R   0.523148 0.056946 0.889961 -0.182404
C7    C     C_R   0.460666 0.941751 0.887908 -0.148167
C8    C     C_R   0.437836 0.881859 0.760988 -0.154262
C9    C     C_R   0.478245 0.936783 0.633352 0.107749
C10   C     C_R   0.516616 0.062727 0.634578 0.098675
C11   C     C_R   0.516902 0.128474 0.505793 -0.131633
C12   C     C_R   0.259333 0.499428 0.499570 0.794697
C13   C     C_R   0.508027 0.063664 0.379499 -0.217957
C14   C     C_R   0.496884 0.936389 0.379175 -0.228651
C15   C     C_R   0.482987 0.871384 0.504821 -0.110095
C16   C     C_R   0.666273 0.665539 0.144706 -0.187170
C17   C     C_R   0.747210 0.747210 0.073315 -0.352941
C18   C     C_R   0.746235 0.749909 0.927607 0.461128
C19   C     C_R   0.666354 0.665535 0.856782 -0.176711
C20   C     C_R   0.581522 0.581567 0.925770 0.109459
C21   C     C_R   0.581379 0.581649 0.075037 0.122751
C22   C     C_R   0.421132 0.421031 0.075300 0.532374
C23   C     C_R   0.491243 0.737179 0.500832 0.776649
C24   C     C_R   0.422351 0.422165 0.924744 -0.200691
C25   C     C_R   0.740621 0.500409 0.500436 0.762031
C26   C     C_3   0.037278 0.399541 0.567840 -0.179595
C27   C     C_3   0.952181 0.397709 0.436230 -0.174387
C28   C     C_3   0.877515 0.500322 0.501257 0.033830
C29   C     C_3   0.960301 0.502184 0.632999 -0.123624
C30   C     C_3   0.047641 0.602266 0.563824 -0.154901
Cu1   Cu    Cu3+1 0.499990 0.499990 0.640660 0.918588
Cu2   Cu    Cu3+1 0.500010 0.500010 0.359340 0.971332
H1    H     H_    0.909877 0.314070 0.384187 0.125536
H2    H     H_    0.432715 0.897292 0.984841 0.133584
H3    H     H_    0.385275 0.794301 0.764893 0.160599
H4    H     H_    0.498267 0.888972 0.279671 0.166271
H5    H     H_    0.675401 0.672060 0.254770 0.218571
H6    H     H_    0.811549 0.806956 0.133321 0.135870
H7    H     H_    0.674803 0.670729 0.746776 0.218873
H8    H     H_    0.360990 0.360505 0.864013 0.140500
H9    H     H_    0.070967 0.317349 0.623186 0.128971
H10   H     H_    0.925128 0.504184 0.741908 0.143890
H11   H     H_    0.089870 0.685914 0.615939 0.137660
H12   H     H_    0.928589 0.682467 0.376798 0.124936
H13   H     H_    0.074573 0.495783 0.258090 0.151074
H14   H     H_    0.510630 0.111266 0.280045 0.173521
H15   H     H_    0.604939 0.204085 0.772464 0.165910
H16   H     H_    0.547540 0.100858 0.988609 0.128771
N1    N     N_R   0.501210 0.501210 0.147910 -0.220869
N2    N     N_R   0.501250 0.501290 0.852040 -0.201652
O1    O     O_R   0.499990 0.319640 0.618810 -0.595201
O2    O     O_R   0.500000 0.319660 0.381240 -0.531740
O3    O     O_R   0.316850 0.499960 0.618770 -0.588191
O4    O     O_R   0.316860 0.499980 0.381190 -0.536452
O5    O     O_R   0.500000 0.680340 0.618760 -0.608569
O6    O     O_R   0.500010 0.680360 0.381190 -0.604800
O7    O     O_R   0.683140 0.500020 0.618810 -0.605634
O8    O     O_R   0.683150 0.500040 0.381230 -0.601845
O9    O     O_3   0.342636 0.342324 0.155346 -0.543556
C31   C     C_3   0.260691 0.261823 0.077997 0.005295
H17   H     H_    0.315213 0.199078 0.012119 0.148551
H18   H     H_    0.194967 0.314970 0.013091 0.137094
C32   C     C_3   0.182073 0.182424 0.178899 -0.780007
H19   H     H_    0.126322 0.241770 0.247199 0.244517
H20   H     H_    0.116444 0.118860 0.119601 0.191829
H21   H     H_    0.244554 0.127101 0.244955 0.250677
O10   O     O_3   0.827406 0.825843 0.847984 -0.586969
C33   C     C_3   0.853102 0.942647 0.909993 0.086479
H22   H     H_    0.929975 0.936578 0.988652 0.137835
H23   H     H_    0.767999 0.979219 0.959971 0.146530
C34   C     C_3   0.897201 0.033797 0.797763 -0.805479
H24   H     H_    0.822537 0.041637 0.716970 0.253188
H25   H     H_    0.917884 0.126034 0.845094 0.191284
H26   H     H_    0.984122 0.002212 0.747684 0.246689

loop_
_geom_bond_atom_site_label_1
_geom_bond_atom_site_label_2
_ccdc_geom_bond_type
C32   H20   S    
C16   C21   A    
C29   H10   S    
C19   C20   A    
C1    C11   S    
Cu2   O8    S    
C21   N1    A    
C23   O6    A    
C27   H1    S    
C25   C28   S    
C5    H15   S    
C26   C27   S    
C6    H16   S    
C31   C32   S    
C28   C29   S    
C14   H4    S    
C5    C6    A    
C16   C17   A    
C31   H18   S    
C18   C19   A    
Cu2   O2    S    
C20   N2    A    
C2    H12   S    
C8    C9    A    
C4    C12   S    
C9    C10   A    
C12   O3    A    
C16   H5    S    
C15   C23   S    
C32   H21   S    
O9    C31   S    
C13   C14   A    
C25   O7    A    
Cu2   O4    S    
C24   N2    A    
O10   C33   S    
C7    C8    A    
C22   O9    S    
C34   H25   S    
C33   H22   S    
C18   O10   S    
C3    H13   S    
C31   H17   S    
C8    H3    S    
C29   C30   S    
Cu1   Cu2   S    
C17   C18   A    
Cu1   O3    S    
C1    O1    A    
C19   H7    S    
C22   N1    A    
C7    H2    S    
C22   C24   A    
C30   H11   S    
C25   O8    A    
Cu1   N2    S    
C3    C4    S    
Cu1   O1    S    
C34   H26   S    
C4    C26   S    
C23   O5    A    
C6    C7    A    
C2    C30   S    
Cu1   O7    S    
C3    C27   S    
C2    C3    S    
C9    C15   A    
C5    C10   A    
C11   C13   A    
C13   H14   S    
C33   C34   S    
C24   H8    S    
C17   H6    S    
C1    O2    A    
C4    C30   S    
Cu2   N1    S    
C10   C11   A    
C32   H19   S    
C34   H24   S    
C20   C21   A    
C26   C29   S    
C33   H23   S    
C27   C28   S    
C14   C15   A    
C2    C28   S    
Cu1   O5    S    
Cu2   O6    S    
C12   O4    A    
C26   H9    S    
