data_mof_unit_22199.cif
_audit_creation_date              2013-03-05T16:05:53-0500
_audit_creation_method            fapswitch 2.2
_symmetry_space_group_name_H-M    P1
_symmetry_Int_Tables_number       1
_space_group_crystal_system       triclinic
_cell_length_a                    10.886009
_cell_length_b                    9.616737
_cell_length_c                    19.483838
_cell_angle_alpha                 88.747368
_cell_angle_beta                  96.283538
_cell_angle_gamma                 88.268557
_cell_volume                      2025.89207146

loop_
_atom_site_label
_atom_site_type_symbol
_atom_site_description
_atom_site_fract_x
_atom_site_fract_y
_atom_site_fract_z
_atom_type_partial_charge
O1    O     O_R   0.319640 0.618740 0.500000 -0.591315
O2    O     O_R   0.680360 0.381260 0.500000 -0.591314
O3    O     O_R   0.680360 0.618740 0.500000 -0.589707
O4    O     O_R   0.319640 0.381260 0.500000 -0.589708
C1    C     C_R   0.263482 0.501952 0.506616 0.803812
C2    C     C_R   0.736516 0.498050 0.493380 0.803730
O5    O     O_R   0.499980 0.618820 0.400140 -0.549474
O6    O     O_R   0.500020 0.381180 0.599860 -0.549486
O7    O     O_R   0.500020 0.618820 0.599860 -0.549328
O8    O     O_R   0.499980 0.381180 0.400140 -0.549274
C3    C     C_R   0.506004 0.501156 0.367389 0.827676
C4    C     C_R   0.494008 0.498843 0.632612 0.827765
Cu1   Cu    Cu3+1 0.500000 0.640660 0.500000 0.988383
Cu2   Cu    Cu3+1 0.500000 0.359340 0.500000 0.988413
C5    C     C_R   0.069567 0.377804 0.520156 0.089897
C6    C     C_R   0.930424 0.622213 0.479832 0.089938
C7    C     C_R   0.943786 0.370000 0.496394 0.122022
C8    C     C_R   0.056211 0.630015 0.503588 0.122040
C9    C     C_R   0.870719 0.494724 0.485594 -0.103119
C10   C     C_R   0.129275 0.505288 0.514394 -0.103063
C11   C     C_R   0.415755 0.079098 0.455726 0.277779
C12   C     C_R   0.584237 0.920903 0.544279 0.277780
C13   C     C_R   0.584266 0.069658 0.543949 0.257871
C14   C     C_R   0.415738 0.930343 0.456050 0.257778
C15   C     C_R   0.511897 0.627966 0.250503 0.302632
C16   C     C_R   0.488404 0.372065 0.749528 0.302391
C17   C     C_R   0.459215 0.625367 0.742276 0.305285
C18   C     C_R   0.540961 0.374646 0.257727 0.305324
C19   C     C_R   0.516869 0.624197 0.178338 0.045285
C20   C     C_R   0.483781 0.375884 0.821725 0.045197
C21   C     C_R   0.465463 0.629974 0.814979 0.027146
C22   C     C_R   0.534987 0.370109 0.185028 0.027311
C23   C     C_R   0.520566 0.495306 0.145504 -0.034172
C24   C     C_R   0.480112 0.504817 0.854534 -0.033997
N1    N     N_R   0.500000 0.852070 0.500000 -0.185015
N2    N     N_R   0.500000 0.147930 0.500000 -0.185031
C25   C     C_R   0.519861 0.502181 0.291104 -0.344742
C26   C     C_R   0.480286 0.497827 0.708909 -0.344505
N3    N     N_R   0.609151 0.462075 0.036295 -0.224725
N4    N     N_R   0.391587 0.538161 0.963743 -0.224575
N5    N     N_R   0.600017 0.467480 0.967625 -0.219309
N6    N     N_R   0.400722 0.532759 0.032412 -0.219239
C27   C     C_R   0.491395 0.506614 0.930332 0.427715
C28   C     C_R   0.509337 0.493612 0.069705 0.427772
C29   C     C_3   0.134198 0.252895 0.558925 -0.715334
H1    H     H_    0.218510 0.282258 0.591751 0.273511
H2    H     H_    0.073337 0.208623 0.595440 0.220740
H3    H     H_    0.157265 0.171260 0.522797 0.229054
C30   C     C_3   0.865772 0.747138 0.441085 -0.715456
H4    H     H_    0.781465 0.717783 0.408248 0.273395
H5    H     H_    0.842686 0.828731 0.477232 0.229104
H6    H     H_    0.926624 0.791461 0.404580 0.220720
C31   C     C_3   0.899698 0.230063 0.471238 -0.754798
H7    H     H_    0.803378 0.230558 0.447485 0.297680
H8    H     H_    0.956662 0.195961 0.430347 0.229416
H9    H     H_    0.913224 0.149844 0.512957 0.204195
C32   C     C_3   0.100320 0.769963 0.528717 -0.754617
H10   H     H_    0.196617 0.769449 0.552510 0.297672
H11   H     H_    0.086875 0.850126 0.486970 0.204167
H12   H     H_    0.043313 0.804156 0.569572 0.229396
N7    N     N_R   0.502472 0.761173 0.281583 0.138995
O9    O     O_R   0.596819 0.805710 0.320810 -0.332948
O10   O     O_R   0.417656 0.851096 0.255272 -0.379268
N8    N     N_R   0.497396 0.238838 0.718415 0.139288
O11   O     O_R   0.402831 0.194608 0.679258 -0.332975
O12   O     O_R   0.582121 0.148674 0.744576 -0.379417
N9    N     N_R   0.418219 0.748392 0.702278 0.152445
O13   O     O_R   0.307454 0.754202 0.669676 -0.374258
O14   O     O_R   0.480961 0.861230 0.707745 -0.327560
N10   N     N_R   0.581606 0.251504 0.297720 0.152460
O15   O     O_R   0.692309 0.245375 0.330396 -0.374233
O16   O     O_R   0.518668 0.138821 0.292126 -0.327706
C33   C     C_3   0.522120 0.759395 0.136895 -0.683904
H13   H     H_    0.561252 0.744758 0.087225 0.206810
H14   H     H_    0.427768 0.807283 0.125686 0.253136
H15   H     H_    0.583650 0.833238 0.165808 0.259976
C34   C     C_3   0.478752 0.240678 0.863197 -0.683916
H16   H     H_    0.440672 0.255302 0.913147 0.206815
H17   H     H_    0.416502 0.167203 0.834540 0.259658
H18   H     H_    0.572992 0.192347 0.873880 0.253323
C35   C     C_3   0.454279 0.769961 0.848772 -0.692555
H19   H     H_    0.458017 0.763695 0.905716 0.211973
H20   H     H_    0.531807 0.835576 0.836982 0.257667
H21   H     H_    0.365118 0.823243 0.828948 0.258399
C36   C     C_3   0.546202 0.230153 0.151207 -0.692625
H22   H     H_    0.542787 0.236491 0.094275 0.211987
H23   H     H_    0.635237 0.176727 0.171154 0.258350
H24   H     H_    0.468508 0.164635 0.162836 0.257658
C37   C     C_3   0.319579 0.156676 0.404968 -0.709302
H25   H     H_    0.323252 0.269077 0.401993 0.264848
H26   H     H_    0.328757 0.125511 0.351472 0.245179
H27   H     H_    0.225172 0.132719 0.416888 0.173273
C38   C     C_3   0.680380 0.843328 0.595057 -0.709458
H28   H     H_    0.676754 0.730921 0.598004 0.264835
H29   H     H_    0.774803 0.867340 0.583181 0.173303
H30   H     H_    0.671104 0.874446 0.648551 0.245183
C39   C     C_3   0.681088 0.137567 0.592806 -0.693779
H31   H     H_    0.674177 0.249964 0.595691 0.270470
H32   H     H_    0.677101 0.099615 0.645950 0.260511
H33   H     H_    0.774049 0.109221 0.579503 0.170623
C40   C     C_3   0.318964 0.862439 0.407162 -0.693671
H34   H     H_    0.325814 0.750034 0.404315 0.270466
H35   H     H_    0.225971 0.890872 0.420389 0.170546
H36   H     H_    0.323106 0.900327 0.354022 0.260711

loop_
_geom_bond_atom_site_label_1
_geom_bond_atom_site_label_2
_geom_bond_distance
_ccdc_geom_bond_type
C40   H34   1.084342 S    
C33   H14   1.110254 S    
C33   H13   1.109232 S    
O3    C2    1.310865 A    
C39   H33   1.099733 S    
C39   H31   1.084349 S    
N3    N5    1.330503 A    
C11   N2    1.382688 A    
C11   C37   1.524687 S    
C29   H1    1.107363 S    
O5    C3    1.314586 A    
C2    C9    1.484677 S    
C38   H28   1.083392 S    
O1    C1    1.305432 A    
Cu1   N1    2.033074 S    
Cu2   N2    2.033075 S    
C32   H11   1.103179 S    
C19   C33   1.521318 S    
C17   C26   1.424821 A    
C19   C23   1.408739 A    
N7    O10   1.300722 A    
C14   C40   1.514154 S    
C29   H2    1.110559 S    
C3    C25   1.510141 S    
C16   N8    1.434550 S    
O7    Cu1   1.952363 S    
C39   H32   1.096151 S    
C20   C34   1.521380 S    
N4    C27   1.356408 A    
C30   H5    1.107181 S    
N10   O15   1.298929 A    
C37   H26   1.104925 S    
O3    Cu1   1.968341 S    
C34   H16   1.108860 S    
C15   C25   1.425949 A    
C31   H9    1.103199 S    
N4    N6    1.330481 A    
C40   H35   1.099747 S    
Cu1   Cu2   2.705380 S    
C4    C26   1.510084 S    
N5    C27   1.356796 A    
O2    C2    1.305448 A    
N6    C28   1.356770 A    
C35   H20   1.109729 S    
C35   H19   1.106015 S    
C31   H8    1.110906 S    
C15   C19   1.414219 A    
C5    C10   1.412880 A    
C14   N1    1.378198 A    
C20   C24   1.408853 A    
C36   H23   1.110477 S    
C17   C21   1.412444 A    
N9    O13   1.298950 A    
C18   C22   1.412516 A    
C34   H17   1.110667 S    
C6    C30   1.517078 S    
O8    Cu2   1.952366 S    
C1    C10   1.484682 S    
C16   C26   1.425908 A    
C32   H12   1.110906 S    
C12   C38   1.524676 S    
C29   H3    1.107168 S    
C36   H22   1.106076 S    
N9    O14   1.299715 A    
N8    O12   1.300680 A    
C12   N1    1.382692 A    
C8    C32   1.515907 S    
O6    C4    1.314572 A    
C30   H6    1.110556 S    
C21   C24   1.410316 A    
C15   N7    1.434505 S    
C37   H27   1.107896 S    
C13   C39   1.514180 S    
C13   N2    1.378200 A    
C38   H30   1.104953 S    
C33   H15   1.110822 S    
O1    Cu1   1.981008 S    
C5    C29   1.517051 S    
C7    C31   1.515899 S    
C35   H21   1.110431 S    
C36   H24   1.109760 S    
C5    C7    1.401359 A    
O6    Cu2   1.961494 S    
C23   C28   1.469004 S    
C18   N10   1.434528 S    
C24   C27   1.468998 S    
O4    C1    1.310881 A    
C31   H7    1.098642 S    
N3    C28   1.356423 A    
C40   H36   1.096132 S    
C21   C35   1.518893 S    
N8    O11   1.300559 A    
C22   C23   1.410265 A    
C34   H18   1.109977 S    
C32   H10   1.098662 S    
C38   H29   1.107914 S    
C18   C25   1.424928 A    
C6    C9    1.412899 A    
C22   C36   1.518913 S    
C7    C9    1.417847 A    
C8    C10   1.417863 A    
O4    Cu2   1.968342 S    
N7    O9    1.300585 A    
O2    Cu2   1.981007 S    
O7    C4    1.313099 A    
C17   N9    1.434531 S    
O8    C3    1.313105 A    
O5    Cu1   1.961498 S    
C6    C8    1.401390 A    
C30   H4    1.107397 S    
C11   C14   1.430421 A    
C12   C13   1.430427 A    
N10   O16   1.299712 A    
C37   H25   1.083396 S    
C16   C20   1.414293 A    
