data_mof_unit_24761.cif
_audit_creation_date              2012-10-26T17:12:27-0400
_audit_creation_method            fapswitch 2.2
_symmetry_space_group_name_H-M    P1
_symmetry_Int_Tables_number       1
_space_group_crystal_system       triclinic
_cell_length_a                    16.878375
_cell_length_b                    16.907405
_cell_length_c                    16.81773
_cell_angle_alpha                 67.534912
_cell_angle_beta                  67.533867
_cell_angle_gamma                 67.468
_cell_volume                      3937.22728342

loop_
_atom_site_label
_atom_site_type_symbol
_atom_type_description
_atom_site_fract_x
_atom_site_fract_y
_atom_site_fract_z
_atom_type_partial_charge
C1    C     C_R   0.026132 0.828804 0.565288 0.562242
C2    C     C_R   0.015335 0.569156 0.831153 0.563647
C3    C     C_R   0.168148 0.986478 0.430241 0.551809
C4    C     C_R   0.828475 0.026896 0.565083 0.560999
C5    C     C_R   0.450411 0.078587 0.703746 -0.119952
C6    C     C_R   0.539098 0.952761 0.294665 -0.113115
C7    C     C_R   0.049281 0.709869 0.456458 -0.111775
C8    C     C_R   0.016321 0.274090 0.521791 -0.118658
C9    C     C_R   0.708730 0.455678 0.056149 -0.117503
C10   C     C_R   0.269010 0.513009 0.032407 -0.113652
C11   C     C_R   0.257317 0.062189 0.497498 -0.115579
C12   C     C_R   0.982465 0.169658 0.431646 0.547634
C13   C     C_R   0.709661 0.060565 0.451772 -0.115619
C14   C     C_R   0.543938 0.290751 0.946847 -0.111827
C15   C     C_R   0.483534 0.728975 0.973735 -0.114825
C16   C     C_R   0.938871 0.545454 0.292103 -0.116952
C17   C     C_R   0.958751 0.492274 0.734047 -0.114283
C18   C     C_R   0.535894 0.048203 0.535239 0.035283
C19   C     C_R   0.443059 0.022213 0.442224 0.034725
C20   C     C_R   0.996877 0.554284 0.548751 0.036076
C21   C     C_R   0.981337 0.457717 0.453793 0.036159
C22   C     C_R   0.549149 0.544944 0.010240 0.036299
C23   C     C_R   0.828784 0.565195 0.026417 0.545538
C24   C     C_R   0.453521 0.448901 0.995060 0.036262
C25   C     C_R   0.579920 0.032945 0.450058 0.012843
C26   C     C_R   0.395251 0.052671 0.519957 0.013954
C27   C     C_R   0.982864 0.469375 0.592650 0.012374
C28   C     C_R   0.980039 0.548132 0.413853 0.011753
C29   C     C_R   0.462328 0.586851 0.000256 0.012375
C30   C     C_R   0.544606 0.410476 0.992112 0.012071
C31   C     C_R   0.536049 0.010342 0.408491 0.012572
C32   C     C_R   0.442868 0.059357 0.570314 0.013468
C33   C     C_R   0.410825 0.534975 0.006587 0.012763
C34   C     C_R   0.169084 0.431099 0.984018 0.563359
C35   C     C_R   0.588183 0.454181 0.012530 0.011992
C36   C     C_R   0.989075 0.416911 0.541696 0.013224
C37   C     C_R   0.000727 0.591898 0.457163 0.011827
C38   C     C_R   0.401090 0.077772 0.654014 -0.140643
C39   C     C_R   0.583322 0.972009 0.336778 -0.140674
C40   C     C_R   0.029707 0.668872 0.411241 -0.143149
C41   C     C_R   0.009325 0.324363 0.573783 -0.148315
C42   C     C_R   0.666965 0.409644 0.038852 -0.146268
C43   C     C_R   0.317772 0.564649 0.028945 -0.145344
C44   C     C_R   0.301533 0.076457 0.543413 -0.139785
C45   C     C_R   0.564585 0.028245 0.828213 0.545657
C46   C     C_R   0.665009 0.045764 0.406962 -0.144211
C47   C     C_R   0.589649 0.332332 0.964874 -0.142531
C48   C     C_R   0.431693 0.679648 0.978710 -0.146892
C49   C     C_R   0.955032 0.592082 0.334170 -0.145920
C50   C     C_R   0.959527 0.441080 0.686098 -0.145909
C51   C     C_R   0.544386 0.058304 0.674009 0.007739
C52   C     C_R   0.445275 0.975292 0.319018 0.010306
C53   C     C_R   0.030421 0.682130 0.550948 0.009876
C54   C     C_R   0.990562 0.314246 0.441121 0.010513
C55   C     C_R   0.680143 0.549773 0.036733 0.008307
C56   C     C_R   0.434536 0.974310 0.171450 0.559266
C57   C     C_R   0.311245 0.436061 0.001045 0.008506
C58   C     C_R   0.304219 0.019092 0.428953 0.009127
C59   C     C_R   0.676643 0.051254 0.544897 0.008971
C60   C     C_R   0.449703 0.319007 0.966012 0.010228
C61   C     C_R   0.561938 0.687599 0.002979 0.008778
C62   C     C_R   0.958718 0.451348 0.321191 0.007749
C63   C     C_R   0.993261 0.566962 0.690465 0.007247
C64   C     C_R   0.598270 0.045250 0.728743 -0.028148
C65   C     C_R   0.397250 0.969318 0.268466 -0.029475
C66   C     C_R   0.032958 0.732187 0.601445 -0.027376
C67   C     C_R   0.434714 0.171179 0.973823 0.552535
C68   C     C_R   0.980683 0.265311 0.393851 -0.025230
C69   C     C_R   0.731484 0.601017 0.035194 -0.027386
C70   C     C_R   0.263934 0.391658 0.985341 -0.025236
C71   C     C_R   0.261121 0.992235 0.389166 -0.023733
C72   C     C_R   0.729656 0.042681 0.598545 -0.026778
C73   C     C_R   0.398752 0.268173 0.965947 -0.027202
C74   C     C_R   0.607495 0.735541 0.016400 -0.025184
C75   C     C_R   0.962818 0.399480 0.269080 -0.027547
C76   C     C_R   0.012513 0.609532 0.736770 -0.025241
C77   C     C_R   0.689286 0.039083 0.689234 -0.167443
C78   C     C_R   0.568716 0.830710 0.016524 0.557241
C79   C     C_R   0.307474 0.971597 0.307702 -0.166907
C80   C     C_R   0.029336 0.692598 0.691996 -0.166095
C81   C     C_R   0.968994 0.308715 0.308133 -0.169597
C82   C     C_R   0.692213 0.691599 0.030000 -0.169674
C83   C     C_R   0.308191 0.307588 0.970527 -0.167560
C84   C     C_R   0.585775 0.052315 0.585027 0.035723
C85   C     C_R   0.397554 0.005011 0.397016 0.035512
C86   C     C_R   0.007309 0.601118 0.596724 0.034328
C87   C     C_R   0.976074 0.407706 0.405539 0.033887
C88   C     C_R   0.596962 0.594146 0.017329 0.033855
C89   C     C_R   0.973119 0.435000 0.171319 0.546808
C90   C     C_R   0.404799 0.401394 0.986780 0.034446
Cu1   Cu    Cu3+1 0.995180 0.995180 0.424630 0.902763
Cu2   Cu    Cu3+1 0.004820 0.004820 0.575370 0.906679
Cu3   Cu    Cu3+1 0.995180 0.424630 0.995180 0.899065
Cu4   Cu    Cu3+1 0.004820 0.575370 0.004820 0.901859
Cu5   Cu    Cu3+1 0.424630 0.995180 0.995180 0.902247
Cu6   Cu    Cu3+1 0.575370 0.004820 0.004820 0.907138
H1    H     H_    0.412228 0.098618 0.764246 0.150687
H2    H     H_    0.461337 0.799130 0.942881 0.159474
H3    H     H_    0.909122 0.585331 0.237781 0.149486
H4    H     H_    0.928122 0.472649 0.804992 0.157493
H5    H     H_    0.330120 0.089685 0.684290 0.102611
H6    H     H_    0.655461 0.952757 0.314732 0.105867
H7    H     H_    0.042964 0.694768 0.339232 0.105165
H8    H     H_    0.026987 0.289616 0.636308 0.104019
H9    H     H_    0.694008 0.338100 0.051545 0.105835
H10   H     H_    0.281784 0.625065 0.049902 0.107508
H11   H     H_    0.260237 0.109078 0.595410 0.100007
H12   H     H_    0.580282 0.916957 0.245110 0.145713
H13   H     H_    0.696052 0.049390 0.336712 0.104357
H14   H     H_    0.661365 0.305732 0.951932 0.104894
H15   H     H_    0.370429 0.715113 0.959051 0.109306
H16   H     H_    0.942789 0.663534 0.306507 0.105495
H17   H     H_    0.936621 0.381944 0.722860 0.107517
H18   H     H_    0.730306 0.028284 0.730686 0.159626
H19   H     H_    0.272447 0.959808 0.272955 0.157477
H20   H     H_    0.036927 0.728345 0.728902 0.159970
H21   H     H_    0.967669 0.270415 0.269896 0.157981
H22   H     H_    0.729485 0.729284 0.033734 0.157449
H23   H     H_    0.081807 0.761601 0.415049 0.149948
H24   H     H_    0.270813 0.270944 0.965272 0.158223
H25   H     H_    0.046208 0.204260 0.546223 0.144253
H26   H     H_    0.762101 0.415218 0.086952 0.150076
H27   H     H_    0.198557 0.534104 0.063364 0.157810
H28   H     H_    0.185806 0.088848 0.515134 0.139789
H29   H     H_    0.768723 0.081420 0.410194 0.153811
H30   H     H_    0.584795 0.237951 0.915457 0.149331
O1    O     O_R   0.124540 0.978640 0.385460 -0.513982
O2    O     O_R   0.124540 0.385460 0.978640 -0.502992
O3    O     O_R   0.021360 0.875460 0.614540 -0.501772
O4    O     O_R   0.978640 0.124540 0.385460 -0.514491
O5    O     O_R   0.013780 0.867370 0.487190 -0.514308
O6    O     O_R   0.986220 0.132630 0.512810 -0.530147
O7    O     O_R   0.867370 0.487190 0.013780 -0.527299
O8    O     O_R   0.132630 0.512810 0.986220 -0.515772
O9    O     O_R   0.487190 0.013780 0.867370 -0.524170
O10   O     O_R   0.512810 0.986220 0.132630 -0.511689
O11   O     O_R   0.512810 0.132630 0.986220 -0.515508
O12   O     O_R   0.875460 0.021360 0.614540 -0.503605
O13   O     O_R   0.487190 0.867370 0.013780 -0.519964
O14   O     O_R   0.986220 0.512810 0.132630 -0.525558
O15   O     O_R   0.013780 0.487190 0.867370 -0.515586
O16   O     O_R   0.132630 0.986220 0.512810 -0.520092
O17   O     O_R   0.867370 0.013780 0.487190 -0.516628
O18   O     O_R   0.978640 0.385460 0.124540 -0.513318
O19   O     O_R   0.021360 0.614540 0.875460 -0.502557
O20   O     O_R   0.385460 0.124540 0.978640 -0.511309
O21   O     O_R   0.614540 0.875460 0.021360 -0.510891
O22   O     O_R   0.614540 0.021360 0.875460 -0.512246
O23   O     O_R   0.385460 0.978640 0.124540 -0.502299
O24   O     O_R   0.875460 0.614540 0.021360 -0.513403

loop_
_geom_bond_atom_site_label_1
_geom_bond_atom_site_label_2
_ccdc_geom_bond_type
C25   C31   A    
C21   C87   A    
C26   C32   A    
Cu3   Cu4   S    
C65   C79   A    
C22   C29   A    
C79   H19   S    
C45   O22   A    
Cu4   O14   S    
C64   C77   A    
C23   C69   S    
Cu5   Cu6   S    
C3    O16   A    
Cu3   O15   S    
Cu2   O12   S    
C78   O13   A    
C4    O17   A    
C71   C79   A    
C26   C44   A    
C66   C80   A    
Cu6   O10   S    
C21   C36   A    
C2    O19   A    
C22   C35   A    
C12   C68   S    
C9    C42   A    
Cu1   O1    S    
C30   C35   A    
C68   C81   A    
C52   C85   A    
Cu2   O6    S    
C37   C40   A    
C1    O3    A    
C54   C87   A    
C3    O1    A    
C8    H25   S    
Cu1   O5    S    
C63   C76   A    
C34   O8    A    
C56   C65   S    
C81   H21   S    
C60   C73   A    
Cu5   O20   S    
C55   C88   A    
C35   C42   A    
C19   C26   A    
C69   C82   A    
C14   C47   A    
C11   H28   S    
C29   C33   A    
C20   C86   A    
C18   C84   A    
C7    C40   A    
C53   C86   A    
C67   C73   S    
C32   C38   A    
C57   C70   A    
C11   C58   A    
Cu2   O16   S    
C34   C70   S    
C27   C50   A    
C59   C72   A    
C13   H29   S    
Cu4   O19   S    
C17   H4    S    
C19   C31   A    
C5    C38   A    
C36   C41   A    
C18   C25   A    
C16   C62   A    
C15   C48   A    
C74   C82   A    
C67   O11   A    
C56   O10   A    
C24   C33   A    
C9    H26   S    
Cu1   O17   S    
Cu6   O22   S    
C45   O9    A    
C57   C90   A    
C23   O7    A    
C29   C48   A    
C33   C43   A    
C7    H23   S    
C30   C47   A    
C10   C57   A    
C16   C49   A    
C10   H27   S    
C8    C54   A    
Cu1   Cu2   S    
Cu1   O4    S    
C75   C81   A    
C1    O5    A    
C43   H10   S    
C83   H24   S    
C3    C71   S    
C72   C77   A    
C70   C83   A    
C61   C88   A    
C28   C49   A    
C89   O14   A    
C67   O20   A    
Cu5   O9    S    
C1    C66   S    
C15   C61   A    
C11   C44   A    
C8    C41   A    
C53   C66   A    
C55   C69   A    
Cu3   O18   S    
C12   O4    A    
C78   O21   A    
C49   H16   S    
C9    C55   A    
Cu5   O13   S    
C21   C28   A    
C5    H1    S    
C22   C88   A    
C63   C86   A    
C61   C74   A    
C62   C75   A    
C18   C32   A    
C7    C53   A    
C15   H2    S    
C77   H18   S    
C47   H14   S    
C58   C85   A    
C4    C72   S    
C2    C76   S    
C39   H6    S    
C44   H11   S    
Cu6   O21   S    
C6    H12   S    
C12   O6    A    
C10   C43   A    
C23   O24   A    
Cu6   O11   S    
C80   H20   S    
C51   C64   A    
C76   C80   A    
C19   C85   A    
C24   C90   A    
C17   C50   A    
C16   H3    S    
Cu5   O23   S    
C13   C59   A    
C20   C27   A    
C60   C90   A    
C27   C36   A    
C38   H5    S    
C89   O18   A    
C14   C60   A    
C62   C87   A    
C45   C64   S    
Cu3   O7    S    
C59   C84   A    
C14   H30   S    
C41   H8    S    
C50   H17   S    
Cu2   O3    S    
Cu3   O2    S    
C17   C63   A    
C40   H7    S    
C20   C37   A    
C13   C46   A    
C28   C37   A    
C51   C84   A    
Cu4   O8    S    
C31   C39   A    
C58   C71   A    
C42   H9    S    
C24   C30   A    
C75   C89   S    
C4    O12   A    
Cu4   O24   S    
C48   H15   S    
C54   C68   A    
C34   O2    A    
C74   C78   S    
C46   H13   S    
C2    O15   A    
C82   H22   S    
C6    C39   A    
C5    C51   A    
C6    C52   A    
C56   O23   A    
C25   C46   A    
C73   C83   A    
C52   C65   A    
