data_mof_unit_68278.cif
_audit_creation_date              2012-12-11T17:07:28-0500
_audit_creation_method            fapswitch 2.2
_symmetry_space_group_name_H-M    P1
_symmetry_Int_Tables_number       1
_space_group_crystal_system       triclinic
_cell_length_a                    6.996334
_cell_length_b                    14.269743
_cell_length_c                    16.53202
_cell_angle_alpha                 89.774129
_cell_angle_beta                  90.259409
_cell_angle_gamma                 90.252514
_cell_volume                      1650.44325816

loop_
_atom_site_label
_atom_site_type_symbol
_atom_type_description
_atom_site_fract_x
_atom_site_fract_y
_atom_site_fract_z
_atom_type_partial_charge
O1    O     O_R   0.505720 0.583900 0.413310 -0.537847
O2    O     O_R   0.175940 0.594920 0.586080 -0.542265
O3    O     O_R   0.005640 0.416100 0.586690 -0.538756
C1    C     C_R   0.345552 0.618322 0.613882 0.687904
O4    O     O_R   0.176000 0.594930 0.413930 -0.541667
O5    O     O_R   0.005700 0.416110 0.413310 -0.549075
C2    C     C_R   0.343713 0.615109 0.384094 0.692326
O6    O     O_R   0.505660 0.583890 0.586690 -0.538918
O7    O     O_3   0.339200 0.441330 0.500000 -0.384665
V1    V     V_3+5 0.064350 0.510880 0.500000 1.371140
O8    O     O_R   0.675980 0.405080 0.413920 -0.535199
C3    C     C_R   0.844135 0.384640 0.384096 0.697182
O9    O     O_R   0.675920 0.405070 0.586070 -0.542482
C4    C     C_R   0.842773 0.383199 0.615296 0.708693
V2    V     V_3+5 0.564340 0.489120 0.500000 1.385075
O10   O     O_3   0.839360 0.558670 0.500000 -0.371922
C5    C     C_R   0.575234 0.395500 0.756205 -0.165142
C6    C     C_R   0.449069 0.401756 0.820833 -0.124054
C7    C     C_R   0.471263 0.344386 0.887965 -0.120273
C8    C     C_R   0.618827 0.279461 0.890730 -0.146287
C9    C     C_R   0.742664 0.267359 0.824132 0.062311
C10   C     C_R   0.723054 0.328046 0.755191 0.069821
C11   C     C_R   0.888272 0.198177 0.826217 -0.207868
C12   C     C_R   0.015872 0.193242 0.760028 0.083687
C13   C     C_R   0.966221 0.237699 0.686319 0.056205
C14   C     C_R   0.844637 0.316432 0.686435 -0.198114
C15   C     C_R   0.172779 0.131387 0.758859 -0.160502
C16   C     C_R   0.211488 0.082858 0.689056 -0.213394
C17   C     C_R   0.107872 0.103413 0.619243 0.082791
C18   C     C_R   0.009599 0.189493 0.614385 -0.218921
H1    H     H_    0.550367 0.443676 0.707336 0.132471
H2    H     H_    0.333827 0.452044 0.818959 0.107924
H3    H     H_    0.374874 0.351036 0.938656 0.098098
H4    H     H_    0.635680 0.240190 0.946278 0.115392
H5    H     H_    0.256482 0.113069 0.811222 0.160067
H6    H     H_    0.307092 0.023305 0.691540 0.125761
H7    H     H_    0.947162 0.211858 0.557564 0.113060
C19   C     C_R   0.725433 0.192665 0.231370 0.047393
C20   C     C_R   0.882357 0.188084 0.179886 -0.117802
C21   C     C_R   0.031950 0.252659 0.196946 -0.177334
H8    H     H_    0.157958 0.254392 0.159248 0.119763
C22   C     C_R   0.018818 0.317080 0.262590 -0.180623
H9    H     H_    0.135428 0.365718 0.272809 0.121494
C23   C     C_R   0.855269 0.320028 0.313144 -0.118647
C24   C     C_R   0.709949 0.257290 0.291929 0.061934
C25   C     C_3   0.515348 0.224769 0.314892 -0.209866
C26   C     C_3   0.534543 0.148381 0.247604 -0.200467
H10   H     H_    0.409637 0.278976 0.297474 0.113108
H11   H     H_    0.433223 0.159002 0.196514 0.129895
C27   C     C_R   0.532559 0.714842 0.716109 0.070944
C28   C     C_R   0.358719 0.692034 0.678272 -0.103338
C29   C     C_R   0.198756 0.744946 0.702341 -0.182227
H12   H     H_    0.063653 0.734914 0.672361 0.122982
C30   C     C_R   0.209919 0.809688 0.767088 -0.202214
H13   H     H_    0.083168 0.847869 0.783864 0.124919
C31   C     C_R   0.381002 0.822817 0.811255 -0.089757
C32   C     C_R   0.542666 0.776924 0.781215 0.103860
C33   C     C_3   0.694460 0.719882 0.822115 -0.059978
C34   C     C_3   0.683352 0.652795 0.750575 -0.432940
H14   H     H_    0.832807 0.757738 0.824909 0.114812
H15   H     H_    0.629078 0.582232 0.765993 0.178141
H16   H     H_    0.813438 0.652039 0.712877 0.152574
C35   C     C_R   0.493744 0.671981 0.254025 0.078779
C36   C     C_R   0.347217 0.675740 0.310527 -0.107425
C37   C     C_R   0.197194 0.737649 0.291178 -0.177017
H17   H     H_    0.076290 0.742667 0.330898 0.114046
C38   C     C_R   0.211298 0.800473 0.224683 -0.169582
H18   H     H_    0.102047 0.852964 0.216978 0.119859
C39   C     C_R   0.371957 0.800995 0.172665 -0.100126
C40   C     C_R   0.499528 0.725116 0.183672 0.057799
C41   C     C_3   0.709525 0.702377 0.174176 -0.171947
C42   C     C_3   0.700050 0.651064 0.256279 -0.406000
H19   H     H_    0.802809 0.765366 0.173659 0.130984
H20   H     H_    0.772988 0.688885 0.306028 0.151301
H21   H     H_    0.727944 0.574350 0.255749 0.169823
O11   O     O_R   0.229140 0.916090 0.913340 -0.541724
O12   O     O_R   0.558860 0.905090 0.086080 -0.537407
O13   O     O_R   0.729100 0.083920 0.086690 -0.537686
C43   C     C_R   0.389270 0.877292 0.110239 0.704482
O14   O     O_R   0.558860 0.905090 0.913930 -0.543061
O15   O     O_R   0.729100 0.083920 0.913310 -0.538572
C44   C     C_R   0.390124 0.884888 0.884017 0.683627
O16   O     O_R   0.229140 0.916080 0.086720 -0.541250
O17   O     O_3   0.395570 0.058660 0.000020 -0.374794
V3    V     V_3+5 0.670450 0.989140 0.000000 1.388573
O18   O     O_R   0.058810 0.094980 0.913910 -0.548050
C45   C     C_R   0.891030 0.122335 0.889703 0.699584
O19   O     O_R   0.058810 0.094980 0.086060 -0.543337
C46   C     C_R   0.890542 0.119843 0.112125 0.670821
V4    V     V_3+5 0.170450 0.010950 0.999970 1.377914
O20   O     O_3   0.895460 0.941370 0.999990 -0.372512
C47   C     C_R   0.067715 0.026425 0.562998 0.107862
C48   C     C_R   0.010187 0.939009 0.595009 -0.146300
C49   C     C_R   0.950045 0.867176 0.544173 -0.122063
C50   C     C_R   0.946222 0.881806 0.461330 -0.088042
C51   C     C_R   0.994546 0.969518 0.429323 -0.154117
C52   C     C_R   0.058399 0.041392 0.479658 -0.159404
H22   H     H_    0.003749 0.927815 0.659617 0.112261
H23   H     H_    0.902761 0.800718 0.568595 0.108133
H24   H     H_    0.905609 0.824624 0.422609 0.093103
H25   H     H_    0.991683 0.981053 0.364992 0.115754
H26   H     H_    0.095004 0.108873 0.453903 0.111652
C53   C     C_R   0.505851 0.198931 0.403849 0.107880
C54   C     C_R   0.629655 0.133865 0.440113 -0.108575
C55   C     C_R   0.623876 0.118043 0.523416 -0.154022
C56   C     C_R   0.518653 0.177027 0.572539 -0.135511
C57   C     C_R   0.397318 0.242726 0.537510 -0.047502
C58   C     C_R   0.381793 0.249195 0.453412 -0.118755
H27   H     H_    0.729345 0.095640 0.403889 0.137897
H28   H     H_    0.706863 0.063127 0.550767 0.151168
H29   H     H_    0.529432 0.170967 0.637620 0.135918
H30   H     H_    0.314075 0.287872 0.575846 0.141752
H31   H     H_    0.280307 0.296971 0.426653 0.128662
C59   C     C_R   0.540595 0.046849 0.275892 0.128415
C60   C     C_R   0.695662 0.987244 0.259786 -0.103575
C61   C     C_R   0.705197 0.898708 0.294810 -0.154810
C62   C     C_R   0.568130 0.870043 0.349877 -0.066971
C63   C     C_R   0.411783 0.926217 0.364351 -0.109108
C64   C     C_R   0.391897 0.012267 0.324202 -0.132788
H32   H     H_    0.816028 0.008883 0.224542 0.095925
H33   H     H_    0.827707 0.855380 0.284704 0.089115
H34   H     H_    0.583363 0.804429 0.382071 0.099929
H35   H     H_    0.310617 0.901506 0.407918 0.139523
H36   H     H_    0.270230 0.056282 0.335736 0.112847
C65   C     C_3   0.642209 0.674299 0.903864 -0.272654
C66   C     C_3   0.437072 0.636593 0.910825 -0.740897
H37   H     H_    0.342889 0.690187 0.938107 0.202262
H38   H     H_    0.375797 0.615530 0.851742 0.230549
H39   H     H_    0.436715 0.573870 0.950283 0.208550
H40   H     H_    0.742743 0.615484 0.913497 0.200608
H41   H     H_    0.668234 0.725624 0.953083 0.176192
C67   C     C_R   0.757253 0.631083 0.109417 0.142058
C68   C     C_R   0.635552 0.553885 0.093917 -0.134443
C69   C     C_R   0.699932 0.477753 0.048853 -0.126260
C70   C     C_R   0.884902 0.477841 0.017791 -0.091850
C71   C     C_R   0.005580 0.554308 0.031728 -0.154524
C72   C     C_R   0.942571 0.630655 0.077044 -0.140686
H42   H     H_    0.493658 0.550380 0.119576 0.109752
H43   H     H_    0.607247 0.417956 0.039406 0.106547
H44   H     H_    0.935063 0.418519 0.983351 0.106921
H45   H     H_    0.149429 0.553296 0.008973 0.112302
H46   H     H_    0.041232 0.687423 0.089780 0.113028

loop_
_geom_bond_atom_site_label_1
_geom_bond_atom_site_label_2
_ccdc_geom_bond_type
C26   C59   S    
C55   H28   S    
C48   C49   A    
C57   H30   S    
C7    C8    A    
C12   C15   A    
C1    O6    A    
C59   C60   A    
V3    O20   S    
C70   C71   A    
C26   H11   S    
C64   H36   S    
C61   C62   A    
C66   H37   S    
C22   C23   A    
C27   C34   S    
C9    C10   A    
C16   C17   A    
O5    C3    A    
C19   C20   A    
C56   C57   A    
C33   H14   S    
C60   C61   A    
C31   C32   A    
C6    C7    A    
C63   C64   A    
C19   C24   A    
O1    C2    A    
C41   C67   S    
C30   H13   S    
O8    V2    S    
C65   H40   S    
C50   C51   A    
C67   C68   A    
C37   C38   A    
C57   C58   A    
C53   C58   A    
O1    V2    S    
C17   C18   A    
O7    V1    S    
C52   H26   S    
C8    H4    S    
C21   C22   A    
O12   V3    S    
C68   H42   S    
C11   C45   S    
C51   H25   S    
C49   C50   A    
O17   V4    S    
C42   H21   S    
C54   C55   A    
C29   C30   A    
C47   C52   A    
C5    C6    A    
C25   H10   S    
C56   H29   S    
O12   C43   A    
O13   C46   A    
C70   H44   S    
C30   C31   A    
C35   C42   S    
C34   H15   S    
C72   H46   S    
C61   H33   S    
C1    C28   S    
C38   H18   S    
O17   V3    S    
C12   C13   A    
C42   H20   S    
O18   V4    S    
O11   C44   A    
C69   H43   S    
C41   H19   S    
O18   C45   A    
C66   H39   S    
C15   H5    S    
C13   C14   A    
C24   C25   S    
C28   C29   A    
C18   H7    S    
C38   C39   A    
C58   H31   S    
O2    C1    A    
C62   H34   S    
O14   V3    S    
C65   H41   S    
C35   C40   A    
C11   C12   A    
C51   C52   A    
C8    C9    A    
C27   C28   A    
C4    C14   S    
C19   C26   S    
O15   C45   A    
O3    C4    A    
O13   V3    S    
O14   C44   A    
C21   H8    S    
O19   V4    S    
C60   H32   S    
O6    V2    S    
C9    C11   A    
C7    H3    S    
C68   C69   A    
C5    H1    S    
C39   C43   S    
C6    H2    S    
C22   H9    S    
V4    O20   S    
O2    V1    S    
C20   C21   A    
C40   C41   S    
C29   H12   S    
O4    C2    A    
C55   C56   A    
C13   C18   A    
O16   V4    S    
C25   C26   S    
C34   H16   S    
C66   H38   S    
C50   H24   S    
C27   C32   A    
C23   C24   A    
C59   C64   A    
C71   C72   A    
O5    V1    S    
O8    C3    A    
C31   C44   S    
C69   C70   A    
C25   C53   S    
C5    C10   A    
C36   C37   A    
O9    V2    S    
C67   C72   A    
O4    V1    S    
C3    C23   S    
O3    V1    S    
V1    O10   S    
C62   C63   A    
C43   O16   A    
C32   C33   S    
C65   C66   S    
C49   H23   S    
C47   C48   A    
C71   H45   S    
C63   H35   S    
O7    V2    S    
C39   C40   A    
C33   C34   S    
C2    C36   S    
C35   C36   A    
C41   C42   S    
O19   C46   A    
C16   H6    S    
C33   C65   S    
C37   H17   S    
C10   C14   A    
C53   C54   A    
C54   H27   S    
O9    C4    A    
C48   H22   S    
C20   C46   S    
C17   C47   S    
O15   V3    S    
V2    O10   S    
O11   V4    S    
C15   C16   A    
