data_mof_unit_9811.cif
_audit_creation_date              2012-12-11T14:38:07-0500
_audit_creation_method            fapswitch 2.2
_symmetry_space_group_name_H-M    P1
_symmetry_Int_Tables_number       1
_space_group_crystal_system       triclinic
_cell_length_a                    19.4857
_cell_length_b                    11.134084
_cell_length_c                    19.61355
_cell_angle_alpha                 90.175802
_cell_angle_beta                  96.866998
_cell_angle_gamma                 90.040931
_cell_volume                      4224.71791592

loop_
_atom_site_label
_atom_site_type_symbol
_atom_type_description
_atom_site_fract_x
_atom_site_fract_y
_atom_site_fract_z
_atom_type_partial_charge
C1    C     C_R   0.724614 0.954434 0.360551 0.546920
C2    C     C_R   0.274485 0.951602 0.640249 0.539569
C3    C     C_R   0.224613 0.454434 0.360550 0.547071
C4    C     C_R   0.774485 0.451603 0.640248 0.539002
C5    C     C_3   0.681427 0.449749 0.457534 -0.235337
C6    C     C_3   0.331029 0.404481 0.535579 -0.239251
C7    C     C_3   0.181427 0.949747 0.457535 -0.235252
C8    C     C_3   0.831029 0.904480 0.535579 -0.239209
C9    C     C_3   0.824789 0.474570 0.533159 -0.207010
C10   C     C_3   0.183971 0.472540 0.473847 -0.221485
C11   C     C_3   0.324788 0.974569 0.533159 -0.206934
C12   C     C_3   0.683971 0.972540 0.473847 -0.221547
C13   C     C_3   0.761895 0.286292 0.554268 -0.264785
C14   C     C_3   0.235117 0.281795 0.437843 -0.253938
C15   C     C_3   0.261895 0.786291 0.554269 -0.264837
C16   C     C_3   0.735117 0.781795 0.437843 -0.253933
C17   C     C_3   0.761836 0.421543 0.567630 0.068682
C18   C     C_3   0.240326 0.418007 0.431687 0.065693
C19   C     C_3   0.261836 0.921542 0.567630 0.068492
C20   C     C_3   0.740326 0.918007 0.431687 0.065750
C21   C     C_3   0.747195 0.389785 0.435715 0.054433
C22   C     C_3   0.262812 0.360129 0.560462 0.053885
C23   C     C_3   0.247195 0.889785 0.435715 0.054426
C24   C     C_3   0.762812 0.860129 0.560461 0.054033
C25   C     C_3   0.810227 0.470686 0.454781 -0.258919
C26   C     C_3   0.208876 0.462981 0.550823 -0.232493
C27   C     C_3   0.310226 0.970686 0.454781 -0.258944
C28   C     C_3   0.708877 0.962982 0.550822 -0.232342
C29   C     C_3   0.761644 0.270192 0.476370 -0.219060
C30   C     C_3   0.234056 0.253885 0.514184 -0.250567
C31   C     C_3   0.261644 0.770191 0.476370 -0.218960
C32   C     C_3   0.734056 0.753885 0.514183 -0.250614
C33   C     C_3   0.423103 0.274740 0.974077 -0.239932
C34   C     C_3   0.446497 0.273458 0.051566 -0.233697
C35   C     C_3   0.055220 0.729808 0.953556 -0.247280
C36   C     C_3   0.072031 0.729738 0.031588 -0.219447
C37   C     C_3   0.442069 0.052135 0.968986 -0.231519
C38   C     C_3   0.563083 0.193742 0.027864 -0.230218
C39   C     C_3   0.927928 0.742217 0.969127 -0.219816
C40   C     C_3   0.002736 0.540114 0.040009 -0.236356
C41   C     C_3   0.539619 0.193188 0.950735 -0.222736
C42   C     C_3   0.466902 0.050547 0.047038 -0.238730
C43   C     C_3   0.985626 0.540451 0.961456 -0.233477
C44   C     C_3   0.944672 0.741070 0.047310 -0.248170
C45   C     C_R   0.536221 0.180432 0.338614 0.535348
C46   C     C_R   0.464116 0.180212 0.661608 0.537257
C47   C     C_R   0.036223 0.680432 0.338615 0.537445
C48   C     C_R   0.964117 0.680212 0.661608 0.530327
C49   C     C_3   0.460409 0.174826 0.937459 0.044880
C50   C     C_3   0.500907 0.172864 0.069105 0.056041
C51   C     C_3   0.983902 0.671985 0.934360 0.052269
C52   C     C_3   0.012435 0.671390 0.066668 0.056073
C53   C     C_1   0.757221 0.412781 0.900444 -0.012971
C54   C     C_1   0.236674 0.429739 0.094671 -0.015564
C55   C     C_1   0.257360 0.913296 0.900470 -0.018179
C56   C     C_1   0.737734 0.927226 0.095510 -0.011825
C57   C     C_1   0.735157 0.362408 0.026340 -0.052526
C58   C     C_1   0.250159 0.411754 0.964175 -0.056344
C59   C     C_1   0.236062 0.864664 0.026689 -0.054195
C60   C     C_1   0.752101 0.907273 0.965377 -0.052090
C61   C     C_1   0.745148 0.387257 0.957566 -0.046199
C62   C     C_1   0.244255 0.420202 0.034902 -0.053643
C63   C     C_1   0.245641 0.888629 0.957780 -0.050631
C64   C     C_1   0.745951 0.916312 0.035994 -0.050565
C65   C     C_1   0.728817 0.341306 0.085589 -0.020068
C66   C     C_1   0.255312 0.396628 0.904222 -0.020410
C67   C     C_1   0.229700 0.843545 0.085894 -0.023614
C68   C     C_1   0.756721 0.893084 0.905277 -0.015324
C69   C     C_R   0.738912 0.359869 0.362304 0.549048
C70   C     C_R   0.273440 0.318243 0.631966 0.552162
C71   C     C_R   0.238912 0.859869 0.362304 0.548976
C72   C     C_R   0.773440 0.818244 0.631966 0.550932
C73   C     C_R   0.722251 0.953915 0.163330 0.538697
C74   C     C_R   0.277167 0.952477 0.835970 0.535732
C75   C     C_R   0.222017 0.454484 0.163030 0.537159
C76   C     C_R   0.777223 0.452590 0.836071 0.542748
C77   C     C_R   0.529241 0.178848 0.142178 0.528392
C78   C     C_R   0.438347 0.182186 0.862899 0.550055
C79   C     C_R   0.032997 0.678772 0.140590 0.533539
C80   C     C_R   0.964858 0.679208 0.860272 0.542570
C81   C     C_R   0.722591 0.311710 0.155860 0.556136
C82   C     C_R   0.263520 0.359991 0.835737 0.546218
C83   C     C_R   0.222901 0.812647 0.155807 0.551824
C84   C     C_R   0.763907 0.858864 0.836208 0.552244
C85   C     C_1   0.485940 0.172411 0.594658 -0.032466
C86   C     C_1   0.515086 0.173064 0.405846 -0.027834
C87   C     C_1   0.985946 0.672411 0.594661 -0.031342
C88   C     C_1   0.015092 0.673065 0.405849 -0.028142
C89   C     C_1   0.504994 0.169652 0.465153 -0.069177
C90   C     C_1   0.496379 0.169297 0.535434 -0.071390
C91   C     C_1   0.005003 0.669652 0.465156 -0.069392
C92   C     C_1   0.996387 0.669296 0.535437 -0.071205
C93   C     C_3   0.689115 0.465185 0.535438 -0.239631
C94   C     C_3   0.315327 0.452821 0.462090 -0.236918
C95   C     C_3   0.189114 0.965184 0.535438 -0.239664
C96   C     C_3   0.815327 0.952821 0.462090 -0.236993
Cr1   Cr    Cr6+3 0.765780 0.160710 0.267420 1.011293
Cr2   Cr    Cr6+3 0.234220 0.160710 0.732580 1.008367
Cr3   Cr    Cr6+3 0.265780 0.660710 0.267420 1.010110
Cr4   Cr    Cr6+3 0.734220 0.660710 0.732580 1.015045
Cr5   Cr    Cr6+3 0.612200 0.009560 0.248850 1.011648
Cr6   Cr    Cr6+3 0.387800 0.009560 0.751150 1.010033
Cr7   Cr    Cr6+3 0.112200 0.509560 0.248850 1.011072
Cr8   Cr    Cr6+3 0.887800 0.509560 0.751150 1.010033
Cr9   Cr    Cr6+3 0.616030 0.323720 0.248510 1.012371
Cr10  Cr    Cr6+3 0.383970 0.323720 0.751490 1.009306
Cr11  Cr    Cr6+3 0.116030 0.823720 0.248510 1.012074
Cr12  Cr    Cr6+3 0.883970 0.823720 0.751490 1.012039
H1    H     H_    0.676871 0.556958 0.549758 0.131835
H2    H     H_    0.321919 0.550535 0.462665 0.125185
H3    H     H_    0.176871 0.056957 0.549758 0.131872
H4    H     H_    0.821920 0.050534 0.462665 0.125172
H5    H     H_    0.813677 0.237827 0.467572 0.133619
H6    H     H_    0.179386 0.238761 0.522797 0.129978
H7    H     H_    0.313678 0.737828 0.467572 0.133628
H8    H     H_    0.679385 0.738761 0.522797 0.129992
H9    H     H_    0.870937 0.416846 0.547693 0.141709
H10   H     H_    0.135688 0.418394 0.463287 0.136522
H11   H     H_    0.370936 0.916845 0.547693 0.141706
H12   H     H_    0.635688 0.918394 0.463287 0.136535
H13   H     H_    0.856518 0.435313 0.433099 0.132457
H14   H     H_    0.163403 0.446361 0.578808 0.146046
H15   H     H_    0.356517 0.935315 0.433099 0.132278
H16   H     H_    0.663403 0.946362 0.578807 0.146484
H17   H     H_    0.366388 0.259632 0.965058 0.114023
H18   H     H_    0.468240 0.363369 0.066823 0.150881
H19   H     H_    0.055701 0.823837 0.934418 0.141560
H20   H     H_    0.120872 0.679059 0.045776 0.107625
H21   H     H_    0.433817 0.364852 0.953275 0.148424
H22   H     H_    0.401174 0.258600 0.080106 0.120559
H23   H     H_    0.095434 0.678893 0.929746 0.119145
H24   H     H_    0.080982 0.824289 0.049043 0.147375
H25   H     H_    0.385264 0.037186 0.960393 0.123146
H26   H     H_    0.587857 0.281819 0.042127 0.133267
H27   H     H_    0.924833 0.837411 0.951790 0.149892
H28   H     H_    0.050838 0.487213 0.053793 0.150756
H29   H     H_    0.566528 0.119974 0.925726 0.133259
H30   H     H_    0.504592 0.976126 0.058384 0.145303
H31   H     H_    0.934549 0.496286 0.947573 0.149284
H32   H     H_    0.901693 0.698057 0.070941 0.119379
H33   H     H_    0.603002 0.122962 0.040155 0.118637
H34   H     H_    0.467041 0.976830 0.943867 0.149141
H35   H     H_    0.960417 0.495494 0.063865 0.128588
H36   H     H_    0.876072 0.701192 0.954511 0.118947
H37   H     H_    0.648311 0.411283 0.556459 0.117050
H38   H     H_    0.353610 0.415697 0.429810 0.122363
H39   H     H_    0.148310 0.911282 0.556460 0.116749
H40   H     H_    0.853610 0.915697 0.429810 0.122532
H41   H     H_    0.635198 0.392780 0.441806 0.148302
H42   H     H_    0.368438 0.328907 0.536499 0.124727
H43   H     H_    0.135198 0.892777 0.441807 0.148203
H44   H     H_    0.868438 0.828906 0.536499 0.125025
H45   H     H_    0.672519 0.538191 0.432065 0.116815
H46   H     H_    0.355328 0.477105 0.569372 0.138865
H47   H     H_    0.172518 0.038189 0.432066 0.116828
H48   H     H_    0.855328 0.977105 0.569372 0.138761
H49   H     H_    0.343950 0.063180 0.552806 0.105437
H50   H     H_    0.664305 0.061628 0.458711 0.102682
H51   H     H_    0.843951 0.563180 0.552805 0.105748
H52   H     H_    0.164305 0.561628 0.458712 0.102543
H53   H     H_    0.300624 0.060359 0.433223 0.109507
H54   H     H_    0.733162 0.047730 0.570660 0.121455
H55   H     H_    0.800625 0.560359 0.433223 0.109633
H56   H     H_    0.233162 0.547729 0.570661 0.121389
H57   H     H_    0.808262 0.242007 0.582004 0.128689
H58   H     H_    0.187594 0.244761 0.408041 0.134460
H59   H     H_    0.308262 0.742006 0.582004 0.128814
H60   H     H_    0.687593 0.744762 0.408041 0.134440
H61   H     H_    0.715409 0.244010 0.571810 0.109037
H62   H     H_    0.280322 0.241717 0.417237 0.110755
H63   H     H_    0.215408 0.744009 0.571810 0.108713
H64   H     H_    0.780322 0.741717 0.417237 0.110925
H65   H     H_    0.723369 0.205073 0.456097 0.121112
H66   H     H_    0.263164 0.173680 0.527041 0.116124
H67   H     H_    0.223371 0.705072 0.456097 0.121100
H68   H     H_    0.763164 0.673680 0.527040 0.116039
O1    O     O_R   0.783100 0.287550 0.345460 -0.527500
O2    O     O_R   0.216900 0.287550 0.654540 -0.526883
O3    O     O_R   0.283100 0.787550 0.345460 -0.527511
O4    O     O_R   0.716900 0.787550 0.654540 -0.527511
O5    O     O_R   0.554710 0.081900 0.170950 -0.506019
O6    O     O_R   0.445290 0.081900 0.829050 -0.502360
O7    O     O_R   0.054710 0.581900 0.170950 -0.508820
O8    O     O_R   0.945290 0.581900 0.829050 -0.506544
O9    O     O_R   0.545650 0.284910 0.163740 -0.530244
O10   O     O_R   0.454350 0.284910 0.836260 -0.519740
O11   O     O_R   0.045650 0.784910 0.163740 -0.530236
O12   O     O_R   0.954350 0.784910 0.836260 -0.523529
O13   O     O_R   0.677950 0.374280 0.185410 -0.487790
O14   O     O_R   0.322050 0.374280 0.814590 -0.506235
O15   O     O_R   0.177950 0.874280 0.185410 -0.490468
O16   O     O_R   0.822050 0.874280 0.814590 -0.495872
O17   O     O_3   0.664670 0.164660 0.254930 -0.275315
O18   O     O_3   0.335330 0.164660 0.745070 -0.287477
O19   O     O_3   0.164670 0.664660 0.254930 -0.275970
O20   O     O_3   0.835330 0.664660 0.745070 -0.272254
O21   O     O_R   0.760020 0.037400 0.337700 -0.513420
O22   O     O_R   0.239980 0.037400 0.662300 -0.523344
O23   O     O_R   0.260020 0.537400 0.337700 -0.513236
O24   O     O_R   0.739980 0.537400 0.662300 -0.524618
O25   O     O_R   0.666600 0.921990 0.332020 -0.523430
O26   O     O_R   0.333400 0.921990 0.667980 -0.523332
O27   O     O_R   0.166600 0.421990 0.332020 -0.523062
O28   O     O_R   0.833400 0.421990 0.667980 -0.523914
O29   O     O_R   0.557260 0.082670 0.312540 -0.495933
O30   O     O_R   0.442740 0.082670 0.687460 -0.494309
O31   O     O_R   0.057260 0.582670 0.312540 -0.494630
O32   O     O_R   0.942740 0.582670 0.687460 -0.498255
O33   O     O_R   0.548410 0.285740 0.316480 -0.515235
O34   O     O_R   0.451590 0.285740 0.683520 -0.514071
O35   O     O_R   0.048410 0.785740 0.316480 -0.513991
O36   O     O_R   0.951590 0.785740 0.683520 -0.517326
O37   O     O_R   0.680500 0.375040 0.327000 -0.501095
O38   O     O_R   0.319500 0.375040 0.673000 -0.501876
O39   O     O_R   0.180500 0.875040 0.327000 -0.500894
O40   O     O_R   0.819500 0.875040 0.673000 -0.502240
O41   O     O_R   0.780350 0.286720 0.192720 -0.501607
O42   O     O_R   0.219650 0.286720 0.807280 -0.502381
O43   O     O_R   0.280350 0.786720 0.192720 -0.501380
O44   O     O_R   0.719650 0.786720 0.807280 -0.501827
O45   O     O_R   0.757470 0.036630 0.196110 -0.510993
O46   O     O_R   0.242530 0.036630 0.803890 -0.495716
O47   O     O_R   0.257470 0.536630 0.196110 -0.510224
O48   O     O_R   0.742530 0.536630 0.803890 -0.493812
O49   O     O_R   0.663840 0.921160 0.179280 -0.506586
O50   O     O_R   0.336160 0.921160 0.820720 -0.516303
O51   O     O_R   0.163840 0.421160 0.179280 -0.509830
O52   O     O_R   0.836160 0.421160 0.820720 -0.512860
H69   H     H_    0.422348 0.033188 0.076226 0.125629
H70   H     H_    0.555033 0.279706 0.928632 0.148779
H71   H     H_    0.949527 0.835223 0.066571 0.143767
H72   H     H_    0.025024 0.487300 0.937770 0.130482

loop_
_geom_bond_atom_site_label_1
_geom_bond_atom_site_label_2
_ccdc_geom_bond_type
C94   H38   S    
C39   C51   S    
C29   H65   S    
C58   C62   S    
C8    C24   S    
Cr4   O44   S    
C47   O35   A    
C76   O52   A    
C77   O9    A    
C14   C18   S    
C35   C36   S    
C8    C96   S    
C14   H62   S    
C11   H11   S    
Cr11  O19   S    
C9    C25   S    
Cr10  O18   S    
C31   H67   S    
C93   H1    S    
C76   O48   A    
C67   C83   S    
C40   H28   S    
C11   C19   S    
C79   O11   A    
C48   O32   A    
C12   C28   S    
C11   H49   S    
Cr7   O7    S    
Cr8   O28   S    
C13   C29   S    
C8    H44   S    
C44   H71   S    
C10   C18   S    
C73   O45   A    
C36   H24   S    
C16   H60   S    
C7    C23   S    
C4    O28   A    
Cr11  O35   S    
C9    H51   S    
Cr7   O51   S    
C6    C22   S    
Cr3   O19   S    
Cr6   O50   S    
C86   C89   T    
C5    H41   S    
C49   C78   S    
Cr2   O18   S    
C3    C18   S    
Cr5   O49   S    
C95   H3    S    
Cr1   O17   S    
C37   C42   S    
C51   C80   S    
C21   C25   S    
C84   O44   A    
C69   O1    A    
C43   C51   S    
C12   H12   S    
C55   C74   S    
Cr1   O1    S    
C58   C66   T    
C40   C43   S    
C48   O36   A    
Cr1   O45   S    
C6    C94   S    
C55   C63   T    
C77   O5    A    
C56   C64   T    
C93   H37   S    
C78   O10   A    
Cr8   O32   S    
C23   C27   S    
Cr2   O2    S    
C52   C79   S    
C22   C30   S    
C75   O47   A    
C41   H29   S    
C36   C52   S    
C16   C20   S    
C46   C85   S    
C59   C67   T    
C44   C52   S    
C7    H47   S    
C13   H61   S    
C20   C96   S    
C1    O25   A    
C44   H32   S    
Cr3   O23   S    
C87   C92   T    
C82   O14   A    
C39   H36   S    
C15   H59   S    
Cr12  O20   S    
C36   H20   S    
Cr7   O19   S    
C14   C30   S    
Cr10  O38   S    
Cr6   O18   S    
C31   H7    S    
C22   C70   S    
Cr12  O36   S    
Cr5   O17   S    
Cr8   O52   S    
Cr4   O20   S    
C80   O12   A    
C96   H40   S    
Cr3   O47   S    
C34   C50   S    
Cr9   O37   S    
C37   H34   S    
Cr2   O22   S    
C28   H54   S    
C68   C84   S    
Cr1   O21   S    
C95   H39   S    
Cr10  O10   S    
C38   C41   S    
C57   C65   T    
C91   C92   S    
C33   H21   S    
C27   H15   S    
C43   H72   S    
C70   O2    A    
C39   H27   S    
C54   C62   T    
C46   O34   A    
C21   C29   S    
C15   C31   S    
C94   H2    S    
C45   O33   A    
C21   C69   S    
C78   O6    A    
Cr6   O6    S    
C15   C19   S    
C24   C32   S    
Cr3   O3    S    
C10   H10   S    
C23   C71   S    
C66   C82   S    
C32   H68   S    
C16   H64   S    
C65   C81   S    
C82   O42   A    
C88   C91   T    
C11   C27   S    
C34   H18   S    
C81   O41   A    
C12   C20   S    
C33   H17   S    
C33   C34   S    
Cr8   O20   S    
C48   C87   S    
C69   O37   A    
Cr12  O40   S    
C13   H57   S    
C32   H8    S    
C3    O23   A    
C35   H19   S    
Cr6   O30   S    
C81   O13   A    
C37   C49   S    
C6    H46   S    
C22   C26   S    
Cr5   O29   S    
C42   C50   S    
C7    H43   S    
C4    C17   S    
Cr4   O24   S    
C9    C17   S    
C72   O40   A    
Cr3   O43   S    
Cr2   O42   S    
C35   C51   S    
C15   H63   S    
C38   H33   S    
C37   H25   S    
C53   C76   S    
C17   C93   S    
Cr10  O14   S    
Cr9   O33   S    
C53   C61   T    
Cr4   O4    S    
C50   C77   S    
C10   H52   S    
C19   C95   S    
C24   C72   S    
C30   H6    S    
C83   O15   A    
C46   O30   A    
C29   H5    S    
C1    C20   S    
C45   O29   A    
C56   C73   S    
Cr9   O17   S    
Cr8   O8    S    
C2    C19   S    
C2    O22   A    
Cr12  O12   S    
C1    O21   A    
C24   C28   S    
C80   O8    A    
Cr7   O31   S    
Cr11  O39   S    
C5    C93   S    
C85   C90   T    
C28   H16   S    
C57   C61   S    
C39   C44   S    
C38   C50   S    
C47   O31   A    
C43   H31   S    
C16   C32   S    
C41   C49   S    
C7    C95   S    
C74   O46   A    
C59   C63   S    
C6    H42   S    
C13   C17   S    
C60   C64   S    
C60   C68   T    
C47   C88   S    
C72   O4    A    
C75   O51   A    
C45   C86   S    
Cr6   O26   S    
C35   H23   S    
C74   O50   A    
C40   C52   S    
C27   H53   S    
C73   O49   A    
C10   C26   S    
C25   H13   S    
C25   H55   S    
C71   O39   A    
Cr2   O46   S    
C26   H56   S    
C2    O26   A    
C96   H4    S    
Cr9   O13   S    
C79   O7    A    
C84   O16   A    
C70   O38   A    
Cr1   O41   S    
C38   H26   S    
C8    H48   S    
Cr5   O5    S    
Cr7   O27   S    
Cr9   O9    S    
C71   O3    A    
C54   C75   S    
C5    H45   S    
C42   H69   S    
C4    O24   A    
C5    C21   S    
C41   H70   S    
C34   H22   S    
C14   H58   S    
C83   O43   A    
C40   H35   S    
Cr11  O15   S    
C18   C94   S    
Cr4   O48   S    
C3    O27   A    
Cr12  O16   S    
Cr11  O11   S    
Cr5   O25   S    
C42   H30   S    
C26   H14   S    
C12   H50   S    
C89   C90   S    
C33   C49   S    
C30   H66   S    
C9    H9    S    
C23   C31   S    
Cr10  O34   S    
