data_mof_unit_37105.cif
_audit_creation_date              2012-12-10T20:34:47-0500
_audit_creation_method            fapswitch 2.2
_symmetry_space_group_name_H-M    P1
_symmetry_Int_Tables_number       1
_space_group_crystal_system       triclinic
_cell_length_a                    10.634824
_cell_length_b                    10.670436
_cell_length_c                    9.882575
_cell_angle_alpha                 90.295249
_cell_angle_beta                  90.078449
_cell_angle_gamma                 90.447253
_cell_volume                      1121.40673951

loop_
_atom_site_label
_atom_site_type_symbol
_atom_type_description
_atom_site_fract_x
_atom_site_fract_y
_atom_site_fract_z
_atom_type_partial_charge
C1    C     C_R   0.503272 0.260086 0.499877 0.872260
C2    C     C_3   0.878700 0.498651 0.500939 0.166141
C3    C     C_3   0.928704 0.619727 0.433142 -0.395578
C4    C     C_3   0.926576 0.382503 0.422073 -0.401915
C5    C     C_R   0.510627 0.064618 0.622925 0.139944
C6    C     C_R   0.521398 0.128720 0.501138 -0.117077
C7    C     C_R   0.555027 0.064631 0.382599 -0.230162
C8    C     C_R   0.555474 0.934977 0.382944 -0.230153
C9    C     C_R   0.522039 0.871581 0.501770 -0.117923
C10   C     C_R   0.510838 0.936905 0.623237 0.198916
C11   C     C_3   0.410695 0.929542 0.729064 -0.467333
C12   C     C_R   0.257673 0.498954 0.500126 0.824343
C13   C     C_3   0.410616 0.071592 0.728866 -0.507526
C14   C     C_R   0.433588 0.411086 0.070578 0.209515
C15   C     C_R   0.574791 0.579777 0.073462 -0.174516
C16   C     C_R   0.575221 0.580163 0.930052 0.287066
C17   C     C_R   0.433345 0.411267 0.928131 0.164734
C18   C     C_3   0.294650 0.390771 0.923066 -0.511000
C19   C     C_3   0.295200 0.389493 0.076553 -0.500615
C20   C     C_R   0.503588 0.739950 0.500269 0.893071
C21   C     C_R   0.742294 0.499345 0.500261 0.841008
C22   C     C_3   0.071414 0.491870 0.648151 -0.410569
C23   C     C_3   0.928816 0.493210 0.648425 -0.368637
C24   C     C_3   0.073061 0.619851 0.433649 -0.401055
C25   C     C_3   0.071023 0.382716 0.421265 -0.401418
C26   C     C_3   0.121196 0.498355 0.500681 0.183802
H1    H     H_    0.107019 0.573232 0.708470 0.179924
H2    H     H_    0.891458 0.383427 0.315904 0.185349
H3    H     H_    0.107910 0.626788 0.327737 0.178553
H4    H     H_    0.894292 0.625749 0.326931 0.181701
H5    H     H_    0.573074 0.113560 0.288735 0.174423
H6    H     H_    0.573858 0.885306 0.289227 0.176948
H7    H     H_    0.321633 0.887123 0.690524 0.189202
H8    H     H_    0.446058 0.889452 0.825345 0.234071
H9    H     H_    0.321454 0.112078 0.690366 0.194255
H10   H     H_    0.446212 0.113543 0.824888 0.212601
H11   H     H_    0.633150 0.645708 0.129125 0.171936
H12   H     H_    0.104113 0.404354 0.697476 0.174343
H13   H     H_    0.244296 0.472678 0.881172 0.214035
H14   H     H_    0.268967 0.298762 0.877181 0.196460
H15   H     H_    0.244066 0.469811 0.122037 0.213872
H16   H     H_    0.271125 0.296335 0.119622 0.196802
H17   H     H_    0.892858 0.407678 0.700252 0.179343
H18   H     H_    0.896764 0.576256 0.707031 0.222368
H19   H     H_    0.108759 0.703496 0.490009 0.157153
H20   H     H_    0.893966 0.703777 0.488433 0.172521
H21   H     H_    0.104817 0.384704 0.314806 0.177897
H22   H     H_    0.106072 0.294852 0.467900 0.154510
H23   H     H_    0.891029 0.294966 0.470055 0.158851
N1    N     N_R   0.499150 0.499140 0.142800 -0.125997
N2    N     N_R   0.499150 0.499180 0.857150 -0.128108
O1    O     O_R   0.500020 0.316790 0.614690 -0.614301
O2    O     O_R   0.500000 0.316760 0.385350 -0.620916
O3    O     O_R   0.314800 0.500000 0.614670 -0.630616
O4    O     O_R   0.314790 0.499960 0.385330 -0.625064
O5    O     O_R   0.500000 0.683240 0.614650 -0.572299
O6    O     O_R   0.499980 0.683210 0.385310 -0.628155
O7    O     O_R   0.685210 0.500040 0.614670 -0.590621
O8    O     O_R   0.685200 0.500000 0.385330 -0.632494
Zn1   Zn    Zn3+2 0.500010 0.500020 0.653130 0.972840
Zn2   Zn    Zn3+2 0.499990 0.499980 0.346870 0.936667
Br1   Br    Br    0.682633 0.699754 0.844077 -0.583377

loop_
_geom_bond_atom_site_label_1
_geom_bond_atom_site_label_2
_ccdc_geom_bond_type
C3    H4    S    
C2    C4    S    
C18   H13   S    
C16   N2    A    
O6    Zn2   S    
C6    C7    A    
O1    Zn1   S    
C9    C10   A    
C25   H21   S    
C3    H20   S    
C5    C13   S    
C25   H22   S    
C19   H16   S    
C4    H23   S    
C20   O5    A    
C21   O7    A    
C17   N2    A    
C2    C21   S    
C17   C18   S    
C20   O6    A    
C5    C10   A    
C21   O8    A    
O3    Zn1   S    
C11   C13   S    
C14   C17   A    
C3    C24   S    
C14   N1    A    
C8    H6    S    
C16   Br1   S    
C24   H19   S    
O4    Zn2   S    
C4    H2    S    
C24   C26   S    
C4    C25   S    
C2    C3    S    
C22   H1    S    
C11   H8    S    
C5    C6    A    
C1    O1    A    
C12   O3    A    
O8    Zn2   S    
C12   O4    A    
C7    H5    S    
C10   C11   S    
O7    Zn1   S    
C15   C16   A    
C22   H12   S    
C19   H15   S    
C11   H7    S    
C23   H17   S    
C13   H10   S    
C7    C8    A    
C22   C26   S    
C15   N1    A    
C2    C23   S    
N1    Zn2   S    
C18   H14   S    
C22   C23   S    
C18   C19   S    
C1    O2    A    
N2    Zn1   S    
C9    C20   S    
C25   C26   S    
C24   H3    S    
O2    Zn2   S    
C14   C19   S    
C13   H9    S    
C15   H11   S    
C23   H18   S    
O5    Zn1   S    
C12   C26   S    
C8    C9    A    
C1    C6    S    
