data_mof_unit_48079.cif
_audit_creation_date              2013-03-05T16:10:41-0500
_audit_creation_method            fapswitch 2.2
_symmetry_space_group_name_H-M    P1
_symmetry_Int_Tables_number       1
_space_group_crystal_system       triclinic
_cell_length_a                    9.849965
_cell_length_b                    10.631211
_cell_length_c                    15.414515
_cell_angle_alpha                 90.129894
_cell_angle_beta                  66.507913
_cell_angle_gamma                 89.623027
_cell_volume                      1480.3199007

loop_
_atom_site_label
_atom_site_type_symbol
_atom_site_description
_atom_site_fract_x
_atom_site_fract_y
_atom_site_fract_z
_atom_type_partial_charge
O1    O     O_R   0.385370 0.683250 0.500010 -0.581410
O2    O     O_R   0.614630 0.316750 0.499990 -0.578459
O3    O     O_R   0.614700 0.683220 0.500000 -0.620888
O4    O     O_R   0.385300 0.316780 0.500000 -0.622015
C1    C     C_R   0.499141 0.739521 0.500532 0.919024
C2    C     C_R   0.500928 0.260445 0.499334 0.920393
O5    O     O_R   0.319830 0.500020 0.632250 -0.636290
O6    O     O_R   0.680170 0.499980 0.367750 -0.630742
O7    O     O_R   0.549160 0.499990 0.632240 -0.600098
O8    O     O_R   0.450840 0.500010 0.367760 -0.602561
C3    C     C_R   0.405935 0.501237 0.677159 0.879464
C4    C     C_R   0.593965 0.496571 0.322827 0.896037
Zn1   Zn    Zn3+2 0.346870 0.500020 0.500000 0.989153
Zn2   Zn    Zn3+2 0.653130 0.499980 0.500000 0.992159
C5    C     C_R   0.341636 0.502035 0.781370 -0.159112
C6    C     C_R   0.654508 0.470634 0.220298 -0.141547
C7    C     C_R   0.159254 0.568117 0.936487 -0.070775
C8    C     C_R   0.808355 0.346443 0.081417 -0.025623
C9    C     C_R   0.203845 0.558908 0.837055 -0.052129
C10   C     C_R   0.782663 0.395990 0.172344 -0.103611
C11   C     C_R   0.430467 0.452932 0.824156 -0.157116
C12   C     C_R   0.559785 0.499113 0.176353 -0.170043
C13   C     C_R   0.392432 0.463252 0.921253 0.102448
C14   C     C_R   0.573498 0.441130 0.092188 0.081700
C15   C     C_R   0.255472 0.522219 0.978112 0.037473
C16   C     C_R   0.703124 0.369809 0.041165 0.147404
C17   C     C_R   0.492705 0.423851 0.961931 0.088367
C18   C     C_R   0.462118 0.457312 0.056561 0.089259
C19   C     C_R   0.319485 0.503023 0.113838 -0.148545
C20   C     C_R   0.623883 0.354614 0.911111 -0.198245
C21   C     C_R   0.217981 0.533185 0.075636 -0.216676
C22   C     C_R   0.725710 0.327593 0.950124 -0.130229
H1    H     H_    0.111220 0.567872 0.123897 0.122048
H2    H     H_    0.824360 0.276525 0.906054 0.198065
H3    H     H_    0.471204 0.565606 0.211393 0.190157
H4    H     H_    0.535025 0.412955 0.778205 0.184932
H5    H     H_    0.282044 0.513510 0.189574 0.146720
H6    H     H_    0.650248 0.316284 0.841494 0.185529
C23   C     C_R   0.492062 0.935969 0.582916 -0.181211
C24   C     C_R   0.507640 0.063903 0.416934 -0.175991
C25   C     C_R   0.496344 0.066561 0.580124 0.355218
C26   C     C_R   0.504175 0.933284 0.419535 0.348247
C27   C     C_R   0.503546 0.127886 0.497950 -0.290052
C28   C     C_R   0.496476 0.872019 0.501837 -0.292182
C29   C     C_R   0.961089 0.413319 0.448103 -0.060269
C30   C     C_R   0.038943 0.586714 0.551865 -0.053920
H7    H     H_    0.932981 0.343800 0.406794 0.159753
H8    H     H_    0.067048 0.656200 0.593219 0.146364
C31   C     C_R   0.104940 0.413432 0.448023 -0.039038
C32   C     C_R   0.895122 0.586653 0.551887 -0.029934
H9    H     H_    0.185814 0.344224 0.406367 0.146579
H10   H     H_    0.814304 0.655950 0.593453 0.148118
N1    N     N_R   0.142780 0.500030 0.500020 -0.087558
N2    N     N_R   0.857220 0.499970 0.499980 -0.089426
C33   C     C_2   0.886063 0.365901 0.218181 0.333083
H11   H     H_    0.922398 0.439392 0.252663 0.091782
O9    O     O_2   0.930489 0.258485 0.218519 -0.537541
C34   C     C_2   0.112882 0.617759 0.790968 0.491235
H12   H     H_    0.073832 0.561821 0.746799 0.067119
O10   O     O_2   0.081558 0.729619 0.801997 -0.512099
C35   C     C_2   0.015665 0.630345 0.995982 0.464372
H13   H     H_    0.007194 0.691255 0.054426 0.103936
O11   O     O_2   0.904883 0.613811 0.980411 -0.544016
C36   C     C_2   0.945453 0.271451 0.030225 0.502807
H14   H     H_    0.050647 0.303976 0.028522 0.084513
O12   O     O_2   0.940752 0.169655 0.994768 -0.494182
C37   C     C_2   0.480508 0.865593 0.669450 0.557561
H15   H     H_    0.440429 0.769804 0.680237 0.012929
O13   O     O_2   0.517656 0.912437 0.728931 -0.478932
C38   C     C_2   0.517787 0.134258 0.330698 0.554111
H16   H     H_    0.555956 0.230487 0.320367 0.016443
O14   O     O_2   0.481379 0.086915 0.271054 -0.480080
N3    N     N_R   0.484654 0.138219 0.661882 0.227571
O15   O     O_R   0.356363 0.154611 0.731390 -0.353920
O16   O     O_R   0.602382 0.186097 0.667088 -0.369791
N4    N     N_R   0.517711 0.861599 0.337385 0.229882
O17   O     O_R   0.646083 0.848866 0.267310 -0.345303
O18   O     O_R   0.401699 0.809886 0.332390 -0.350391

loop_
_geom_bond_atom_site_label_1
_geom_bond_atom_site_label_2
_geom_bond_distance
_ccdc_geom_bond_type
C15   C21   1.402108 A    
C33   H11   1.083736 S    
C16   C22   1.402586 A    
C25   C27   1.402577 A    
N3    O15   1.300775 A    
C8    C16   1.425158 A    
C23   C25   1.389511 A    
C11   H4    1.074384 S    
O5    C3    1.291077 A    
C12   H3    1.080359 S    
C32   N2    1.366803 A    
C24   C38   1.495325 S    
O1    C1    1.276628 A    
C18   C19   1.410555 A    
C14   C16   1.416935 A    
C34   O10   1.220967 D    
C20   H6    1.076813 S    
O4    Zn1   1.982053 S    
C35   O11   1.220795 D    
C7    C35   1.493295 S    
C3    C5    1.473226 S    
C24   C27   1.406960 A    
C4    C6    1.474413 S    
C31   H9    1.081935 S    
C32   H10   1.081885 S    
C21   H1    1.079456 S    
C38   H16   1.082301 S    
C13   C17   1.426054 A    
C6    C10   1.417691 A    
C24   C26   1.389562 A    
C17   C20   1.415235 A    
N3    O16   1.300768 A    
O2    C2    1.276929 A    
C26   C28   1.402557 A    
C10   C33   1.486370 S    
Zn1   N1    2.010156 S    
C29   H7    1.081409 S    
C9    C34   1.483580 S    
C30   H8    1.081628 S    
C37   H15   1.083635 S    
N4    O17   1.300815 A    
O4    C2    1.279702 A    
C34   H12   1.084019 S    
C6    C12   1.386420 A    
C37   O13   1.220794 D    
C36   O12   1.220751 D    
C5    C9    1.415102 A    
O7    Zn2   1.881390 S    
C29   C31   1.416453 A    
O6    C4    1.292626 A    
O7    C3    1.300305 A    
O3    Zn2   1.982053 S    
O8    C4    1.299721 A    
Zn2   N2    2.010156 S    
C1    C28   1.408635 S    
C29   N2    1.366316 A    
C2    C27   1.409289 S    
C33   O9    1.221010 D    
C12   C14   1.391741 A    
O1    Zn1   1.986986 S    
O6    Zn2   1.947778 S    
C23   C37   1.495536 S    
C14   C18   1.418824 A    
N4    O18   1.300845 A    
O3    C1    1.279645 A    
O8    Zn1   1.881393 S    
C23   C28   1.406590 A    
C30   C32   1.416494 A    
C26   N4    1.435883 S    
C7    C15   1.424129 A    
C36   H14   1.084873 S    
C11   C13   1.394338 A    
C19   C21   1.383922 A    
C20   C22   1.388526 A    
C8    C36   1.488401 S    
C5    C11   1.388774 A    
C31   N1    1.366835 A    
C30   N1    1.366255 A    
C7    C9    1.419044 A    
C8    C10   1.420595 A    
C13   C15   1.422967 A    
C35   H13   1.083792 S    
O2    Zn2   1.986986 S    
C25   N3    1.435512 S    
O5    Zn1   1.947777 S    
C19   H5    1.080249 S    
C17   C18   1.410999 A    
C38   O14   1.220780 D    
C22   H2    1.079619 S    
