data_mof_unit_7125.cif
_audit_creation_date              2013-03-05T15:56:45-0500
_audit_creation_method            fapswitch 2.2
_symmetry_space_group_name_H-M    P1
_symmetry_Int_Tables_number       1
_space_group_crystal_system       triclinic
_cell_length_a                    21.350091
_cell_length_b                    21.381259
_cell_length_c                    13.692109
_cell_angle_alpha                 90.739429
_cell_angle_beta                  90.095837
_cell_angle_gamma                 89.863513
_cell_volume                      6249.78917843

loop_
_atom_site_label
_atom_site_type_symbol
_atom_site_description
_atom_site_fract_x
_atom_site_fract_y
_atom_site_fract_z
_atom_type_partial_charge
O1    O     O_R   0.064880 0.435140 0.582280 -0.586748
O2    O     O_R   0.935120 0.564860 0.417720 -0.602734
O3    O     O_R   0.935120 0.564860 0.582280 -0.555376
O4    O     O_R   0.064880 0.435140 0.417720 -0.557409
O5    O     O_R   0.935120 0.435140 0.417720 -0.570392
O6    O     O_R   0.064880 0.564860 0.582280 -0.534063
O7    O     O_R   0.064880 0.564860 0.417720 -0.605120
O8    O     O_R   0.935120 0.435140 0.582280 -0.561264
O9    O     O_R   0.564880 0.935140 0.582280 -0.599277
O10   O     O_R   0.435120 0.064860 0.417720 -0.586313
O11   O     O_R   0.435120 0.064860 0.582280 -0.560500
O12   O     O_R   0.564880 0.935140 0.417720 -0.558802
O13   O     O_R   0.435120 0.935140 0.417720 -0.535825
O14   O     O_R   0.564880 0.064860 0.582280 -0.570714
O15   O     O_R   0.564880 0.064860 0.417720 -0.560628
O16   O     O_R   0.435120 0.935140 0.582280 -0.598704
C1    C     C_R   0.084577 0.413372 0.499569 0.868983
C2    C     C_R   0.915364 0.586560 0.500485 0.839407
C3    C     C_R   0.915807 0.412927 0.499693 0.862026
C4    C     C_R   0.084598 0.587001 0.501134 0.845294
C5    C     C_R   0.584804 0.913630 0.499482 0.839866
C6    C     C_R   0.415421 0.086621 0.500431 0.864302
C7    C     C_R   0.414301 0.914106 0.498907 0.843902
C8    C     C_R   0.584202 0.087064 0.500312 0.862142
Cu1   Cu    Cu3+1 0.000000 0.500000 0.597420 1.068688
Cu2   Cu    Cu3+1 0.000000 0.500000 0.402580 1.015885
Cu3   Cu    Cu3+1 0.500000 0.000000 0.597420 1.018062
Cu4   Cu    Cu3+1 0.500000 0.000000 0.402580 1.065409
C9    C     C_R   0.148057 0.668600 0.593090 0.363893
C10   C     C_R   0.871059 0.315264 0.570290 0.335253
C11   C     C_R   0.872497 0.686754 0.567555 0.307909
C12   C     C_R   0.129301 0.314775 0.429200 0.329745
C13   C     C_R   0.628893 0.184808 0.429888 0.335590
C14   C     C_R   0.345345 0.837246 0.408084 0.328785
C15   C     C_R   0.370846 0.185323 0.570581 0.329123
C16   C     C_R   0.627777 0.813482 0.433578 0.308077
C17   C     C_R   0.128915 0.639598 0.504193 -0.174865
C18   C     C_R   0.869889 0.362205 0.499090 -0.167674
C19   C     C_R   0.868305 0.636042 0.501638 -0.172721
C20   C     C_R   0.131379 0.363635 0.498785 -0.163819
C21   C     C_R   0.630103 0.137801 0.500973 -0.167813
C22   C     C_R   0.363052 0.868448 0.495649 -0.180196
C23   C     C_R   0.368606 0.136337 0.501232 -0.163491
C24   C     C_R   0.632633 0.864977 0.497734 -0.172698
C25   C     C_R   0.151575 0.661257 0.415605 -0.186141
C26   C     C_R   0.823383 0.362901 0.428126 -0.172581
C27   C     C_R   0.819098 0.631505 0.435735 -0.202800
C28   C     C_R   0.179053 0.366708 0.567735 -0.187117
C29   C     C_R   0.676589 0.137100 0.571982 -0.171936
C30   C     C_R   0.330532 0.857406 0.581815 -0.181097
C31   C     C_R   0.320815 0.133148 0.432502 -0.187500
C32   C     C_R   0.683208 0.871069 0.560798 -0.203197
C33   C     C_R   0.196148 0.708491 0.412430 -0.016685
C34   C     C_R   0.775180 0.318964 0.427986 -0.007987
C35   C     C_R   0.771332 0.676025 0.435251 -0.009500
C36   C     C_R   0.227752 0.323215 0.566804 -0.008702
C37   C     C_R   0.724715 0.181126 0.572333 -0.007449
C38   C     C_R   0.282814 0.813157 0.585034 -0.011491
C39   C     C_R   0.272181 0.176707 0.433345 -0.008308
C40   C     C_R   0.731163 0.826675 0.561009 -0.007185
C41   C     C_R   0.215969 0.737662 0.500380 -0.018519
C42   C     C_R   0.774794 0.271807 0.499596 -0.021062
C43   C     C_R   0.774850 0.728171 0.499875 -0.019489
C44   C     C_R   0.225890 0.272586 0.499294 -0.018947
C45   C     C_R   0.725096 0.228304 0.500751 -0.021286
C46   C     C_R   0.263253 0.783385 0.497488 -0.015337
C47   C     C_R   0.274075 0.227354 0.500834 -0.019247
C48   C     C_R   0.727420 0.774227 0.497079 -0.020225
C49   C     C_R   0.189338 0.720346 0.591144 -0.115566
C50   C     C_R   0.824124 0.268236 0.569782 -0.120641
C51   C     C_R   0.825934 0.734266 0.566756 -0.127479
C52   C     C_R   0.175696 0.267180 0.430733 -0.123199
C53   C     C_R   0.675755 0.231898 0.430579 -0.120511
C54   C     C_R   0.291799 0.798527 0.407237 -0.117218
C55   C     C_R   0.324327 0.232813 0.569300 -0.123671
C56   C     C_R   0.675997 0.767750 0.431012 -0.126161
C57   C     C_R   0.220088 0.727817 0.322094 0.252943
C58   C     C_R   0.725978 0.323587 0.359896 0.252653
C59   C     C_R   0.721031 0.669640 0.369310 0.247262
C60   C     C_R   0.278236 0.330054 0.632298 0.252322
C61   C     C_R   0.773832 0.176610 0.640622 0.252722
C62   C     C_R   0.253207 0.799765 0.674053 0.252268
C63   C     C_R   0.221716 0.169912 0.367791 0.253987
C64   C     C_R   0.782265 0.833880 0.625162 0.245271
C65   C     C_R   0.824212 0.218427 0.637637 0.238217
C66   C     C_R   0.205991 0.754488 0.677136 0.244752
C67   C     C_R   0.173424 0.214303 0.366919 0.240722
C68   C     C_R   0.829028 0.787947 0.628971 0.230985
C69   C     C_R   0.266758 0.773444 0.319078 0.253324
C70   C     C_R   0.675568 0.281817 0.362937 0.238637
C71   C     C_R   0.674163 0.715453 0.365997 0.234724
C72   C     C_R   0.326545 0.285673 0.633177 0.240722
H1    H     H_    0.135449 0.639528 0.348355 0.208255
H2    H     H_    0.823564 0.400430 0.375758 0.197443
H3    H     H_    0.818365 0.592086 0.385267 0.189230
H4    H     H_    0.178613 0.404838 0.620621 0.190837
H5    H     H_    0.676457 0.099487 0.624197 0.197346
H6    H     H_    0.343657 0.882984 0.647372 0.204237
H7    H     H_    0.321160 0.094920 0.379789 0.189495
H8    H     H_    0.684443 0.911104 0.610067 0.187959
C73   C     C_R   0.055042 0.494174 0.792820 0.125509
C74   C     C_R   0.944917 0.505518 0.207174 0.067340
C75   C     C_R   0.944812 0.504510 0.792729 0.134317
C76   C     C_R   0.055108 0.494649 0.207278 0.099986
C77   C     C_R   0.555062 0.994205 0.792818 0.068660
C78   C     C_R   0.444999 0.006257 0.207116 0.137679
C79   C     C_R   0.444984 0.006259 0.792728 0.106552
C80   C     C_R   0.555130 0.994973 0.207217 0.127036
N1    N     N_R   1.000000 0.500000 0.743810 -0.196205
N2    N     N_R   1.000000 0.500000 0.256190 -0.198372
N3    N     N_R   0.500000 0.000000 0.743810 -0.198271
N4    N     N_R   0.500000 0.000000 0.256190 -0.192990
C81   C     C_R   0.942754 0.503941 0.896213 -0.014967
C82   C     C_R   0.057148 0.494632 0.103769 -0.012916
C83   C     C_R   0.056859 0.492470 0.896240 -0.014229
C84   C     C_R   0.943024 0.506463 0.103714 -0.018191
C85   C     C_R   0.443179 0.008175 0.896202 -0.009755
C86   C     C_R   0.557205 0.995935 0.103746 -0.015869
C87   C     C_R   0.556923 0.993124 0.896264 -0.018432
C88   C     C_R   0.442915 0.005870 0.103604 -0.017448
C89   C     C_R   0.999930 0.499317 0.948238 0.019388
C90   C     C_R   0.999981 0.499583 0.051744 0.025168
C91   C     C_R   0.500046 0.000695 0.948217 0.022884
C92   C     C_R   0.500047 0.000772 0.051704 0.020730
C93   C     C_R   0.885238 0.507677 0.948114 0.169471
C94   C     C_R   0.114584 0.489618 0.051827 0.160605
C95   C     C_R   0.113847 0.483750 0.948087 0.137780
C96   C     C_R   0.885869 0.514046 0.051803 0.129512
C97   C     C_R   0.386197 0.017069 0.948099 0.168930
C98   C     C_R   0.614696 0.991842 0.051841 0.168688
C99   C     C_R   0.614013 0.985178 0.948193 0.131881
C100  C     C_R   0.385464 0.010934 0.051577 0.129319
H9    H     H_    0.097426 0.491750 0.750006 0.151183
H10   H     H_    0.902545 0.508141 0.250024 0.138811
H11   H     H_    0.902679 0.509508 0.749779 0.137669
H12   H     H_    0.097128 0.489347 0.250361 0.143798
H13   H     H_    0.597418 0.991201 0.749982 0.138557
H14   H     H_    0.402941 0.011890 0.250032 0.138557
H15   H     H_    0.402647 0.009033 0.749733 0.138152
H16   H     H_    0.597239 0.989577 0.250104 0.137097
N5    N     N_R   0.131014 0.641620 0.684658 0.137411
O17   O     O_R   0.170654 0.605937 0.730036 -0.341229
O18   O     O_R   0.075937 0.651946 0.722215 -0.218003
N6    N     N_R   0.918776 0.317357 0.644130 0.152797
O19   O     O_R   0.905180 0.338382 0.731170 -0.311204
O20   O     O_R   0.977162 0.308816 0.620142 -0.284647
N7    N     N_R   0.925849 0.690607 0.630915 0.157177
O21   O     O_R   0.923373 0.666186 0.717373 -0.273472
O22   O     O_R   0.979614 0.707809 0.595827 -0.294009
N8    N     N_R   0.080431 0.314714 0.357216 0.152980
O23   O     O_R   0.022691 0.305309 0.383432 -0.280537
O24   O     O_R   0.092075 0.335095 0.269994 -0.308325
N9    N     N_R   0.581293 0.182663 0.355861 0.152833
O25   O     O_R   0.522834 0.190932 0.379638 -0.283180
O26   O     O_R   0.595133 0.161999 0.268711 -0.310362
N10   N     N_R   0.386452 0.837220 0.325159 0.163262
O27   O     O_R   0.416275 0.786198 0.301166 -0.204030
O28   O     O_R   0.384915 0.883129 0.263869 -0.324598
N11   N     N_R   0.420204 0.185760 0.641751 0.153801
O29   O     O_R   0.409339 0.165286 0.729157 -0.316784
O30   O     O_R   0.477689 0.195497 0.614516 -0.279655
N12   N     N_R   0.570400 0.804674 0.380839 0.148658
O31   O     O_R   0.523828 0.776805 0.423018 -0.284113
O32   O     O_R   0.561579 0.832239 0.297743 -0.260111
N13   N     N_R   0.196394 0.701985 0.232208 0.142557
O33   O     O_R   0.213933 0.646430 0.203597 -0.325792
O34   O     O_R   0.163158 0.736477 0.174063 -0.227995
N14   N     N_R   0.725804 0.372234 0.288535 0.139713
O35   O     O_R   0.682529 0.415187 0.290408 -0.219600
O36   O     O_R   0.766531 0.371240 0.217942 -0.318611
N15   N     N_R   0.716856 0.616153 0.304988 0.135893
O37   O     O_R   0.708141 0.560741 0.340646 -0.286386
O38   O     O_R   0.716229 0.623402 0.210810 -0.284313
N16   N     N_R   0.282677 0.384177 0.695119 0.135323
O39   O     O_R   0.280630 0.378208 0.789450 -0.292376
O40   O     O_R   0.290999 0.439259 0.658053 -0.299069
N17   N     N_R   0.773841 0.128164 0.712361 0.139812
O41   O     O_R   0.732427 0.128916 0.781972 -0.319251
O42   O     O_R   0.817721 0.085841 0.712130 -0.216214
N18   N     N_R   0.270613 0.832321 0.762378 0.135830
O43   O     O_R   0.324949 0.822015 0.802295 -0.290385
O44   O     O_R   0.230329 0.868287 0.807098 -0.260904
N19   N     N_R   0.217323 0.115877 0.304786 0.134058
O45   O     O_R   0.208678 0.060778 0.341617 -0.306354
O46   O     O_R   0.219832 0.121949 0.210495 -0.289856
N20   N     N_R   0.788013 0.888969 0.685690 0.139037
O47   O     O_R   0.787942 0.884547 0.780339 -0.281992
O48   O     O_R   0.796793 0.943226 0.646074 -0.284441
N21   N     N_R   0.876083 0.207782 0.701990 0.189552
O49   O     O_R   0.868041 0.210852 0.796119 -0.212022
O50   O     O_R   0.927665 0.183917 0.667215 -0.221324
N22   N     N_R   0.173363 0.746331 0.767449 0.190596
O51   O     O_R   0.203237 0.725800 0.843539 -0.191984
O52   O     O_R   0.117988 0.770909 0.778511 -0.197667
N23   N     N_R   0.119696 0.201488 0.307151 0.188166
O53   O     O_R   0.071091 0.174495 0.345073 -0.228935
O54   O     O_R   0.122523 0.208722 0.213070 -0.209389
N24   N     N_R   0.880711 0.798476 0.693858 0.193169
O55   O     O_R   0.875931 0.783192 0.785199 -0.217966
O56   O     O_R   0.926703 0.834005 0.666667 -0.212410
N25   N     N_R   0.284440 0.797338 0.225764 0.191533
O57   O     O_R   0.309064 0.760229 0.160190 -0.183455
O58   O     O_R   0.264969 0.852479 0.200287 -0.270322
N26   N     N_R   0.623490 0.292741 0.299096 0.189327
O59   O     O_R   0.571928 0.316217 0.334581 -0.222583
O60   O     O_R   0.631261 0.290267 0.204879 -0.211682
N27   N     N_R   0.625513 0.708094 0.294667 0.194225
O61   O     O_R   0.583180 0.665144 0.306016 -0.197863
O62   O     O_R   0.631251 0.734633 0.210195 -0.239848
N28   N     N_R   0.380158 0.298416 0.693219 0.188485
O63   O     O_R   0.377256 0.290665 0.787185 -0.211314
O64   O     O_R   0.428584 0.326033 0.655840 -0.228419
C101  C     C_3   0.823810 0.501480 0.892796 -0.763272
H17   H     H_    0.826964 0.462863 0.838010 0.239478
H18   H     H_    0.784103 0.487940 0.939899 0.265603
H19   H     H_    0.812694 0.545967 0.855529 0.242618
C102  C     C_3   0.176197 0.493050 0.107182 -0.725518
H20   H     H_    0.174434 0.530965 0.163113 0.250371
H21   H     H_    0.185767 0.447747 0.143074 0.242533
H22   H     H_    0.216341 0.505828 0.060427 0.268302
C103  C     C_3   0.172492 0.464350 0.892808 -0.675087
H23   H     H_    0.207213 0.440342 0.939489 0.264354
H24   H     H_    0.160969 0.428979 0.835531 0.225139
H25   H     H_    0.194303 0.505757 0.858769 0.279999
C104  C     C_3   0.826860 0.532357 0.107090 -0.687361
H26   H     H_    0.790758 0.553909 0.060019 0.268328
H27   H     H_    0.807024 0.490932 0.143894 0.272875
H28   H     H_    0.837545 0.569306 0.162318 0.225669
C105  C     C_3   0.327464 0.036249 0.893218 -0.744501
H29   H     H_    0.292872 0.060673 0.940405 0.261341
H30   H     H_    0.338833 0.071312 0.836913 0.244023
H31   H     H_    0.305616 0.994611 0.858020 0.259588
C106  C     C_3   0.676168 0.997738 0.107090 -0.764028
H32   H     H_    0.715852 0.011266 0.059917 0.266302
H33   H     H_    0.673171 0.036235 0.162105 0.239885
H34   H     H_    0.687192 0.953129 0.144070 0.241263
C107  C     C_3   0.672922 0.966450 0.892975 -0.691887
H35   H     H_    0.708909 0.944806 0.940165 0.267389
H36   H     H_    0.662037 0.929479 0.837874 0.224983
H37   H     H_    0.692988 0.007710 0.856014 0.272901
C108  C     C_3   0.323946 0.007476 0.106692 -0.661386
H38   H     H_    0.283227 0.996623 0.059340 0.270095
H39   H     H_    0.325220 0.968414 0.159090 0.271518
H40   H     H_    0.315632 0.052085 0.146868 0.246382

loop_
_geom_bond_atom_site_label_1
_geom_bond_atom_site_label_2
_geom_bond_distance
_ccdc_geom_bond_type
C69   N25   1.433633 S    
N15   O37   1.301126 A    
C94   C95   1.424398 A    
C83   C89   1.415972 A    
O5    Cu2   1.975463 S    
O2    C2    1.290152 A    
N25   O57   1.301251 A    
C64   N20   1.436803 S    
N7    O21   1.301193 A    
C14   C22   1.415806 A    
C2    C19   1.457253 S    
C25   H1    1.082084 S    
C87   C91   1.416255 A    
C29   C37   1.395114 A    
C91   C92   1.416935 A    
C12   C52   1.418755 A    
C78   N4    1.359128 A    
C101  H17   1.110367 S    
O10   C6    1.289555 A    
C102  H22   1.107466 S    
C14   N10   1.436230 S    
N15   O38   1.300814 A    
O13   C7    1.284922 A    
N13   O33   1.300384 A    
C7    C22   1.468343 S    
O14   C8    1.292822 A    
C32   C40   1.394508 A    
O12   Cu4   1.970336 S    
C54   C69   1.418812 A    
C19   C27   1.386511 A    
N10   O27   1.300603 A    
C75   C81   1.417871 A    
C39   C63   1.407743 A    
C53   C70   1.422138 A    
C103  H25   1.109606 S    
N19   O46   1.300431 A    
C82   C94   1.421730 A    
C13   N9    1.434502 S    
C78   H14   1.079594 S    
O6    Cu1   1.975460 S    
C81   C93   1.421359 A    
C57   N13   1.434346 S    
C46   C54   1.420232 A    
C97   C105  1.519078 S    
C104  H28   1.110340 S    
C83   C95   1.420741 A    
C42   C50   1.427128 A    
O3    C2    1.287771 A    
C20   C28   1.388204 A    
C108  H38   1.106869 S    
C59   N15   1.437252 S    
N21   O50   1.301026 A    
C75   H11   1.079730 S    
N16   O39   1.300335 A    
C16   C56   1.418319 A    
C39   C47   1.415076 A    
C28   H4    1.083435 S    
C33   C41   1.413662 A    
C41   C46   1.407917 A    
C38   C46   1.412944 A    
C16   N12   1.432535 S    
N9    O25   1.301475 A    
C6    C23   1.457310 S    
C96   C104  1.518798 S    
N17   O42   1.300950 A    
C35   C43   1.416472 A    
C93   C96   1.424541 A    
C87   C99   1.421020 A    
C36   C44   1.414947 A    
O13   Cu4   1.975463 S    
C79   C85   1.417424 A    
N24   O55   1.300949 A    
O14   Cu3   1.975460 S    
N9    O26   1.301289 A    
C15   C23   1.405454 A    
C106  H32   1.107469 S    
Cu2   N2    2.004388 S    
C59   C71   1.399714 A    
C94   C102  1.518535 S    
Cu1   N1    2.004388 S    
C97   C100  1.424701 A    
C11   N7    1.432542 S    
C24   C32   1.386774 A    
O16   Cu3   1.971216 S    
N14   O36   1.301144 A    
C77   N3    1.358835 A    
C73   N1    1.358545 A    
C25   C33   1.390437 A    
N13   O34   1.300776 A    
C70   N26   1.433754 S    
C107  H35   1.107399 S    
N20   O48   1.301073 A    
O1    Cu1   1.967055 S    
C8    C21   1.463572 S    
N25   O58   1.300888 A    
N21   O49   1.301298 A    
C93   C101  1.518595 S    
C21   C29   1.388400 A    
C10   C50   1.421208 A    
N18   O44   1.300927 A    
C9    C49   1.416742 A    
C101  H18   1.107358 S    
C31   H7    1.083437 S    
N24   O56   1.300764 A    
C30   H6    1.081923 S    
O8    C3    1.288325 A    
N27   O61   1.300941 A    
C30   C38   1.393106 A    
C44   C47   1.410621 A    
C80   C86   1.417913 A    
O3    Cu1   1.970336 S    
C74   C84   1.417497 A    
C13   C21   1.408269 A    
C9    C17   1.418842 A    
C38   C62   1.406993 A    
N6    O20   1.301468 A    
C5    C24   1.455986 S    
C45   C53   1.427197 A    
C37   C45   1.415558 A    
C80   H16   1.079743 S    
C34   C42   1.415492 A    
Cu1   Cu2   2.667769 S    
C62   C66   1.400357 A    
O5    C3    1.292897 A    
C58   N14   1.436235 S    
O12   C5    1.287053 A    
C32   H8    1.083357 S    
C58   C70   1.401205 A    
C51   C68   1.422080 A    
C108  H39   1.108277 S    
C1    C20   1.457454 S    
N22   O52   1.300930 A    
C60   C72   1.399986 A    
C68   N24   1.431882 S    
N19   O45   1.301118 A    
C74   H10   1.080005 S    
C105  H29   1.107525 S    
C86   C98   1.421323 A    
C3    C18   1.463580 S    
C103  H23   1.107541 S    
C35   C59   1.407626 A    
O4    Cu2   1.970336 S    
N11   O29   1.301029 A    
C26   H2    1.083006 S    
O11   Cu3   1.970336 S    
C9    N5    1.434677 S    
C26   C34   1.395064 A    
N11   O30   1.301311 A    
C104  H26   1.107320 S    
C63   N19   1.436093 S    
N8    O24   1.301118 A    
O2    Cu2   1.967055 S    
C86   C92   1.416349 A    
C48   C56   1.427231 A    
C106  H33   1.110377 S    
C89   C90   1.417159 A    
C84   C90   1.416361 A    
C55   C72   1.420974 A    
C22   C30   1.392985 A    
C76   C82   1.417994 A    
O4    C1    1.288553 A    
C13   C53   1.421041 A    
N14   O35   1.301224 A    
C61   N17   1.436675 S    
C43   C51   1.428052 A    
O7    C4    1.300437 A    
O16   C7    1.299608 A    
N28   O64   1.300778 A    
C12   C20   1.405532 A    
C107  H36   1.110392 S    
C33   C57   1.406477 A    
C73   C83   1.417435 A    
C37   C61   1.407766 A    
C16   C24   1.403538 A    
C47   C55   1.427547 A    
C72   N28   1.432784 S    
C10   N6    1.434459 S    
C17   C25   1.391880 A    
C52   C67   1.420780 A    
C85   C97   1.421056 A    
N18   O43   1.301098 A    
O9    Cu3   1.967055 S    
C27   C35   1.393431 A    
N12   O31   1.300348 A    
C101  H19   1.110181 S    
O10   Cu4   1.967055 S    
C28   C36   1.393223 A    
C43   C48   1.411623 A    
O15   C8    1.288385 A    
C76   H12   1.079414 S    
C42   C45   1.412949 A    
N7    O22   1.300826 A    
C88   C100  1.421992 A    
C79   N3    1.358590 A    
N17   O41   1.301111 A    
C15   C55   1.418942 A    
N26   O60   1.301320 A    
N6    O19   1.301289 A    
C12   N8    1.434085 S    
C63   C67   1.399867 A    
C71   N27   1.432102 S    
C57   C69   1.397166 A    
C73   H9    1.079778 S    
C105  H31   1.110228 S    
C81   C89   1.416218 A    
O6    C4    1.285250 A    
C98   C106  1.518434 S    
O1    C1    1.289590 A    
C36   C60   1.407637 A    
C75   N1    1.358940 A    
C108  H40   1.108966 S    
C41   C49   1.421269 A    
N22   O51   1.301225 A    
N5    O18   1.301446 A    
C98   C99   1.424518 A    
C85   C91   1.416338 A    
C60   N16   1.436155 S    
C105  H30   1.109820 S    
N12   O32   1.301302 A    
N5    O17   1.300688 A    
O8    Cu1   1.971216 S    
C76   N2    1.358650 A    
C4    C17   1.471546 S    
C40   C64   1.407045 A    
O9    C5    1.290307 A    
O15   Cu4   1.971213 S    
C64   C68   1.400196 A    
O7    Cu2   1.971213 S    
C99   C107  1.518801 S    
C23   C31   1.388097 A    
C102  H20   1.108604 S    
N10   O28   1.299946 A    
C104  H27   1.109872 S    
C11   C19   1.404713 A    
C78   C88   1.417849 A    
C44   C52   1.427398 A    
C79   H15   1.079812 S    
C102  H21   1.110180 S    
N23   O54   1.300918 A    
C106  H34   1.110175 S    
N16   O40   1.301116 A    
C66   N22   1.433120 S    
C18   C26   1.388263 A    
C15   N11   1.434066 S    
C74   N2    1.358726 A    
C95   C103  1.518295 S    
C56   C71   1.420793 A    
C77   H13   1.080007 S    
N23   O53   1.300755 A    
C82   C90   1.416595 A    
C80   N4    1.358960 A    
C100  C108  1.518311 S    
C31   C39   1.393138 A    
N26   O59   1.301054 A    
C40   C48   1.415994 A    
O11   C6    1.288511 A    
C103  H24   1.110153 S    
N28   O63   1.300937 A    
C84   C96   1.421133 A    
C107  H37   1.109947 S    
C62   N18   1.436377 S    
Cu3   Cu4   2.667769 S    
N27   O62   1.300938 A    
C27   H3    1.083104 S    
N8    O23   1.301336 A    
C77   C87   1.417368 A    
C14   C54   1.413023 A    
C67   N23   1.432879 S    
C10   C18   1.408336 A    
C34   C58   1.407498 A    
N20   O47   1.300610 A    
C50   C65   1.422294 A    
C65   N21   1.433651 S    
Cu4   N4    2.004388 S    
C61   C65   1.401328 A    
C49   C66   1.422410 A    
C88   C92   1.415977 A    
C11   C51   1.419800 A    
Cu3   N3    2.004388 S    
C29   H5    1.082929 S    
