data_mof_unit_25064.cif
_audit_creation_date              2012-12-10T17:17:18-0500
_audit_creation_method            fapswitch 2.2
_symmetry_space_group_name_H-M    P1
_symmetry_Int_Tables_number       1
_space_group_crystal_system       triclinic
_cell_length_a                    27.739109
_cell_length_b                    13.014755
_cell_length_c                    11.726068
_cell_angle_alpha                 101.268843
_cell_angle_beta                  94.852125
_cell_angle_gamma                 91.82664
_cell_volume                      4131.74786909

loop_
_atom_site_label
_atom_site_type_symbol
_atom_type_description
_atom_site_fract_x
_atom_site_fract_y
_atom_site_fract_z
_atom_type_partial_charge
C1    C     C_R   0.500896 0.298798 0.477188 0.789749
C2    C     C_R   0.500630 0.701619 0.522993 0.849614
C3    C     C_R   0.103240 0.534058 0.529823 -0.165315
C4    C     C_R   0.899716 0.547586 0.543670 -0.166924
C5    C     C_R   0.127513 0.448612 0.562213 -0.109504
C6    C     C_R   0.872954 0.608889 0.476247 -0.104911
C7    C     C_R   0.100569 0.368528 0.597720 0.483151
C8    C     C_R   0.897806 0.678728 0.420547 0.495003
C9    C     C_R   0.129579 0.612633 0.489390 -0.039978
C10   C     C_R   0.875216 0.484491 0.608310 -0.037352
C11   C     C_R   0.354714 0.503890 0.501269 -0.116765
C12   C     C_R   0.644907 0.511606 0.503845 -0.091742
C13   C     C_R   0.977077 0.477388 0.600793 0.050883
C14   C     C_R   0.027310 0.619838 0.494027 0.050070
C15   C     C_R   0.975844 0.617408 0.488134 0.005038
C16   C     C_R   0.026989 0.466272 0.586047 0.001243
C17   C     C_R   0.950996 0.548160 0.545012 0.066104
C18   C     C_R   0.052445 0.540159 0.536705 0.064497
C19   C     C_R   0.952479 0.419935 0.669967 -0.285057
C20   C     C_R   0.054470 0.699493 0.458804 -0.280641
C21   C     C_R   0.902591 0.424584 0.676625 0.269954
C22   C     C_R   0.104676 0.696853 0.456085 0.271931
C23   C     C_R   0.407459 0.499423 0.499534 0.835627
C24   C     C_R   0.592345 0.502226 0.500961 0.841218
C25   C     C_R   0.051641 0.380425 0.614133 -0.303953
C26   C     C_R   0.948366 0.680206 0.424650 -0.318247
C27   C     C_R   0.500586 0.816485 0.538011 -0.147616
C28   C     C_R   0.501983 0.184453 0.462627 -0.149685
C29   C     C_R   0.501778 0.009261 0.344189 -0.287363
C30   C     C_R   0.500992 0.992166 0.655518 -0.316530
C31   C     C_R   0.505546 0.118205 0.352925 0.451147
C32   C     C_R   0.503338 0.883479 0.649813 0.474298
C33   C     C_R   0.500128 0.141137 0.562494 -0.313571
C34   C     C_R   0.498961 0.859318 0.436858 -0.313015
C35   C     C_R   0.500303 0.033502 0.554454 0.112529
C36   C     C_R   0.500072 0.967049 0.444640 0.116431
C37   C     C_R   0.442773 0.433451 0.020171 0.331146
C38   C     C_R   0.558721 0.562086 0.977161 0.338172
C39   C     C_R   0.450186 0.431842 0.142012 0.335118
C40   C     C_R   0.550152 0.567003 0.855793 0.346230
C41   C     C_R   0.525833 0.525735 0.156635 -0.035380
C42   C     C_R   0.474393 0.474122 0.843277 -0.008290
C43   C     C_R   0.522018 0.519927 0.033250 -0.137581
C44   C     C_R   0.479645 0.475242 0.965391 -0.120776
C45   C     C_R   0.177940 0.444929 0.555939 0.563217
C46   C     C_R   0.821959 0.597121 0.465126 0.548903
C47   C     C_R   0.180104 0.604562 0.484823 0.556961
C48   C     C_R   0.824109 0.482914 0.601508 0.548625
C49   C     C_R   0.286199 0.591560 0.584800 -0.096072
C50   C     C_R   0.721661 0.428997 0.490851 -0.112875
C51   C     C_R   0.336038 0.585712 0.578959 -0.287826
C52   C     C_R   0.671277 0.421032 0.486098 -0.330037
C53   C     C_R   0.322958 0.424908 0.432233 0.427408
C54   C     C_R   0.669049 0.611075 0.525065 0.365439
C55   C     C_R   0.272755 0.433901 0.435092 -0.206080
C56   C     C_R   0.719744 0.618562 0.536234 -0.195617
C57   C     C_R   0.254319 0.516064 0.512336 0.286501
C58   C     C_R   0.746407 0.527858 0.517879 0.283125
Cu1   Cu    Cu3+1 0.503580 0.507730 0.615930 0.967563
Cu2   Cu    Cu3+1 0.496420 0.492270 0.384070 0.965792
H1    H     H_    0.501080 0.957760 0.259346 0.138813
H2    H     H_    0.500904 0.045865 0.738230 0.133067
H3    H     H_    0.442481 0.436952 0.790075 0.183415
H4    H     H_    0.556265 0.568263 0.210888 0.172417
H5    H     H_    0.247989 0.376272 0.378255 0.142757
H6    H     H_    0.738324 0.695268 0.559207 0.156358
H7    H     H_    0.652875 0.344319 0.469220 0.155670
H8    H     H_    0.360146 0.645437 0.634822 0.176931
H9    H     H_    0.741508 0.358091 0.474747 0.163241
H10   H     H_    0.272287 0.654934 0.645452 0.156823
H11   H     H_    0.971715 0.373764 0.724407 0.142543
H12   H     H_    0.037663 0.766952 0.435268 0.141894
H13   H     H_    0.032941 0.317239 0.642254 0.149866
H14   H     H_    0.965045 0.728430 0.372378 0.150958
H15   H     H_    0.498107 0.808892 0.351278 0.180504
H16   H     H_    0.498714 0.191234 0.647587 0.174516
N1    N     N_R   0.202884 0.522085 0.517991 -0.466213
N2    N     N_R   0.798682 0.536196 0.528391 -0.462356
N3    N     N_R   0.508960 0.519350 0.790140 -0.229800
N4    N     N_R   0.491040 0.480650 0.209860 -0.208275
O1    O     O_R   0.502540 0.354460 0.582000 -0.602299
O2    O     O_R   0.497460 0.645540 0.418000 -0.599911
O3    O     O_R   0.496500 0.341410 0.386200 -0.531588
O4    O     O_R   0.503500 0.658590 0.613800 -0.530914
O5    O     O_R   0.433290 0.506540 0.597890 -0.600171
O6    O     O_R   0.566710 0.493460 0.402110 -0.620013
O7    O     O_R   0.427240 0.493490 0.402090 -0.528318
O8    O     O_R   0.572760 0.506510 0.597910 -0.540049
O9    O     O_2   0.202271 0.366050 0.589462 -0.503820
O10   O     O_2   0.795690 0.643804 0.389322 -0.519318
O11   O     O_2   0.799723 0.428045 0.666577 -0.517784
O12   O     O_2   0.206516 0.677622 0.446602 -0.506486
O13   O     O_3   0.341202 0.341404 0.359413 -0.624764
C59   C     C_3   0.332015 0.246628 0.398064 0.023396
H17   H     H_    0.336895 0.181216 0.324112 0.170425
H18   H     H_    0.294092 0.236526 0.419968 0.152707
C60   C     C_3   0.367908 0.237018 0.502043 -0.369307
H19   H     H_    0.404875 0.259938 0.484389 0.216425
H20   H     H_    0.358563 0.290970 0.582039 0.212555
C61   C     C_3   0.367612 0.125155 0.523559 -0.876839
H21   H     H_    0.331197 0.101097 0.544815 0.261727
H22   H     H_    0.394522 0.120908 0.597788 0.266537
H23   H     H_    0.377689 0.070038 0.445268 0.260193
O14   O     O_3   0.643497 0.701366 0.544974 -0.638901
C62   C     C_3   0.639480 0.743770 0.442605 0.034734
H24   H     H_    0.608068 0.703713 0.383564 0.156376
H25   H     H_    0.672692 0.735086 0.394546 0.154636
C63   C     C_3   0.631077 0.860878 0.476123 -0.316706
H26   H     H_    0.599275 0.872688 0.527736 0.224973
H27   H     H_    0.663221 0.901368 0.531757 0.217527
C64   C     C_3   0.622620 0.909785 0.368340 -0.909696
H28   H     H_    0.655067 0.903084 0.318474 0.259139
H29   H     H_    0.615561 0.994128 0.395734 0.256669
H30   H     H_    0.590836 0.870062 0.310829 0.257202
O15   O     O_3   0.505470 0.839354 0.749316 -0.609240
C65   C     C_3   0.533375 0.899950 0.848350 0.033414
H31   H     H_    0.534244 0.852391 0.917488 0.177191
H32   H     H_    0.515242 0.972073 0.885651 0.131269
C66   C     C_3   0.586153 0.924429 0.825444 -0.395308
H33   H     H_    0.601080 0.854619 0.772350 0.242280
H34   H     H_    0.587547 0.988761 0.775903 0.211169
C67   C     C_3   0.618417 0.958198 0.939549 -0.911124
H35   H     H_    0.604591 0.029248 0.992887 0.249556
H36   H     H_    0.655870 0.976719 0.920372 0.262611
H37   H     H_    0.619404 0.894249 0.989986 0.264431
O16   O     O_3   0.509225 0.160301 0.254022 -0.622953
C68   C     C_3   0.553415 0.135614 0.205159 0.042880
H38   H     H_    0.549823 0.151594 0.115235 0.155945
H39   H     H_    0.561198 0.051175 0.195869 0.134973
C69   C     C_3   0.595884 0.204850 0.275049 -0.353958
H40   H     H_    0.588288 0.288794 0.279490 0.239749
H41   H     H_    0.600303 0.190049 0.365403 0.196070
C70   C     C_3   0.643060 0.181883 0.219035 -0.932603
H42   H     H_    0.651014 0.097916 0.212511 0.265537
H43   H     H_    0.673386 0.230432 0.273384 0.259518
H44   H     H_    0.640499 0.200875 0.130476 0.259195
N5    N     N_2   0.580153 0.631780 0.803297 -0.376852
H45   H     H_    0.564919 0.699579 0.789951 0.285693
C71   C     C_3   0.632294 0.637650 0.824716 -0.634170
H46   H     H_    0.644012 0.689432 0.910043 0.240210
H47   H     H_    0.648046 0.674003 0.757662 0.249456
H48   H     H_    0.646240 0.557903 0.817450 0.219563
N6    N     N_2   0.413695 0.383739 0.194808 -0.366667
H49   H     H_    0.379097 0.405536 0.174422 0.271205
C72   C     C_3   0.417020 0.272062 0.191318 -0.510848
H50   H     H_    0.382121 0.229064 0.156061 0.171003
H51   H     H_    0.423735 0.257731 0.280812 0.264397
H52   H     H_    0.445827 0.238170 0.137423 0.221496
O17   O     O_3   0.397109 0.415610 0.958989 -0.623127
C73   C     C_3   0.381695 0.308255 0.923868 0.065567
H53   H     H_    0.351729 0.303932 0.853684 0.180795
H54   H     H_    0.364389 0.281293 0.994532 0.157671
C74   C     C_3   0.419814 0.232559 0.873387 -0.431283
H55   H     H_    0.430063 0.251637 0.790106 0.213495
H56   H     H_    0.453000 0.238356 0.934613 0.207430
C75   C     C_3   0.399135 0.119473 0.850452 -0.895558
H57   H     H_    0.391018 0.097250 0.933844 0.257258
H58   H     H_    0.425725 0.065429 0.810041 0.258344
H59   H     H_    0.365373 0.110150 0.790544 0.263306
O18   O     O_3   0.601174 0.604215 0.042981 -0.625793
C76   C     C_3   0.636323 0.526622 0.039428 0.040977
H60   H     H_    0.670777 0.562185 0.019606 0.178910
H61   H     H_    0.627471 0.454799 0.970042 0.119875
C77   C     C_3   0.645701 0.494627 0.158037 -0.355250
H62   H     H_    0.648570 0.565442 0.229113 0.224004
H63   H     H_    0.615352 0.441861 0.171333 0.213030
C78   C     C_3   0.692483 0.436570 0.164705 -0.868265
H64   H     H_    0.690887 0.366041 0.093471 0.247989
H65   H     H_    0.697519 0.411239 0.249560 0.264820
H66   H     H_    0.724093 0.488808 0.157678 0.275077
O19   O     O_3   0.121826 0.277810 0.617275 -0.563134
C79   C     C_3   0.104248 0.191357 0.528064 0.080128
H67   H     H_    0.135558 0.158146 0.482824 0.166843
H68   H     H_    0.078130 0.211878 0.458838 0.118718
C80   C     C_3   0.080804 0.106624 0.582472 -0.329861
H69   H     H_    0.109519 0.068028 0.628414 0.223541
H70   H     H_    0.056322 0.142693 0.647661 0.218922
C81   C     C_3   0.051411 0.024224 0.489977 -0.969888
H71   H     H_    0.019645 0.059818 0.451585 0.260640
H72   H     H_    0.038120 0.959837 0.530695 0.255245
H73   H     H_    0.074013 0.991243 0.419184 0.257106
O20   O     O_3   0.872658 0.740738 0.354604 -0.565475
C82   C     C_3   0.879318 0.848034 0.409532 0.066511
H74   H     H_    0.873213 0.895127 0.340629 0.167048
H75   H     H_    0.916819 0.870395 0.451045 0.114033
C83   C     C_3   0.842407 0.877659 0.499240 -0.330152
H76   H     H_    0.805127 0.858790 0.455764 0.250850
H77   H     H_    0.847943 0.831735 0.569422 0.204576
C84   C     C_3   0.847482 0.994316 0.554227 -0.923081
H78   H     H_    0.884254 0.014792 0.600059 0.254807
H79   H     H_    0.820333 0.013237 0.618604 0.263072
H80   H     H_    0.841160 0.042198 0.486149 0.259731
N7    N     N_2   0.880542 0.366823 0.751381 -0.379375
H81   H     H_    0.894619 0.294321 0.750999 0.238702
C85   C     C_3   0.878216 0.425731 0.868796 -0.593484
H82   H     H_    0.857823 0.378063 0.919262 0.224760
H83   H     H_    0.859217 0.499413 0.867225 0.246251
H84   H     H_    0.915320 0.445087 0.913243 0.197886
N8    N     N_2   0.129727 0.780922 0.421181 -0.377384
H85   H     H_    0.121295 0.853666 0.465280 0.247923
C86   C     C_3   0.126933 0.774097 0.296181 -0.614067
H86   H     H_    0.150018 0.838458 0.276373 0.224820
H87   H     H_    0.088995 0.781743 0.261155 0.195064
H88   H     H_    0.140231 0.698047 0.252486 0.248915

loop_
_geom_bond_atom_site_label_1
_geom_bond_atom_site_label_2
_ccdc_geom_bond_type
C38   C40   A    
O19   C79   S    
O13   C59   S    
C7    O19   S    
C8    C26   A    
C47   O12   S    
C14   C18   A    
C19   H11   S    
C35   C36   A    
C82   H74   S    
C72   H52   S    
C41   N4    A    
C68   H39   S    
C81   H71   S    
C78   H65   S    
C63   H26   S    
C62   H25   S    
C29   C36   A    
O16   C68   S    
C30   C35   A    
C54   O14   S    
C77   H62   S    
C19   C21   A    
C50   H9    S    
C82   H75   S    
C30   H2    S    
C33   C35   A    
Cu2   O3    S    
C9    C22   A    
C1    O1    A    
N6    H49   S    
C60   H19   S    
C49   C57   A    
C65   H31   S    
C3    C18   A    
N6    C72   S    
C86   H86   S    
C48   N2    A    
C11   C23   S    
C84   H79   S    
Cu1   O8    S    
C76   H61   S    
O20   C82   S    
Cu2   O2    S    
Cu2   N4    S    
C64   H28   S    
C65   H32   S    
N7    C85   S    
C73   C74   S    
C1    C28   S    
C50   C52   A    
C2    C27   S    
C74   H56   S    
C45   O9    S    
C41   C43   A    
C25   H13   S    
C11   C53   A    
C79   C80   S    
C34   H15   S    
C85   H84   S    
C66   H34   S    
Cu1   Cu2   S    
C10   C21   A    
C23   O7    A    
C86   H87   S    
C84   H78   S    
C42   C44   A    
O14   C62   S    
C72   H51   S    
Cu2   O7    S    
C79   H68   S    
C72   H50   S    
C80   C81   S    
C54   C56   A    
C53   C55   A    
C27   C34   A    
C62   C63   S    
C29   H1    S    
C31   O16   S    
C28   C31   A    
C13   C19   A    
C53   O13   S    
C50   C58   A    
C57   N1    S    
C22   N8    S    
Cu1   O4    S    
C80   H70   S    
C60   H20   S    
C82   C83   S    
Cu1   N3    S    
C78   H64   S    
C46   N2    A    
Cu2   O6    S    
C15   C26   A    
C6    C8    A    
C59   C60   S    
C49   C51   A    
C5    C45   A    
C48   O11   S    
C61   H23   S    
C84   H80   S    
C69   H41   S    
C43   C44   A    
Cu1   O5    S    
C3    C9    A    
C14   C20   A    
C70   H44   S    
N5    C71   S    
C33   H16   S    
C80   H69   S    
C14   C15   A    
C71   H46   S    
C37   O17   S    
C40   N5    S    
C61   H22   S    
C2    O4    A    
C40   N3    A    
C64   H29   S    
C16   C18   A    
C74   C75   S    
C59   H18   S    
C24   O8    A    
C52   H7    S    
C78   H66   S    
C4    C6    A    
C39   N6    S    
C28   C33   A    
C9    C47   A    
C49   H10   S    
C55   C57   A    
C10   C48   A    
C70   H42   S    
C86   H88   S    
C73   H54   S    
C2    O2    A    
C69   C70   S    
C4    C17   A    
C83   H77   S    
C68   H38   S    
C76   C77   S    
C79   H67   S    
C5    C7    A    
N5    H45   S    
C66   C67   S    
C8    O20   S    
C16   C25   A    
C15   C17   A    
C12   C24   S    
C75   H57   S    
C60   C61   S    
C6    C46   A    
C27   C32   A    
C55   H5    S    
C75   H59   S    
Cu1   O1    S    
C4    C10   A    
C20   C22   A    
C3    C5    A    
C42   N3    A    
C81   H72   S    
C66   H33   S    
C65   C66   S    
C67   H35   S    
C46   O10   S    
C1    O3    A    
C62   H24   S    
C12   C52   A    
C7    C25   A    
C63   C64   S    
C13   C17   A    
C39   N4    A    
C67   H37   S    
C77   H63   S    
C69   H40   S    
C74   H55   S    
C68   C69   S    
C38   O18   S    
C38   C43   A    
C37   C39   A    
C76   H60   S    
O17   C73   S    
O18   C76   S    
C30   C32   A    
C71   H47   S    
C63   H27   S    
C24   O6    A    
C71   H48   S    
C83   C84   S    
C56   H6    S    
C75   H58   S    
C61   H21   S    
C26   H14   S    
C56   C58   A    
C64   H30   S    
C34   C36   A    
C51   H8    S    
C77   C78   S    
C32   O15   S    
C59   H17   S    
N8    C86   S    
C81   H73   S    
C11   C51   A    
C58   N2    S    
C85   H82   S    
C37   C44   A    
N8    H85   S    
C29   C31   A    
N7    H81   S    
C23   O5    A    
C13   C16   A    
C70   H43   S    
C47   N1    A    
C73   H53   S    
C20   H12   S    
C45   N1    A    
C41   H4    S    
C21   N7    S    
C83   H76   S    
C67   H36   S    
C42   H3    S    
C12   C54   A    
O15   C65   S    
C85   H83   S    
