data_mof_unit_57313.cif
_audit_creation_date              2012-12-10T18:53:05-0500
_audit_creation_method            fapswitch 2.2
_symmetry_space_group_name_H-M    P1
_symmetry_Int_Tables_number       1
_space_group_crystal_system       triclinic
_cell_length_a                    9.840761
_cell_length_b                    10.647878
_cell_length_c                    16.821591
_cell_angle_alpha                 90.153794
_cell_angle_beta                  85.052135
_cell_angle_gamma                 89.682979
_cell_volume                      1756.01654671

loop_
_atom_site_label
_atom_site_type_symbol
_atom_type_description
_atom_site_fract_x
_atom_site_fract_y
_atom_site_fract_z
_atom_type_partial_charge
C1    C     C_R   0.499820 0.739750 0.498297 0.893407
C2    C     C_R   0.064163 0.578467 0.549474 -0.077544
C3    C     C_R   0.079735 0.421568 0.450538 -0.065457
C4    C     C_R   0.920264 0.578432 0.549462 -0.065485
C5    C     C_R   0.481004 0.504708 0.652893 0.852861
C6    C     C_R   0.518996 0.495256 0.347110 0.852836
C7    C     C_R   0.469368 0.527052 0.738121 -0.024083
C8    C     C_R   0.530634 0.472649 0.261909 -0.023996
C9    C     C_R   0.576774 0.586650 0.772564 -0.207559
C10   C     C_R   0.423318 0.412742 0.227565 -0.207549
C11   C     C_R   0.569435 0.605159 0.854215 -0.181697
C12   C     C_R   0.500180 0.260250 0.501703 0.893390
C13   C     C_R   0.430671 0.393912 0.145942 -0.181719
C14   C     C_R   0.455791 0.562384 0.901536 0.207224
C15   C     C_R   0.544235 0.436676 0.098548 0.207214
C16   C     C_R   0.344653 0.509909 0.867303 -0.182284
C17   C     C_R   0.655310 0.489434 0.132699 -0.182260
C18   C     C_R   0.350994 0.492947 0.785200 -0.215045
C19   C     C_R   0.648958 0.506716 0.214776 -0.215109
C20   C     C_2   0.465602 0.549460 0.986578 0.121078
C21   C     C_2   0.534288 0.449495 0.013511 0.121056
C22   C     C_3   0.600412 0.349290 0.959042 -0.938513
C23   C     C_R   0.569695 0.932314 0.555074 -0.234394
C24   C     C_3   0.399433 0.649641 0.041051 -0.938417
C25   C     C_3   0.643580 0.126240 0.622602 -0.877748
C26   C     C_3   0.356415 0.873761 0.377400 -0.877750
C27   C     C_R   0.430307 0.067686 0.444925 -0.234380
C28   C     C_R   0.571390 0.061632 0.558306 0.189375
C29   C     C_R   0.428610 0.938369 0.441694 0.189379
C30   C     C_R   0.501148 0.127846 0.502237 -0.072925
C31   C     C_R   0.498853 0.872155 0.497763 -0.072941
C32   C     C_R   0.935837 0.421533 0.450526 -0.077523
H1    H     H_    0.667356 0.616734 0.736617 0.147086
H2    H     H_    0.378190 0.122157 0.402206 0.145928
H3    H     H_    0.887513 0.358821 0.410979 0.129885
H4    H     H_    0.112487 0.641179 0.589021 0.129876
H5    H     H_    0.140506 0.358866 0.410991 0.120529
H6    H     H_    0.859494 0.641133 0.589009 0.120547
H7    H     H_    0.646710 0.274382 0.994009 0.242794
H8    H     H_    0.523058 0.305265 0.923717 0.252129
H9    H     H_    0.682500 0.390760 0.918108 0.248030
H10   H     H_    0.353118 0.724543 0.006087 0.242778
H11   H     H_    0.317349 0.608139 0.081974 0.248034
H12   H     H_    0.332791 0.382665 0.263565 0.147036
H13   H     H_    0.476758 0.693685 0.076387 0.252143
H14   H     H_    0.572512 0.192266 0.656593 0.229790
H15   H     H_    0.681083 0.057887 0.665571 0.227159
H16   H     H_    0.733073 0.178580 0.595523 0.259755
H17   H     H_    0.427474 0.807719 0.343415 0.229775
H18   H     H_    0.266912 0.821437 0.404481 0.259756
H19   H     H_    0.318929 0.942111 0.334425 0.227154
H20   H     H_    0.733312 0.551305 0.240883 0.154471
H21   H     H_    0.266577 0.448582 0.759023 0.154513
H22   H     H_    0.257292 0.475721 0.904440 0.135605
H23   H     H_    0.742599 0.523629 0.095504 0.135587
H24   H     H_    0.344450 0.353848 0.119122 0.133648
H25   H     H_    0.655698 0.645019 0.881100 0.133622
H26   H     H_    0.621813 0.877843 0.597793 0.145939
N1    N     N_R   0.142790 0.500030 0.500020 -0.079533
N2    N     N_R   0.857210 0.499970 0.499980 -0.079535
O1    O     O_R   0.385380 0.683250 0.500010 -0.614238
O2    O     O_R   0.614620 0.316750 0.499990 -0.614248
O3    O     O_R   0.614710 0.683220 0.500000 -0.623021
O4    O     O_R   0.385290 0.316780 0.500000 -0.623041
O5    O     O_R   0.371780 0.500040 0.615800 -0.617993
O6    O     O_R   0.628220 0.499960 0.384200 -0.617965
O7    O     O_R   0.601110 0.500010 0.615800 -0.621615
O8    O     O_R   0.398890 0.499990 0.384200 -0.621604
Zn1   Zn    Zn3+2 0.346870 0.500020 0.500000 0.942886
Zn2   Zn    Zn3+2 0.653130 0.499980 0.500000 0.942899

loop_
_geom_bond_atom_site_label_1
_geom_bond_atom_site_label_2
_ccdc_geom_bond_type
C23   H26   S    
C2    C4    A    
C7    C18   A    
C14   C20   S    
C27   C29   A    
C12   O2    A    
C25   H15   S    
C26   H19   S    
O3    Zn2   S    
N2    Zn2   S    
C5    O7    A    
C13   H24   S    
C22   H8    S    
C21   C22   S    
O7    Zn2   S    
C26   H18   S    
C28   C30   A    
C29   C31   A    
C16   C18   A    
O4    Zn1   S    
C27   C30   A    
C9    H1    S    
C9    C11   A    
C25   H16   S    
C4    N2    A    
C6    O6    A    
O6    Zn2   S    
C15   C21   S    
N1    Zn1   S    
O5    Zn1   S    
C24   H13   S    
C1    O3    A    
C6    O8    A    
C17   C19   A    
C17   H23   S    
C4    H6    S    
C19   H20   S    
C5    C7    S    
C13   C15   A    
C27   H2    S    
C3    C32   A    
C12   O4    A    
C11   C14   A    
C16   H22   S    
C8    C19   A    
C23   C28   A    
C22   H7    S    
O1    Zn1   S    
C23   C31   A    
C22   H9    S    
C32   H3    S    
C7    C9    A    
C1    C31   S    
C24   H10   S    
C20   C21   D    
O2    Zn2   S    
C26   C29   S    
C5    O5    A    
C26   H17   S    
C2    H4    S    
C15   C17   A    
C24   H11   S    
C32   N2    A    
C2    N1    A    
C6    C8    S    
C18   H21   S    
C12   C30   S    
C14   C16   A    
C11   H25   S    
C10   H12   S    
C25   H14   S    
C8    C10   A    
C20   C24   S    
C3    H5    S    
C3    N1    A    
O8    Zn1   S    
C25   C28   S    
C10   C13   A    
C1    O1    A    
