data_mof_unit_25224.cif
_audit_creation_date              2013-03-05T15:57:28-0500
_audit_creation_method            fapswitch 2.2
_symmetry_space_group_name_H-M    P1
_symmetry_Int_Tables_number       1
_space_group_crystal_system       triclinic
_cell_length_a                    13.870324
_cell_length_b                    15.009059
_cell_length_c                    15.858037
_cell_angle_alpha                 88.093078
_cell_angle_beta                  69.942459
_cell_angle_gamma                 89.731346
_cell_volume                      3099.30704907

loop_
_atom_site_label
_atom_site_type_symbol
_atom_site_description
_atom_site_fract_x
_atom_site_fract_y
_atom_site_fract_z
_atom_type_partial_charge
O1    O     O_R   0.417730 0.629750 0.499970 -0.548091
O2    O     O_R   0.582270 0.370250 0.500030 -0.546914
O3    O     O_R   0.582270 0.629730 0.499980 -0.544159
O4    O     O_R   0.417730 0.370270 0.500020 -0.544823
C1    C     C_R   0.500216 0.670936 0.499114 0.812411
C2    C     C_R   0.499780 0.329057 0.500900 0.814032
O5    O     O_R   0.371590 0.500020 0.629830 -0.558640
O6    O     O_R   0.628410 0.499980 0.370170 -0.559146
O7    O     O_R   0.536130 0.499990 0.629840 -0.570708
O8    O     O_R   0.463870 0.500010 0.370160 -0.568183
C3    C     C_R   0.437441 0.501132 0.672084 0.821992
C4    C     C_R   0.562578 0.500026 0.327878 0.819558
Cu1   Cu    Cu3+1 0.402580 0.500010 0.499990 1.065023
Cu2   Cu    Cu3+1 0.597420 0.499990 0.500010 1.064804
C5    C     C_R   0.400948 0.506312 0.770495 -0.057870
C6    C     C_R   0.599203 0.504187 0.229157 -0.062206
C7    C     C_R   0.264773 0.513561 0.914423 -0.140520
C8    C     C_R   0.734684 0.523396 0.085188 -0.139376
C9    C     C_R   0.296238 0.508349 0.821331 -0.119746
C10   C     C_R   0.703488 0.514375 0.178414 -0.115657
C11   C     C_R   0.473452 0.511052 0.813628 -0.176214
C12   C     C_R   0.527039 0.501472 0.185534 -0.161342
C13   C     C_R   0.444025 0.517821 0.907160 0.090872
C14   C     C_R   0.555771 0.515140 0.092105 0.091460
C15   C     C_R   0.337595 0.517406 0.957668 0.143550
C16   C     C_R   0.661847 0.524068 0.041789 0.139045
C17   C     C_R   0.517233 0.522642 0.951842 0.074506
C18   C     C_R   0.482344 0.518777 0.047427 0.072688
C19   C     C_R   0.375330 0.520798 0.095097 -0.154765
C20   C     C_R   0.623923 0.532364 0.904319 -0.150326
C21   C     C_R   0.304718 0.520674 0.050801 -0.161904
C22   C     C_R   0.694369 0.533643 0.948715 -0.157582
H1    H     H_    0.223519 0.522105 0.090017 0.170960
H2    H     H_    0.775236 0.541554 0.909626 0.165817
H3    H     H_    0.343076 0.524959 0.167024 0.172462
H4    H     H_    0.656122 0.541752 0.832474 0.155834
C23   C     C_R   0.524639 0.184158 0.566888 -0.060924
C24   C     C_R   0.475401 0.815814 0.433119 -0.061853
C25   C     C_R   0.499900 0.232604 0.500846 -0.070859
C26   C     C_R   0.500099 0.767372 0.499178 -0.070637
C27   C     C_R   0.474482 0.189566 0.434902 -0.106843
C28   C     C_R   0.525487 0.810397 0.565143 -0.107271
C29   C     C_R   0.476675 0.096462 0.432050 -0.015860
C30   C     C_R   0.523313 0.903499 0.567990 -0.015748
C31   C     C_R   0.500842 0.046753 0.499746 -0.005325
C32   C     C_R   0.499164 0.953212 0.500287 -0.005536
C33   C     C_R   0.525773 0.090885 0.567376 -0.033232
C34   C     C_R   0.474261 0.909081 0.432641 -0.033428
C35   C     C_R   0.453322 0.052378 0.364071 0.246248
C36   C     C_R   0.546681 0.947576 0.635962 0.247294
C37   C     C_R   0.451447 0.958777 0.364737 0.237307
C38   C     C_R   0.548606 0.041181 0.635272 0.236622
C39   C     C_R   0.224684 0.563607 0.450804 0.437589
C40   C     C_R   0.775517 0.435919 0.548638 0.437131
N1    N     N_R   0.256170 0.500070 0.500040 -0.301603
N2    N     N_R   0.743830 0.499930 0.499960 -0.301669
C41   C     C_R   0.186696 0.436346 0.550639 0.408343
C42   C     C_R   0.813289 0.563978 0.449917 0.409694
C43   C     C_R   0.081505 0.437504 0.555614 -0.178531
C44   C     C_R   0.918672 0.562062 0.444195 -0.176413
C45   C     C_R   0.051400 0.499723 0.500696 0.006599
C46   C     C_R   0.948844 0.499700 0.498882 0.005034
C47   C     C_R   0.123534 0.562492 0.447852 -0.124133
C48   C     C_R   0.876694 0.436916 0.551591 -0.125239
C49   C     C_R   0.005316 0.377821 0.612317 0.341442
C50   C     C_R   0.994896 0.621348 0.387002 0.344727
C51   C     C_R   0.906294 0.376799 0.607742 -0.151406
C52   C     C_R   0.093989 0.622374 0.391447 -0.158850
H5    H     H_    0.851028 0.330367 0.652222 0.232977
H6    H     H_    0.149380 0.668496 0.346636 0.231465
N3    N     N_R   0.292550 0.634618 0.404997 0.135587
O9    O     O_R   0.349257 0.626625 0.321258 -0.377572
O10   O     O_R   0.273763 0.714029 0.436944 -0.324327
N4    N     N_R   0.707753 0.364736 0.594138 0.135158
O11   O     O_R   0.650819 0.372468 0.677851 -0.367185
O12   O     O_R   0.726760 0.285432 0.561950 -0.324596
N5    N     N_R   0.222496 0.362904 0.591318 0.167059
O13   O     O_R   0.236701 0.371378 0.667520 -0.306157
O14   O     O_R   0.226694 0.283996 0.558622 -0.306837
N6    N     N_R   0.777285 0.639119 0.411689 0.167796
O15   O     O_R   0.775677 0.717232 0.445406 -0.308642
O16   O     O_R   0.758624 0.632646 0.337230 -0.310783
N7    N     N_R   0.022727 0.322925 0.681147 0.165769
O17   O     O_R   0.005948 0.237477 0.683871 -0.239775
O18   O     O_R   0.027721 0.360071 0.752516 -0.303704
N8    N     N_R   0.977467 0.675317 0.317533 0.163535
O19   O     O_R   0.967201 0.636833 0.248762 -0.316102
O20   O     O_R   0.998316 0.760222 0.311378 -0.242782
H7    H     H_    0.448643 0.487037 0.226005 0.174095
H8    H     H_    0.552921 0.507484 0.772646 0.183671
H9    H     H_    0.760851 0.515496 0.210536 0.204517
H10   H     H_    0.238778 0.505567 0.789380 0.197783
H11   H     H_    0.183338 0.514104 0.952773 0.161883
H12   H     H_    0.815829 0.530651 0.046964 0.162671
H13   H     H_    0.539889 0.220081 0.619064 0.214874
H14   H     H_    0.460189 0.779892 0.380922 0.214715
H15   H     H_    0.453638 0.229778 0.385924 0.182321
H16   H     H_    0.546303 0.770174 0.614131 0.182007
N9    N     N_R   0.430704 0.102156 0.294255 0.149766
O21   O     O_R   0.500258 0.154035 0.238600 -0.310351
O22   O     O_R   0.344643 0.088912 0.280636 -0.235202
N10   N     N_R   0.569315 0.897786 0.705768 0.149327
O23   O     O_R   0.499779 0.845893 0.761426 -0.314279
O24   O     O_R   0.655443 0.910940 0.719298 -0.237340
N11   N     N_R   0.429006 0.914737 0.294573 0.151880
O25   O     O_R   0.486610 0.929077 0.211145 -0.235886
O26   O     O_R   0.344702 0.868604 0.313059 -0.238354
N12   N     N_R   0.571137 0.085216 0.705394 0.152486
O27   O     O_R   0.513678 0.070795 0.788851 -0.233884
O28   O     O_R   0.655415 0.131404 0.686829 -0.237093

loop_
_geom_bond_atom_site_label_1
_geom_bond_atom_site_label_2
_geom_bond_distance
_ccdc_geom_bond_type
C15   C21   1.390776 A    
C50   C52   1.400377 A    
C16   C22   1.390128 A    
Cu2   N2    2.030480 S    
C8    C16   1.403837 A    
C25   C27   1.391090 A    
C31   C32   1.403952 A    
O5    C3    1.305455 A    
N11   O26   1.300627 A    
N4    O12   1.300772 A    
O1    C1    1.298736 A    
C6    C10   1.399527 A    
C24   C26   1.391592 A    
C14   C16   1.417334 A    
C28   H16   1.082739 S    
N8    O20   1.301116 A    
C49   N7    1.430974 S    
C42   C44   1.433319 A    
N12   O27   1.301013 A    
C23   H13   1.082068 S    
C44   C46   1.412289 A    
C31   C33   1.418569 A    
O4    Cu1   1.957603 S    
C45   C47   1.404290 A    
C27   H15   1.082726 S    
C46   C48   1.403846 A    
C9    H10   1.082762 S    
C40   N4    1.427739 S    
C3    C5    1.470927 S    
C34   C37   1.412126 A    
N9    O21   1.301241 A    
N2    C42   1.384033 A    
C35   C37   1.404848 A    
C36   C38   1.404903 A    
C21   H1    1.084382 S    
C13   C17   1.426888 A    
C23   C33   1.399749 A    
C24   C34   1.399660 A    
C42   N6    1.430267 S    
C26   C28   1.391057 A    
C44   C50   1.424626 A    
Cu1   Cu2   2.702602 S    
C17   C20   1.417340 A    
C27   C29   1.399488 A    
O2    C2    1.298772 A    
C28   C30   1.399460 A    
C4    C6    1.470065 S    
C30   C32   1.418676 A    
C32   C34   1.418581 A    
C11   H8    1.072665 S    
C39   N1    1.374839 A    
C10   H9    1.082358 S    
C40   N2    1.375310 A    
C43   C45   1.413000 A    
N4    O11   1.299900 A    
N10   O23   1.301269 A    
C48   C51   1.403369 A    
C41   N5    1.430040 S    
N6    O16   1.299311 A    
N3    O10   1.300728 A    
N8    O19   1.300956 A    
C29   C35   1.412021 A    
O6    Cu2   1.953770 S    
C49   C51   1.400178 A    
N5    O13   1.299625 A    
C51   H5    1.082698 S    
C22   H2    1.084379 S    
C5    C9    1.399382 A    
O7    Cu2   1.939331 S    
C35   N9    1.436448 S    
O7    C3    1.301679 A    
N7    O17   1.301164 A    
C5    C11   1.399989 A    
O6    C4    1.305221 A    
N5    O14   1.301688 A    
N10   O24   1.301138 A    
C29   C31   1.418676 A    
O3    Cu2   1.957602 S    
O8    C4    1.301675 A    
O4    C2    1.296810 A    
N7    O18   1.301026 A    
C36   N10   1.436498 S    
C11   C13   1.404033 A    
C8    H12   1.083903 S    
C12   C14   1.404120 A    
O1    Cu1   1.959538 S    
C39   N3    1.427782 S    
C30   C36   1.411984 A    
C47   C52   1.403667 A    
C18   C19   1.416688 A    
C6    C12   1.399749 A    
N9    O22   1.301145 A    
C14   C18   1.426220 A    
N6    O15   1.301614 A    
O3    C1    1.296745 A    
O8    Cu1   1.939331 S    
C50   N8    1.431653 S    
C33   C38   1.412218 A    
N11   O25   1.301012 A    
C19   H3    1.076812 S    
C20   H4    1.076231 S    
C7    C15   1.404353 A    
N1    C41   1.383615 A    
N3    O9    1.299898 A    
C19   C21   1.387332 A    
C43   C49   1.425206 A    
C20   C22   1.386963 A    
C39   C47   1.419920 A    
C40   C48   1.420259 A    
C7    C9    1.393326 A    
C12   H7    1.074947 S    
N12   O28   1.300645 A    
C8    C10   1.392704 A    
C13   C15   1.417572 A    
C45   C46   1.432603 A    
O2    Cu2   1.959536 S    
C37   N11   1.435363 S    
C41   C43   1.433954 A    
O5    Cu1   1.953772 S    
C7    H11   1.083884 S    
C38   N12   1.435353 S    
C23   C25   1.391685 A    
C1    C26   1.447439 S    
C24   H14   1.082087 S    
C17   C18   1.423519 A    
C52   H6    1.082684 S    
C2    C25   1.447680 S    
Cu1   N1    2.030478 S    
