data_mof_unit_38041.cif
_audit_creation_date              2012-12-11T14:38:16-0500
_audit_creation_method            fapswitch 2.2
_symmetry_space_group_name_H-M    P1
_symmetry_Int_Tables_number       1
_space_group_crystal_system       triclinic
_cell_length_a                    19.557572
_cell_length_b                    11.055323
_cell_length_c                    19.647285
_cell_angle_alpha                 89.972211
_cell_angle_beta                  96.91553
_cell_angle_gamma                 89.897573
_cell_volume                      4217.12974433

loop_
_atom_site_label
_atom_site_type_symbol
_atom_type_description
_atom_site_fract_x
_atom_site_fract_y
_atom_site_fract_z
_atom_type_partial_charge
C1    C     C_R   0.709044 0.993533 0.366587 0.553833
C2    C     C_R   0.275849 0.956227 0.638762 0.558801
C3    C     C_R   0.209045 0.493531 0.366587 0.553833
C4    C     C_R   0.775851 0.456230 0.638761 0.558803
C5    C     C_3   0.677387 0.440599 0.457916 0.164399
C6    C     C_3   0.318369 0.442929 0.541060 0.159460
C7    C     C_3   0.177389 0.940632 0.457912 0.164407
C8    C     C_3   0.818369 0.942918 0.541057 0.159470
C9    C     C_3   0.821149 0.498806 0.530215 -0.227251
C10   C     C_3   0.172422 0.518804 0.481923 -0.252207
C11   C     C_3   0.321152 0.998790 0.530218 -0.227243
C12   C     C_3   0.672424 0.018814 0.481924 -0.252204
C13   C     C_3   0.766858 0.298913 0.551399 -0.270251
C14   C     C_3   0.214562 0.319337 0.446470 -0.235646
C15   C     C_3   0.266840 0.798909 0.551398 -0.270274
C16   C     C_3   0.714553 0.819340 0.446470 -0.235644
C17   C     C_3   0.763093 0.433605 0.565592 0.022245
C18   C     C_3   0.224889 0.456541 0.438503 0.020269
C19   C     C_3   0.263090 0.933603 0.565592 0.022253
C20   C     C_3   0.724886 0.956542 0.438503 0.020272
C21   C     C_3   0.747507 0.399816 0.433941 0.076853
C22   C     C_3   0.250263 0.399615 0.566986 0.078943
C23   C     C_3   0.247507 0.899819 0.433940 0.076849
C24   C     C_3   0.750261 0.899614 0.566985 0.078939
C25   C     C_3   0.802914 0.497324 0.451574 -0.254289
C26   C     C_3   0.194105 0.497137 0.558692 -0.232993
C27   C     C_3   0.302922 0.997311 0.451577 -0.254280
C28   C     C_3   0.694106 0.997140 0.558693 -0.232991
C29   C     C_3   0.773215 0.284910 0.475523 -0.260755
C30   C     C_3   0.222455 0.289937 0.522354 -0.273599
C31   C     C_3   0.273202 0.784907 0.475523 -0.260754
C32   C     C_3   0.722447 0.789938 0.522355 -0.273601
C33   C     C_3   0.545875 0.285445 0.950358 -0.205510
C34   C     C_3   0.570773 0.284643 0.027169 -0.217631
C35   C     C_3   0.045872 0.785448 0.950359 -0.205503
C36   C     C_3   0.070772 0.784644 0.027169 -0.217625
C37   C     C_3   0.436414 0.176708 0.971326 -0.227177
C38   C     C_3   0.564649 0.058329 0.029796 -0.207621
C39   C     C_3   0.936414 0.676702 0.971326 -0.227175
C40   C     C_3   0.064650 0.558330 0.029795 -0.207619
C41   C     C_3   0.541768 0.056301 0.951232 0.094052
C42   C     C_3   0.458961 0.180389 0.048857 0.112851
C43   C     C_3   0.041771 0.556304 0.951231 0.094050
C44   C     C_3   0.958962 0.680388 0.048857 0.112852
C45   C     C_R   0.535887 0.180311 0.338533 0.541665
C46   C     C_R   0.463924 0.180248 0.661334 0.534157
C47   C     C_R   0.035887 0.680311 0.338533 0.541678
C48   C     C_R   0.963924 0.680248 0.661334 0.534167
C49   C     C_3   0.499720 0.173182 0.930636 0.053925
C50   C     C_3   0.539051 0.176100 0.062439 0.050041
C51   C     C_3   0.999720 0.673183 0.930636 0.053924
C52   C     C_3   0.039051 0.676101 0.062439 0.050042
C53   C     C_1   0.780254 0.473157 0.914391 -0.015246
C54   C     C_1   0.238501 0.424774 0.096180 -0.014885
C55   C     C_1   0.280254 0.973157 0.914391 -0.015245
C56   C     C_1   0.738501 0.924774 0.096180 -0.014886
C57   C     C_1   0.757943 0.435375 0.041464 -0.048649
C58   C     C_1   0.253246 0.403846 0.966234 0.001534
C59   C     C_1   0.257943 0.935375 0.041463 -0.048648
C60   C     C_1   0.753246 0.903846 0.966234 0.001535
C61   C     C_1   0.769567 0.456961 0.972911 -0.049019
C62   C     C_1   0.247066 0.412898 0.036846 -0.031132
C63   C     C_1   0.269567 0.956961 0.972911 -0.049018
C64   C     C_1   0.747066 0.912898 0.036846 -0.031131
C65   C     C_1   0.748257 0.408685 0.099054 -0.015013
C66   C     C_1   0.257614 0.390553 0.906056 0.020410
C67   C     C_1   0.248257 0.908685 0.099054 -0.015013
C68   C     C_1   0.757614 0.890553 0.906056 0.020411
C69   C     C_R   0.739637 0.364131 0.361067 0.556379
C70   C     C_R   0.261358 0.359393 0.638016 0.562574
C71   C     C_R   0.239637 0.864132 0.361067 0.556381
C72   C     C_R   0.761358 0.859392 0.638016 0.562575
C73   C     C_R   0.722314 0.953406 0.163515 0.545115
C74   C     C_R   0.294416 0.996165 0.845510 0.556850
C75   C     C_R   0.222314 0.453406 0.163515 0.545115
C76   C     C_R   0.794416 0.496165 0.845510 0.556851
C77   C     C_R   0.561642 0.182317 0.136943 0.561996
C78   C     C_R   0.471349 0.178869 0.857589 0.531748
C79   C     C_R   0.061642 0.682317 0.136943 0.561994
C80   C     C_R   0.971349 0.678869 0.857589 0.531741
C81   C     C_R   0.736690 0.361159 0.164683 0.538970
C82   C     C_R   0.264274 0.357931 0.836624 0.541090
C83   C     C_R   0.236690 0.861159 0.164683 0.538973
C84   C     C_R   0.764274 0.857931 0.836624 0.541090
C85   C     C_1   0.484981 0.172826 0.594119 -0.041235
C86   C     C_1   0.514213 0.172949 0.405487 -0.040357
C87   C     C_1   0.984981 0.672826 0.594120 -0.041220
C88   C     C_1   0.014213 0.672949 0.405488 -0.040317
C89   C     C_1   0.503747 0.169958 0.464639 -0.083153
C90   C     C_1   0.495077 0.169869 0.534864 -0.081530
C91   C     C_1   0.003747 0.669958 0.464639 -0.083142
C92   C     C_1   0.995077 0.669869 0.534865 -0.081539
C93   C     C_3   0.689693 0.474474 0.534508 -0.205934
C94   C     C_3   0.302503 0.479204 0.465573 -0.191748
C95   C     C_3   0.189694 0.974489 0.534507 -0.205944
C96   C     C_3   0.802501 0.979195 0.465571 -0.191766
Cr1   Cr    Cr6+3 0.765780 0.160710 0.267420 1.000250
Cr2   Cr    Cr6+3 0.234220 0.160710 0.732580 0.999708
Cr3   Cr    Cr6+3 0.265780 0.660710 0.267420 1.000244
Cr4   Cr    Cr6+3 0.734220 0.660710 0.732580 0.999708
Cr5   Cr    Cr6+3 0.612200 0.009560 0.248850 1.004630
Cr6   Cr    Cr6+3 0.387800 0.009560 0.751150 1.000654
Cr7   Cr    Cr6+3 0.112200 0.509560 0.248850 1.004622
Cr8   Cr    Cr6+3 0.887800 0.509560 0.751150 1.000654
Cr9   Cr    Cr6+3 0.616030 0.323720 0.248510 1.031665
Cr10  Cr    Cr6+3 0.383970 0.323720 0.751490 1.023515
Cr11  Cr    Cr6+3 0.116030 0.823720 0.248510 1.031652
Cr12  Cr    Cr6+3 0.883970 0.823720 0.751490 1.023516
H1    H     H_    0.682294 0.571199 0.541898 0.149180
H2    H     H_    0.319778 0.571342 0.457024 0.141163
H3    H     H_    0.182301 0.071212 0.541906 0.149166
H4    H     H_    0.819778 0.071333 0.457022 0.141135
H5    H     H_    0.828497 0.268334 0.469838 0.143600
H6    H     H_    0.170642 0.264473 0.535790 0.141951
H7    H     H_    0.328485 0.768324 0.469844 0.143609
H8    H     H_    0.670634 0.764474 0.535792 0.141979
H9    H     H_    0.870293 0.447881 0.542784 0.139981
H10   H     H_    0.121176 0.475550 0.468260 0.132190
H11   H     H_    0.370292 0.947857 0.542790 0.139965
H12   H     H_    0.621175 0.975571 0.468260 0.132197
H13   H     H_    0.850007 0.477285 0.426896 0.118047
H14   H     H_    0.148068 0.468373 0.582890 0.118655
H15   H     H_    0.350016 0.977255 0.426902 0.118051
H16   H     H_    0.648068 0.968376 0.582890 0.118658
H17   H     H_    0.516746 0.370946 0.938333 0.148328
H18   H     H_    0.627950 0.278033 0.034952 0.106078
H19   H     H_    0.016739 0.870947 0.938336 0.148330
H20   H     H_    0.127949 0.778033 0.034951 0.106082
H21   H     H_    0.590824 0.286335 0.920601 0.166025
H22   H     H_    0.556628 0.372272 0.049637 0.183272
H23   H     H_    0.090820 0.786346 0.920601 0.166022
H24   H     H_    0.056630 0.872272 0.049639 0.183270
H25   H     H_    0.403409 0.256617 0.955546 0.161679
H26   H     H_    0.621650 0.053034 0.040279 0.164111
H27   H     H_    0.903406 0.756605 0.955546 0.161675
H28   H     H_    0.121651 0.553034 0.040280 0.164110
H29   H     H_    0.508647 0.975033 0.939357 0.129325
H30   H     H_    0.438007 0.099298 0.073187 0.121461
H31   H     H_    0.008653 0.475034 0.939354 0.129328
H32   H     H_    0.938007 0.599298 0.073189 0.121460
H33   H     H_    0.543617 0.977203 0.053535 0.108159
H34   H     H_    0.404052 0.095168 0.959210 0.068075
H35   H     H_    0.043616 0.477204 0.053534 0.108156
H36   H     H_    0.904056 0.595157 0.959212 0.068077
H37   H     H_    0.649797 0.429763 0.561747 0.073476
H38   H     H_    0.335517 0.423154 0.435442 0.085352
H39   H     H_    0.149793 0.929782 0.561741 0.073457
H40   H     H_    0.835512 0.923142 0.435439 0.085367
H41   H     H_    0.643049 0.359594 0.452013 0.105495
H42   H     H_    0.353627 0.362735 0.544480 0.094911
H43   H     H_    0.143035 0.859648 0.451997 0.105564
H44   H     H_    0.853620 0.862718 0.544477 0.094934
H45   H     H_    0.334453 0.090021 0.550249 0.106640
H46   H     H_    0.660166 0.114608 0.471168 0.088641
H47   H     H_    0.834448 0.590037 0.550247 0.106631
H48   H     H_    0.160157 0.614595 0.471164 0.088650
H49   H     H_    0.283427 0.085914 0.432617 0.147404
H50   H     H_    0.713957 0.078108 0.586385 0.148298
H51   H     H_    0.783408 0.585920 0.432616 0.147398
H52   H     H_    0.213955 0.578111 0.586380 0.148310
H53   H     H_    0.810764 0.254435 0.582422 0.196001
H54   H     H_    0.162540 0.288934 0.424181 0.178168
H55   H     H_    0.310737 0.754416 0.582427 0.196031
H56   H     H_    0.662530 0.788943 0.424184 0.178141
H57   H     H_    0.718431 0.257855 0.563545 0.108647
H58   H     H_    0.252654 0.270148 0.419497 0.134923
H59   H     H_    0.218405 0.757866 0.563537 0.108639
H60   H     H_    0.752642 0.770147 0.419496 0.134916
H61   H     H_    0.744194 0.207681 0.454362 0.122767
H62   H     H_    0.257449 0.213888 0.531911 0.112104
H63   H     H_    0.244180 0.707682 0.454358 0.122764
H64   H     H_    0.757437 0.713885 0.531910 0.112099
O1    O     O_R   0.783100 0.287550 0.345460 -0.552395
O2    O     O_R   0.216900 0.287550 0.654540 -0.550187
O3    O     O_R   0.283100 0.787550 0.345460 -0.552393
O4    O     O_R   0.716900 0.787550 0.654540 -0.550189
O5    O     O_R   0.554710 0.081900 0.170950 -0.513351
O6    O     O_R   0.445290 0.081900 0.829050 -0.529866
O7    O     O_R   0.054710 0.581900 0.170950 -0.513351
O8    O     O_R   0.945290 0.581900 0.829050 -0.529866
O9    O     O_R   0.545650 0.284910 0.163740 -0.450693
O10   O     O_R   0.454350 0.284910 0.836260 -0.524419
O11   O     O_R   0.045650 0.784910 0.163740 -0.450701
O12   O     O_R   0.954350 0.784910 0.836260 -0.524426
O13   O     O_R   0.677950 0.374280 0.185410 -0.517763
O14   O     O_R   0.322050 0.374280 0.814590 -0.497385
O15   O     O_R   0.177950 0.874280 0.185410 -0.517763
O16   O     O_R   0.822050 0.874280 0.814590 -0.497390
O17   O     O_3   0.664670 0.164660 0.254930 -0.296089
O18   O     O_3   0.335330 0.164660 0.745070 -0.276789
O19   O     O_3   0.164670 0.664660 0.254930 -0.296086
O20   O     O_3   0.835330 0.664660 0.745070 -0.276792
O21   O     O_R   0.760020 0.037400 0.337700 -0.510779
O22   O     O_R   0.239980 0.037400 0.662300 -0.510171
O23   O     O_R   0.260020 0.537400 0.337700 -0.510784
O24   O     O_R   0.739980 0.537400 0.662300 -0.510168
O25   O     O_R   0.666600 0.921990 0.332020 -0.522717
O26   O     O_R   0.333400 0.921990 0.667980 -0.523823
O27   O     O_R   0.166600 0.421990 0.332020 -0.522722
O28   O     O_R   0.833400 0.421990 0.667980 -0.523833
O29   O     O_R   0.557260 0.082670 0.312540 -0.505632
O30   O     O_R   0.442740 0.082670 0.687460 -0.500217
O31   O     O_R   0.057260 0.582670 0.312540 -0.505638
O32   O     O_R   0.942740 0.582670 0.687460 -0.500226
O33   O     O_R   0.548410 0.285740 0.316480 -0.511615
O34   O     O_R   0.451590 0.285740 0.683520 -0.519905
O35   O     O_R   0.048410 0.785740 0.316480 -0.511606
O36   O     O_R   0.951590 0.785740 0.683520 -0.519850
O37   O     O_R   0.680500 0.375040 0.327000 -0.462395
O38   O     O_R   0.319500 0.375040 0.673000 -0.459497
O39   O     O_R   0.180500 0.875040 0.327000 -0.462412
O40   O     O_R   0.819500 0.875040 0.673000 -0.459476
O41   O     O_R   0.780350 0.286720 0.192720 -0.503954
O42   O     O_R   0.219650 0.286720 0.807280 -0.516367
O43   O     O_R   0.280350 0.786720 0.192720 -0.503952
O44   O     O_R   0.719650 0.786720 0.807280 -0.516365
O45   O     O_R   0.757470 0.036630 0.196110 -0.484350
O46   O     O_R   0.242530 0.036630 0.803890 -0.489147
O47   O     O_R   0.257470 0.536630 0.196110 -0.484349
O48   O     O_R   0.742530 0.536630 0.803890 -0.489148
O49   O     O_R   0.663840 0.921160 0.179280 -0.515608
O50   O     O_R   0.336160 0.921160 0.820720 -0.499825
O51   O     O_R   0.163840 0.421160 0.179280 -0.515610
O52   O     O_R   0.836160 0.421160 0.820720 -0.499823
O53   O     O_3   0.432859 0.285746 0.076627 -0.671872
H65   H     H_    0.383268 0.270943 0.079752 0.321078
O54   O     O_3   0.600109 0.048626 0.916015 -0.712230
H66   H     H_    0.584380 0.016242 0.869674 0.331571
O55   O     O_3   0.932859 0.785747 0.076625 -0.671874
H67   H     H_    0.883269 0.770942 0.079754 0.321079
O56   O     O_3   0.100113 0.548637 0.916016 -0.712230
H68   H     H_    0.084386 0.516261 0.869673 0.331570
O57   O     O_3   0.648011 0.538721 0.417600 -0.567140
C97   C     C_3   0.577527 0.554268 0.426219 0.001569
H69   H     H_    0.573651 0.609833 0.472631 0.111234
H70   H     H_    0.550202 0.466992 0.431660 0.131921
C98   C     C_3   0.540464 0.619965 0.363880 -0.242762
H71   H     H_    0.566316 0.707417 0.356269 0.170063
H72   H     H_    0.542880 0.563602 0.317388 0.188518
C99   C     C_3   0.465103 0.644310 0.372717 -0.468109
H73   H     H_    0.437710 0.557991 0.379531 0.145621
H74   H     H_    0.439379 0.690892 0.326456 0.164839
H75   H     H_    0.461517 0.703159 0.417986 0.131006
O58   O     O_3   0.348039 0.540748 0.581170 -0.575488
C100  C     C_3   0.419642 0.549372 0.576324 -0.002568
H76   H     H_    0.428521 0.578250 0.523875 0.107379
H77   H     H_    0.446200 0.461417 0.588347 0.155517
C101  C     C_3   0.451812 0.642728 0.627958 -0.246769
H78   H     H_    0.427064 0.732257 0.617195 0.166743
H79   H     H_    0.443182 0.614361 0.680538 0.181113
C102  C     C_3   0.529073 0.655790 0.624697 -0.470405
H80   H     H_    0.555437 0.566948 0.632909 0.148539
H81   H     H_    0.551321 0.719216 0.665218 0.160084
H82   H     H_    0.538441 0.692994 0.574183 0.125613
O59   O     O_3   0.148035 0.038771 0.417598 -0.567150
C103  C     C_3   0.077566 0.054427 0.426252 0.001535
H83   H     H_    0.073741 0.110169 0.472608 0.111267
H84   H     H_    0.050223 0.967209 0.431817 0.131771
C104  C     C_3   0.040479 0.119947 0.363863 -0.242758
H85   H     H_    0.066351 0.207337 0.356137 0.170117
H86   H     H_    0.042845 0.063414 0.317427 0.188564
C105  C     C_3   0.965138 0.144423 0.372729 -0.468128
H87   H     H_    0.937728 0.058164 0.379656 0.145560
H88   H     H_    0.939396 0.190875 0.326431 0.164841
H89   H     H_    0.961602 0.203436 0.417941 0.131035
O60   O     O_3   0.848047 0.040727 0.581168 -0.575461
C106  C     C_3   0.919642 0.049392 0.576285 -0.002560
H90   H     H_    0.928482 0.078447 0.523855 0.107420
H91   H     H_    0.946215 0.961416 0.588205 0.155363
C107  C     C_3   0.951836 0.142597 0.627998 -0.246726
H92   H     H_    0.927048 0.232127 0.617364 0.166823
H93   H     H_    0.943275 0.114011 0.680559 0.181102
C108  C     C_3   0.029079 0.155786 0.624665 -0.470429
H94   H     H_    0.055482 0.066956 0.632756 0.148506
H95   H     H_    0.051344 0.219106 0.665236 0.160089
H96   H     H_    0.038379 0.193182 0.574175 0.125617

loop_
_geom_bond_atom_site_label_1
_geom_bond_atom_site_label_2
_ccdc_geom_bond_type
C94   H38   S    
C39   C51   S    
C41   O54   S    
C58   C62   S    
C9    H47   S    
Cr11  O15   S    
C16   C32   S    
C42   H30   S    
C9    H9    S    
C14   C18   S    
C1    O21   A    
C35   C36   S    
C8    C96   S    
C12   H46   S    
Cr12  O36   S    
C104  C105  S    
C83   O15   A    
C105  H89   S    
Cr3   O43   S    
C9    C25   S    
C102  H80   S    
C36   H20   S    
C16   H56   S    
C67   C83   S    
C40   H28   S    
C11   C19   S    
C69   O1    A    
C48   O36   A    
C82   O14   A    
Cr8   O32   S    
C10   C18   S    
C13   C29   S    
C8    H44   S    
O58   C100  S    
C75   O47   A    
C72   O40   A    
Cr5   O17   S    
C74   O46   A    
Cr6   O26   S    
Cr2   O2    S    
C106  C107  S    
C43   O56   S    
C102  H81   S    
Cr11  O39   S    
Cr9   O13   S    
Cr10  O38   S    
C103  C104  S    
Cr3   O23   S    
C108  H96   S    
Cr9   O37   S    
C49   C78   S    
Cr2   O22   S    
C3    C18   S    
C46   O34   A    
C48   O32   A    
C26   H52   S    
C103  H84   S    
Cr1   O21   S    
C37   C42   S    
Cr2   O46   S    
C51   C80   S    
C30   H62   S    
C21   C25   S    
C59   C67   T    
C33   H17   S    
C82   O42   A    
C55   C74   S    
C13   H57   S    
C58   C66   T    
C40   C43   S    
C81   O41   A    
C57   C61   S    
C79   O11   A    
C78   O6    A    
C6    C94   S    
C108  H95   S    
C55   C63   T    
C13   H53   S    
Cr4   O4    S    
C3    O27   A    
C56   C64   T    
C107  H93   S    
C93   H37   S    
C73   O49   A    
C23   C27   S    
C14   H58   S    
C52   C79   S    
O57   C97   S    
C100  C101  S    
C41   H29   S    
C36   C52   S    
C101  C102  S    
C34   H18   S    
Cr5   O29   S    
C46   C85   S    
Cr7   O51   S    
C5    C93   S    
C44   C52   S    
Cr1   O17   S    
C20   C96   S    
C46   O30   A    
C75   O51   A    
C44   H32   S    
C12   H12   S    
C87   C92   T    
C99   H74   S    
Cr8   O28   S    
C107  C108  S    
C6    O58   S    
Cr4   O20   S    
C97   H70   S    
C14   C30   S    
C31   H7    S    
C22   C70   S    
Cr12  O40   S    
C101  H79   S    
O53   H65   S    
Cr4   O24   S    
C24   C72   S    
Cr5   O25   S    
C96   H40   S    
C79   O7    A    
C34   C50   S    
Cr1   O1    S    
C37   H34   S    
Cr12  O12   S    
C73   O45   A    
C68   C84   S    
Cr9   O17   S    
Cr6   O18   S    
C95   H39   S    
Cr10  O14   S    
C38   C41   S    
C8    O60   S    
C11   H11   S    
C98   C99   S    
C10   H48   S    
C77   O9    A    
C81   O13   A    
C100  H76   S    
C27   H15   S    
C27   H49   S    
C102  H82   S    
C39   H27   S    
C54   C62   T    
C5    C21   S    
C40   C52   S    
C21   C29   S    
C15   C31   S    
C94   H2    S    
C99   H75   S    
C3    O23   A    
C21   C69   S    
C2    O22   A    
C97   C98   S    
C23   C31   S    
C14   H54   S    
C15   C19   S    
C44   O55   S    
C24   C32   S    
C25   H51   S    
O55   H67   S    
C10   H10   S    
C23   C71   S    
C66   C82   S    
C77   O5    A    
C60   C68   T    
C65   C81   S    
O54   H66   S    
O56   H68   S    
C88   C91   T    
C11   C27   S    
C16   C20   S    
C57   C65   T    
C103  H83   S    
C12   C20   S    
C28   H50   S    
C33   C34   S    
C48   C87   S    
C47   O31   A    
Cr7   O27   S    
C72   O4    A    
C32   H8    S    
C35   H19   S    
C70   O2    A    
C34   H22   S    
C37   C49   S    
C105  H87   S    
Cr12  O20   S    
Cr2   O18   S    
C42   C50   S    
C7    H43   S    
C4    C17   S    
Cr11  O11   S    
C9    C17   S    
C33   H21   S    
Cr3   O47   S    
C71   O39   A    
C25   H13   S    
C100  H77   S    
C35   C51   S    
Cr6   O6    S    
C38   H33   S    
Cr1   O45   S    
C84   O16   A    
C53   C76   S    
C17   C93   S    
C97   H69   S    
Cr10  O18   S    
C53   C61   T    
O59   C103  S    
C15   H59   S    
C35   H23   S    
C91   C92   S    
C19   C95   S    
C101  H78   S    
Cr6   O50   S    
Cr8   O20   S    
C12   C28   S    
C30   H6    S    
C42   O53   S    
Cr5   O49   S    
C4    O24   A    
C29   H5    S    
Cr4   O44   S    
C1    C20   S    
C45   O33   A    
C56   C73   S    
C22   C30   S    
C36   H24   S    
C7    O59   S    
C2    C19   S    
C2    O26   A    
Cr11  O35   S    
Cr12  O16   S    
C1    O25   A    
C24   C28   S    
C80   O12   A    
Cr1   O41   S    
C104  H86   S    
C86   C89   T    
Cr10  O34   S    
C83   O43   A    
C85   C90   T    
C28   H16   S    
Cr9   O33   S    
C39   C44   S    
C38   C50   S    
C32   H64   S    
C47   O35   A    
C43   H31   S    
C108  H94   S    
C41   C49   S    
C7    C95   S    
C74   O50   A    
C59   C63   S    
C96   H4    S    
C13   C17   S    
C60   C64   S    
C106  H90   S    
Cr9   O9    S    
C47   C88   S    
C98   H72   S    
C45   C86   S    
Cr6   O30   S    
C80   O8    A    
C95   H3    S    
Cr3   O19   S    
C106  H91   S    
C43   C51   S    
Cr8   O8    S    
C7    C23   S    
C31   H63   S    
C16   H60   S    
C18   C94   S    
C5    H41   S    
C10   C26   S    
C99   H73   S    
C8    C24   S    
C71   O3    A    
C29   H61   S    
C69   O37   A    
Cr7   O7    S    
Cr10  O10   S    
C38   H26   S    
Cr2   O42   S    
C37   H25   S    
Cr7   O31   S    
Cr3   O3    S    
Cr5   O5    S    
O60   C106  S    
C11   H45   S    
C54   C75   S    
C6    H42   S    
C84   O44   A    
C76   O52   A    
C4    O28   A    
C105  H88   S    
Cr7   O19   S    
C39   H36   S    
Cr4   O48   S    
C45   O29   A    
C22   C26   S    
C40   H35   S    
Cr11  O19   S    
C50   C77   S    
C107  H92   S    
C76   O48   A    
C5    O57   S    
C26   H14   S    
C70   O38   A    
C78   O10   A    
C89   C90   S    
C98   H71   S    
C33   C49   S    
Cr8   O52   S    
C15   H55   S    
C104  H85   S    
C93   H1    S    
C6    C22   S    
