data_mof_unit_34779.cif
_audit_creation_date              2012-12-11T14:50:38-0500
_audit_creation_method            fapswitch 2.2
_symmetry_space_group_name_H-M    P1
_symmetry_Int_Tables_number       1
_space_group_crystal_system       triclinic
_cell_length_a                    10.912842
_cell_length_b                    10.943583
_cell_length_c                    18.812904
_cell_angle_alpha                 90.179767
_cell_angle_beta                  89.719123
_cell_angle_gamma                 59.871921
_cell_volume                      1943.15572403

loop_
_atom_site_label
_atom_site_type_symbol
_atom_type_description
_atom_site_fract_x
_atom_site_fract_y
_atom_site_fract_z
_atom_type_partial_charge
C1    C     C_R   0.233214 0.647174 0.608822 0.569908
C2    C     C_3   0.776921 0.505699 0.796174 -0.246258
C3    C     C_3   0.687752 0.664458 0.815753 0.023131
C4    C     C_3   0.647809 0.621772 0.683103 0.025609
C5    C     C_3   0.686998 0.740539 0.688230 -0.010740
C6    C     C_3   0.764057 0.484207 0.717345 -0.236125
C7    C     C_R   0.793922 0.148252 0.705136 -0.146926
C8    C     C_R   0.803132 0.145449 0.779957 0.014741
C9    C     C_R   0.692812 0.143413 0.819945 -0.009311
C10   C     C_R   0.576832 0.150721 0.783446 -0.157020
C11   C     C_R   0.573363 0.148018 0.711046 -0.129852
C12   C     C_R   0.628573 0.589483 0.609034 0.563439
C13   C     C_R   0.674543 0.159306 0.671377 0.005995
C14   C     C_R   0.179237 0.554967 0.720571 0.078864
C15   C     C_R   0.169883 0.563950 0.794418 -0.132117
C16   C     C_R   0.156834 0.682764 0.829766 -0.012281
C17   C     C_R   0.148629 0.794581 0.790487 -0.129701
C18   C     C_R   0.155626 0.788153 0.717541 -0.153808
C19   C     C_R   0.179255 0.665813 0.681673 0.040938
C20   C     C_R   0.809356 0.610792 0.295861 0.043025
C21   C     C_R   0.824911 0.627383 0.223712 -0.133095
C22   C     C_R   0.707267 0.710933 0.181370 -0.008417
C23   C     C_R   0.630926 0.223621 0.601407 0.546912
C24   C     C_R   0.571991 0.783617 0.212088 -0.147996
C25   C     C_R   0.554175 0.766011 0.283931 -0.165559
C26   C     C_R   0.671313 0.675046 0.325738 -0.000254
C27   C     C_R   0.581872 0.110805 0.294278 -0.128023
C28   C     C_R   0.582224 0.097206 0.221593 -0.111706
C29   C     C_R   0.657354 0.142219 0.178831 0.044418
C30   C     C_R   0.737913 0.194958 0.209283 -0.139984
C31   C     C_R   0.738143 0.208326 0.282201 -0.141518
C32   C     C_R   0.655777 0.170958 0.324596 0.022843
C33   C     C_R   0.078996 0.796344 0.304646 -0.140675
C34   C     C_R   0.222337 0.648393 0.401560 0.577966
C35   C     C_R   0.054391 0.809922 0.232912 -0.156528
C36   C     C_R   0.115474 0.689670 0.188449 0.021474
C37   C     C_R   0.192068 0.554054 0.216620 0.061471
C38   C     C_R   0.218736 0.541189 0.288587 -0.085158
C39   C     C_R   0.165073 0.662510 0.332029 0.033871
C40   C     C_R   0.703125 0.100270 0.894926 0.561956
C41   C     C_R   0.719791 0.685357 0.889680 0.560158
C42   C     C_R   0.113469 0.709032 0.904046 0.550034
C43   C     C_R   0.675661 0.103822 0.104974 0.550393
C44   C     C_R   0.731759 0.717964 0.105491 0.550979
C45   C     C_R   0.645283 0.626223 0.393783 0.581401
C46   C     C_R   0.086290 0.713068 0.114263 0.559066
C47   C     C_R   0.619335 0.227245 0.395572 0.546976
C48   C     C_3   0.528354 0.711306 0.803917 -0.043817
C49   C     C_3   0.509396 0.671609 0.726992 -0.249597
C50   C     C_3   0.732612 0.747400 0.764888 -0.209349
Cr1   Cr    Cr6+3 0.392930 0.397900 0.502230 1.082047
Cr2   Cr    Cr6+3 0.398240 0.708600 0.501260 1.042752
Cr3   Cr    Cr6+3 0.708800 0.393470 0.496460 1.067716
Cr4   Cr    Cr6+3 0.937620 0.938540 0.007640 1.081469
Cr5   Cr    Cr6+3 0.625150 0.937450 0.994520 1.070889
Cr6   Cr    Cr6+3 0.937990 0.625080 0.001190 1.067632
H1    H     H_    0.868232 0.447481 0.690955 0.213818
H2    H     H_    0.849565 0.700823 0.767040 0.149861
H3    H     H_    0.871927 0.157332 0.673288 0.177999
H4    H     H_    0.488140 0.152733 0.810541 0.190833
H5    H     H_    0.483525 0.149042 0.686453 0.187901
H6    H     H_    0.167160 0.480493 0.823933 0.156298
H7    H     H_    0.132108 0.890007 0.816107 0.213276
H8    H     H_    0.495943 0.655176 0.842160 0.138320
H9    H     H_    0.150373 0.877097 0.689628 0.184872
H10   H     H_    0.929624 0.573332 0.199961 0.174119
H11   H     H_    0.479684 0.849244 0.180202 0.152285
H12   H     H_    0.447479 0.816129 0.305463 0.149726
H13   H     H_    0.518045 0.081394 0.326341 0.142556
H14   H     H_    0.523283 0.051770 0.198755 0.154790
H15   H     H_    0.800743 0.224910 0.176769 0.149795
H16   H     H_    0.795686 0.255865 0.304743 0.162547
H17   H     H_    0.036979 0.890000 0.337971 0.142606
H18   H     H_    0.482357 0.586134 0.728730 0.102482
H19   H     H_    0.988778 0.915231 0.211988 0.153429
H20   H     H_    0.286889 0.436575 0.309758 0.162111
H21   H     H_    0.419977 0.763528 0.700700 0.173214
H22   H     H_    0.685099 0.859436 0.781802 0.151229
H23   H     H_    0.590616 0.843428 0.676281 0.159986
H24   H     H_    0.891445 0.461301 0.807869 0.184380
H25   H     H_    0.737475 0.446737 0.827818 0.159654
H26   H     H_    0.735495 0.401580 0.710663 0.121264
O1    O     O_R   0.507430 0.255570 0.581420 -0.495007
O2    O     O_R   0.524460 0.695920 0.424060 -0.503892
O3    O     O_R   0.736530 0.504260 0.414810 -0.474679
O4    O     O_R   0.691460 0.277160 0.422180 -0.510984
O5    O     O_3   0.499990 0.499990 0.499980 -0.293420
O6    O     O_R   0.089490 0.825610 0.930610 -0.493700
O7    O     O_R   0.818370 0.054540 0.929880 -0.445986
O8    O     O_R   0.605870 0.077310 0.915530 -0.513260
O9    O     O_R   0.646440 0.806700 0.917570 -0.466651
O10   O     O_R   0.837200 0.593290 0.915250 -0.512510
O11   O     O_R   0.065330 0.635370 0.931590 -0.501801
O12   O     O_R   0.280190 0.527390 0.578910 -0.455094
O13   O     O_R   0.068300 0.828790 0.091860 -0.516830
O14   O     O_R   0.798730 0.057480 0.079370 -0.513903
O15   O     O_R   0.584680 0.080480 0.076790 -0.501746
O16   O     O_R   0.626790 0.809640 0.067050 -0.496095
O17   O     O_R   0.816010 0.596460 0.076500 -0.487205
O18   O     O_R   0.045680 0.638310 0.081070 -0.497009
O19   O     O_3   0.833590 0.833690 0.001120 -0.306109
O20   O     O_R   0.260310 0.739740 0.584580 -0.538927
O21   O     O_R   0.532250 0.695150 0.573830 -0.493254
O22   O     O_R   0.744930 0.503430 0.576380 -0.467746
O23   O     O_R   0.699250 0.276390 0.571950 -0.528181
O24   O     O_R   0.499020 0.256400 0.419850 -0.522096
O25   O     O_R   0.272400 0.528160 0.429140 -0.485636
O26   O     O_R   0.251910 0.740570 0.423020 -0.522303
I1    I     I_    0.384592 0.934418 0.822072 -0.418501
I2    I     I_    0.840429 0.730717 0.612399 -0.310326
C51   C     C_2   0.918179 0.163213 0.811867 0.533513
O27   O     O_2   0.912176 0.199456 0.873862 -0.495520
O28   O     O_R   0.028409 0.151003 0.768572 -0.720059
H27   H     H_    0.091077 0.180674 0.793952 0.369021
I3    I     I_    0.180441 0.375864 0.675236 -0.352297
C52   C     C_2   0.938825 0.521122 0.337394 0.584466
O29   O     O_2   0.953098 0.559089 0.396480 -0.481325
O30   O     O_R   0.044343 0.392692 0.308843 -0.699026
H28   H     H_    0.126148 0.339283 0.342675 0.338038
I4    I     I_    0.271760 0.367225 0.154348 -0.335565

loop_
_geom_bond_atom_site_label_1
_geom_bond_atom_site_label_2
_ccdc_geom_bond_type
Cr2   O21   S    
C6    H26   S    
Cr1   O1    S    
C21   H10   S    
C42   O11   A    
Cr4   O19   S    
C10   H4    S    
C35   C36   A    
C30   H15   S    
C7    C8    A    
C38   H20   S    
C18   H9    S    
Cr2   O20   S    
C29   C30   A    
C23   O1    A    
C34   O25   A    
C36   C37   A    
Cr6   O19   S    
C12   O22   A    
Cr5   O8    S    
C38   C39   A    
C44   O17   A    
C48   H8    S    
C5    I2    S    
Cr3   O22   S    
C15   C16   A    
C23   O23   A    
C3    C48   S    
C52   O29   D    
C13   C23   S    
C18   C19   A    
Cr2   O2    S    
O30   H28   S    
Cr5   O9    S    
C26   C45   S    
C44   O16   A    
C22   C44   S    
C46   O13   A    
C51   O27   D    
C52   O30   S    
C8    C9    A    
C36   C46   S    
Cr3   O4    S    
C40   O7    A    
C5    H23   S    
C9    C10   A    
Cr4   O14   S    
C24   H11   S    
C48   I1    S    
C21   C22   A    
C29   C43   S    
C6    H1    S    
C2    C6    S    
C25   H12   S    
C50   H22   S    
C7    H3    S    
C3    C50   S    
C43   O14   A    
Cr6   O11   S    
C1    C19   S    
C34   C39   S    
C50   H2    S    
C47   O4    A    
C24   C25   A    
C12   O21   A    
Cr3   O5    S    
C8    C51   S    
Cr1   O5    S    
C20   C52   S    
C16   C17   A    
C25   C26   A    
C9    C40   S    
C45   O3    A    
C37   C38   A    
C31   C32   A    
C7    C13   A    
C47   O24   A    
C35   H19   S    
Cr5   O15   S    
C17   C18   A    
C51   O28   S    
C33   C39   A    
Cr4   O13   S    
Cr4   O7    S    
C4    C6    S    
C31   H16   S    
C41   O9    A    
C32   C47   S    
C22   C24   A    
C5    C50   S    
C45   O2    A    
C4    C12   S    
Cr6   O18   S    
C28   C29   A    
C16   C42   S    
O28   H27   S    
C33   H17   S    
C46   O18   A    
C3    C41   S    
C27   C32   A    
C14   C15   A    
C14   C19   A    
Cr2   O5    S    
C28   H14   S    
C43   O15   A    
C4    C5    S    
C11   H5    S    
C27   H13   S    
C1    O12   A    
Cr5   O19   S    
C4    C49   S    
C34   O26   A    
C2    C3    S    
C17   H7    S    
Cr4   O6    S    
C11   C13   A    
C30   C31   A    
C37   I4    S    
C20   C26   A    
Cr1   O24   S    
C48   C49   S    
Cr5   O16   S    
C33   C35   A    
C15   H6    S    
C49   H21   S    
C2    H24   S    
C10   C11   A    
Cr1   O12   S    
Cr3   O23   S    
Cr6   O10   S    
C41   O10   A    
C42   O6    A    
C20   C21   A    
Cr2   O26   S    
Cr1   O25   S    
C27   C28   A    
C49   H18   S    
C2    H25   S    
Cr3   O3    S    
Cr6   O17   S    
C40   O8    A    
C1    O20   A    
C14   I3    S    
