data_mof_unit_32059.cif
_audit_creation_date              2012-12-11T21:22:51-0500
_audit_creation_method            fapswitch 2.2
_symmetry_space_group_name_H-M    P1
_symmetry_Int_Tables_number       1
_space_group_crystal_system       triclinic
_cell_length_a                    8.274725
_cell_length_b                    18.736098
_cell_length_c                    18.939715
_cell_angle_alpha                 103.802099
_cell_angle_beta                  92.450082
_cell_angle_gamma                 91.596085
_cell_volume                      2846.75492056

loop_
_atom_site_label
_atom_site_type_symbol
_atom_type_description
_atom_site_fract_x
_atom_site_fract_y
_atom_site_fract_z
_atom_type_partial_charge
Ba1   Ba    Ba6+2 0.155460 0.532000 0.467920 1.703823
Ba2   Ba    Ba6+2 0.654730 0.467990 0.532020 1.687274
C1    C     C_3   0.339094 0.723467 0.219172 -0.305537
C2    C     C_R   0.090059 0.910399 0.571239 0.034790
C3    C     C_R   0.242536 0.936653 0.603960 -0.058499
C4    C     C_3   0.915921 0.717489 0.322257 0.374239
C5    C     C_R   0.303796 0.006210 0.601289 -0.047351
C6    C     C_R   0.212350 0.051546 0.567110 0.054447
C7    C     C_R   0.059286 0.025869 0.533945 0.022171
C8    C     C_R   0.270740 0.122488 0.566958 -0.044600
C9    C     C_R   0.175816 0.170193 0.536627 -0.034425
C10   C     C_R   0.023266 0.143942 0.501566 -0.009879
C11   C     C_R   0.966436 0.071342 0.499897 -0.003458
C12   C     C_3   0.386298 0.697631 0.287221 0.291481
C13   C     C_R   0.227297 0.243817 0.541331 -0.009161
C14   C     C_R   0.125791 0.290276 0.513561 -0.289562
C15   C     C_R   0.980003 0.264405 0.474592 0.001868
C16   C     C_3   0.950866 0.793233 0.307602 0.357528
C17   C     C_R   0.927369 0.189912 0.468125 -0.048215
C18   C     C_R   0.847133 0.928192 0.501182 -0.002581
C19   C     C_R   0.788964 0.856025 0.500361 -0.009628
C20   C     C_R   0.883091 0.810400 0.534882 -0.053269
C21   C     C_R   0.028903 0.840315 0.573408 -0.031416
C22   C     C_R   0.781793 0.159868 0.429696 -0.044504
C23   C     C_3   0.500365 0.698212 0.648972 0.308087
C24   C     C_R   0.722878 0.089163 0.430293 0.036319
C25   C     C_R   0.814719 0.044772 0.465843 0.011559
C26   C     C_R   0.754823 0.973495 0.466753 0.023214
C27   C     C_R   0.571670 0.062432 0.396534 -0.069382
C28   C     C_3   0.934314 0.250405 0.301524 0.366377
C29   C     C_R   0.510975 0.992783 0.398719 -0.066591
C30   C     C_R   0.602033 0.947771 0.433322 0.041348
C31   C     C_R   0.636287 0.829903 0.465312 -0.038611
C32   C     C_R   0.542887 0.877243 0.433975 -0.089503
C33   C     C_R   0.582797 0.756872 0.462043 -0.007792
C34   C     C_3   0.514328 0.781682 0.672172 -0.375144
C35   C     C_R   0.681725 0.710802 0.491227 -0.299972
C36   C     C_R   0.828851 0.736223 0.528666 0.037988
C37   C     C_R   0.348536 0.541856 0.812568 -0.138765
C38   C     C_R   0.317100 0.527811 0.737349 0.031667
C39   C     C_R   0.159951 0.442315 0.816905 -0.162925
C40   C     C_3   0.833806 0.195819 0.242427 -0.266932
C41   C     C_R   0.098715 0.444046 0.747127 0.005469
C42   C     C_R   0.628709 0.571471 0.199175 -0.218610
C43   C     C_R   0.710867 0.541682 0.251033 -0.055582
C44   C     C_R   0.397491 0.492237 0.203609 -0.090889
C45   C     C_3   0.882772 0.273383 0.669434 0.345512
C46   C     C_R   0.475937 0.472947 0.264726 -0.015465
C47   C     C_R   0.278889 0.495801 0.853873 -0.006540
C48   C     C_R   0.188325 0.480427 0.705212 -0.257055
C49   C     C_R   0.478845 0.539765 0.165292 0.017745
C50   C     C_R   0.644333 0.478720 0.267667 0.226917
C51   C     C_R   0.040543 0.491545 0.969254 -0.086549
C52   C     C_3   0.995283 0.632403 0.690982 0.314042
C53   C     C_R   0.930393 0.489437 0.021806 -0.062789
C54   C     C_R   0.974133 0.520115 0.093699 0.027492
C55   C     C_R   0.131977 0.545852 0.114095 -0.071355
C56   C     C_3   0.849663 0.197898 0.684520 0.382486
C57   C     C_R   0.253430 0.532406 0.064424 0.002442
C58   C     C_R   0.206934 0.509466 0.988279 0.046949
C59   C     C_R   0.415785 0.550824 0.090092 -0.006317
C60   C     C_R   0.519642 0.566327 0.037167 0.027297
C61   C     C_R   0.486126 0.532605 0.962019 0.034956
C62   C     C_R   0.325413 0.507748 0.935116 -0.002954
C63   C     C_R   0.641312 0.623011 0.053685 -0.075625
C64   C     C_3   0.009161 0.654177 0.773754 -0.388297
C65   C     C_R   0.749381 0.632402 0.001643 -0.037979
C66   C     C_R   0.740353 0.584153 0.933215 -0.097636
C67   C     C_3   0.412300 0.317382 0.718176 0.327593
C68   C     C_R   0.613243 0.531784 0.914759 -0.098411
C69   C     C_3   0.324779 0.305595 0.368862 0.357571
C70   C     C_3   0.341892 0.222752 0.349184 -0.364556
C71   C     C_3   0.455413 0.301594 0.791798 -0.296559
C72   C     C_R   0.998972 0.954670 0.535177 0.011163
H1    H     H_    0.348003 0.638859 0.278782 0.036240
H2    H     H_    0.201074 0.319076 0.385590 -0.079643
H3    H     H_    0.411359 0.328961 0.415315 0.082558
H4    H     H_    0.209972 0.709399 0.203263 0.146249
H5    H     H_    0.260301 0.196383 0.301574 0.111024
H6    H     H_    0.312360 0.199457 0.395854 0.054359
H7    H     H_    0.468181 0.210285 0.334778 0.119896
H8    H     H_    0.519382 0.704646 0.296620 0.018769
H9    H     H_    0.412398 0.696523 0.173551 0.085403
H10   H     H_    0.622361 0.677286 0.635862 0.011118
H11   H     H_    0.603124 0.799364 0.719221 0.137950
H12   H     H_    0.803693 0.220352 0.195939 0.170887
H13   H     H_    0.555468 0.804181 0.626532 0.056107
H14   H     H_    0.394635 0.803858 0.688059 0.125193
H15   H     H_    0.358940 0.783998 0.229372 0.169001
H16   H     H_    0.817820 0.274649 0.617280 0.023492
H17   H     H_    0.014669 0.281161 0.663623 -0.068673
H18   H     H_    0.723498 0.193133 0.700967 0.065398
H19   H     H_    0.864438 0.154358 0.634396 -0.064049
H20   H     H_    0.278869 0.311239 0.708498 0.005270
H21   H     H_    0.453829 0.374826 0.720200 0.054432
H22   H     H_    0.423188 0.243440 0.790711 0.175020
H23   H     H_    0.904225 0.146141 0.221953 0.072721
H24   H     H_    0.388540 0.337842 0.834935 0.061018
H25   H     H_    0.975129 0.717998 0.376197 0.010278
H26   H     H_    0.586971 0.311806 0.805533 0.162671
H27   H     H_    0.315236 0.903159 0.631192 0.067293
H28   H     H_    0.422068 0.024939 0.626842 0.082843
H29   H     H_    0.165654 0.346840 0.518659 0.063843
H30   H     H_    0.388854 0.140420 0.592580 0.102568
H31   H     H_    0.710504 0.191305 0.400066 0.081155
H32   H     H_    0.499492 0.095445 0.368704 0.067258
H33   H     H_    0.393258 0.973825 0.372650 0.080841
H34   H     H_    0.720640 0.178974 0.264524 0.102029
H35   H     H_    0.424369 0.859870 0.408853 0.108684
H36   H     H_    0.783442 0.709602 0.325392 -0.111731
H37   H     H_    0.639635 0.654810 0.487755 0.066453
H38   H     H_    0.429402 0.588041 0.837703 0.077638
H39   H     H_    0.108007 0.402197 0.842872 0.113115
H40   H     H_    0.690927 0.615930 0.184694 0.118814
H41   H     H_    0.279848 0.467139 0.185198 0.126145
H42   H     H_    0.150442 0.476239 0.648926 0.058996
H43   H     H_    0.987058 0.482372 0.915424 0.079179
H44   H     H_    0.806305 0.470640 0.006336 0.111037
H45   H     H_    0.111230 0.611223 0.669935 -0.002424
H46   H     H_    0.883415 0.525909 0.132658 0.123604
H47   H     H_    0.904263 0.836103 0.352299 -0.048412
H48   H     H_    0.161472 0.577588 0.168580 0.113315
H49   H     H_    0.642340 0.665733 0.102963 0.151698
H50   H     H_    0.841380 0.676319 0.014587 0.122499
H51   H     H_    0.829120 0.588444 0.893955 0.088344
H52   H     H_    0.606615 0.495121 0.861334 0.125058
H53   H     H_    0.082516 0.804300 0.306630 0.045564
H54   H     H_    0.034800 0.272977 0.275429 0.081945
H55   H     H_    0.987549 0.218763 0.338401 -0.140041
H56   H     H_    0.899273 0.588513 0.674101 0.084835
H57   H     H_    0.417291 0.682362 0.599662 0.064970
H58   H     H_    0.008711 0.763116 0.132675 0.341343
H59   H     H_    0.087986 0.249421 0.856674 0.356289
H60   H     H_    0.098642 0.809243 0.604264 0.102949
H61   H     H_    0.792551 0.352569 0.109808 0.359911
H62   H     H_    0.112654 0.694189 0.792623 0.134287
H63   H     H_    0.028439 0.604932 0.795466 0.059458
H64   H     H_    0.895855 0.679437 0.795231 0.129130
O1    O     O_2   0.114280 0.679350 0.549180 -0.459599
O2    O     O_2   0.769846 0.469076 0.755379 -0.502565
O3    O     O_3   0.825363 0.328157 0.726093 -0.574704
O4    O     O_3   0.866400 0.589600 0.543550 -0.498608
O5    O     O_3   0.444420 0.455520 0.411210 -0.513628
O6    O     O_2   0.612810 0.550740 0.677950 -0.466498
O7    O     O_3   0.439653 0.671275 0.706112 -0.636849
O8    O     O_2   0.560306 0.245867 0.528252 -0.504196
O9    O     O_3   0.489424 0.267527 0.663857 -0.602203
O10   O     O_3   0.362150 0.623490 0.415650 -0.494576
O11   O     O_2   0.256523 0.753963 0.480837 -0.487576
O12   O     O_3   0.355326 0.332296 0.307507 -0.575567
O13   O     O_3   0.958117 0.694344 0.665174 -0.636348
O14   O     O_3   0.307814 0.739892 0.345795 -0.612761
O15   O     O_2   0.197490 0.449210 0.322030 -0.416282
O16   O     O_3   0.950520 0.583920 0.376610 -0.477607
O17   O     O_2   0.043450 0.521888 0.250273 -0.448217
O18   O     O_2   0.677865 0.794314 0.225658 -0.314929
O19   O     O_2   0.901219 0.877714 0.213404 -0.285072
O20   O     O_3   0.923370 0.738026 0.154072 -0.542832
O21   O     O_2   0.929338 0.114131 0.776579 -0.255239
O22   O     O_2   0.152036 0.171935 0.726321 -0.343357
O23   O     O_3   0.977474 0.661072 0.267968 -0.598563
O24   O     O_3   0.989061 0.254542 0.827231 -0.513852
O25   O     O_2   0.902512 0.393439 0.248699 -0.283971
O26   O     O_2   0.632485 0.331314 0.229398 -0.303237
O27   O     O_3   0.730749 0.396040 0.132123 -0.541787
O28   O     O_2   0.696020 0.320600 0.450800 -0.469507
O29   O     O_3   0.943900 0.410390 0.456390 -0.465920
O30   O     O_3   0.448150 0.376500 0.584290 -0.478764
O31   O     O_3   0.838527 0.308957 0.335345 -0.527724
O32   O     O_3   0.365880 0.544470 0.588730 -0.482153
O33   O     O_3   0.859790 0.416060 0.623340 -0.485095
P1    P     P_3+3 0.941030 0.670050 0.569830 0.968481
P2    P     P_3+3 0.370400 0.428500 0.331430 1.077677
P3    P     P_3+3 0.917730 0.576427 0.285025 0.993848
P4    P     P_3+3 0.869270 0.329940 0.430110 1.041813
P5    P     P_3+3 0.889455 0.413996 0.714302 0.958682
P6    P     P_3+3 0.379885 0.718589 0.425837 0.922906
P7    P     P_3+3 0.432296 0.575094 0.680257 0.942837
P8    P     P_3+3 0.429757 0.282573 0.579020 0.927784
S1    S     S_3+6 0.858261 0.802491 0.223724 -0.082398
S2    S     S_3+6 0.985354 0.182326 0.754625 -0.071963
S3    S     S_3+6 0.731218 0.396977 0.221133 -0.083992

loop_
_geom_bond_atom_site_label_1
_geom_bond_atom_site_label_2
_ccdc_geom_bond_type
C33   P6    S    
C71   H26   S    
C53   C54   A    
O10   P6    S    
C13   P8    S    
Ba2   O6    S    
C49   C59   S    
C65   H50   S    
C5    C6    A    
C34   H14   S    
Ba1   P2    S    
O28   P4    D    
C35   C36   A    
C44   H41   S    
O32   P7    S    
C56   S2    S    
O27   S3    S    
O4    P1    S    
C33   C35   A    
C56   H19   S    
C50   S3    S    
C70   H5    S    
C69   H2    S    
Ba2   P4    S    
C51   H43   S    
C55   C57   A    
C69   O12   S    
C19   C31   A    
Ba1   O29   S    
C13   C14   A    
C20   C36   A    
O15   P2    D    
Ba1   O32   S    
C54   C55   A    
Ba1   Ba2   S    
O14   P6    S    
C7    C11   A    
C16   H47   S    
O20   S1    S    
Ba1   O4    S    
C15   C17   A    
C55   H48   S    
C9    C13   A    
C14   C15   A    
C63   C65   A    
C5    H28   S    
O7    P7    S    
O3    P5    S    
C4    O23   S    
C67   C71   S    
C40   H12   S    
Ba2   O28   S    
C2    C72   A    
C70   H7    S    
C60   C63   A    
Ba2   O33   S    
C68   H52   S    
C42   H40   S    
C57   C58   A    
C47   C62   S    
C52   H45   S    
H59   O24   S    
O25   S3    D    
Ba2   O5    S    
C4    H36   S    
C59   C60   A    
C29   H33   S    
C52   H56   S    
C39   C47   A    
C51   C58   A    
C54   H46   S    
C28   H54   S    
C51   C53   A    
C34   H13   S    
H61   O27   S    
C71   H24   S    
C4    C16   S    
C44   C46   A    
C57   C59   A    
O16   P3    S    
C65   C66   A    
C26   C30   A    
O24   S2    S    
C67   H20   S    
C40   H23   S    
C39   H39   S    
C37   C38   A    
C3    C5    A    
C2    C21   A    
C6    C7    A    
C18   C26   A    
C43   C50   A    
C44   C49   A    
H58   O20   S    
O13   P1    S    
C70   H6    S    
O19   S1    D    
C30   C32   A    
C28   O31   S    
C60   C61   A    
Ba1   O5    S    
C16   H53   S    
C23   H10   S    
C41   P5    S    
C14   H29   S    
C29   C30   A    
C64   H64   S    
C61   C68   A    
O2    P5    D    
C18   C19   A    
C48   H42   S    
O11   P6    D    
C31   C32   A    
O31   P4    S    
C18   C72   A    
O1    P1    D    
C38   C48   A    
O21   S2    D    
Ba1   O15   S    
C1    C12   S    
Ba2   O32   S    
C64   H62   S    
O17   P3    D    
C66   C68   A    
C37   H38   S    
C37   C47   A    
O6    P7    D    
C24   C25   A    
C67   O9    S    
C45   H16   S    
C38   P7    S    
C27   H32   S    
C7    C72   A    
C12   H8    S    
C23   H57   S    
Ba2   O30   S    
O22   S2    D    
C69   H3    S    
C42   C43   A    
C42   C49   A    
O29   P4    S    
C46   P2    S    
C21   H60   S    
C45   H17   S    
C28   C40   S    
C39   C41   A    
C22   C24   A    
C2    C3    A    
C67   H21   S    
Ba1   O1    S    
C9    C10   A    
C41   C48   A    
C36   P1    S    
C52   O13   S    
C52   C64   S    
C34   H11   S    
C28   H55   S    
O33   P5    S    
C45   O3    S    
Ba1   P1    S    
O30   P8    S    
C1    H15   S    
C58   C62   A    
C4    H25   S    
C8    H30   S    
C17   C22   A    
C69   C70   S    
C27   C29   A    
C43   P3    S    
C12   H1    S    
C45   C56   S    
C1    H9    S    
O23   P3    S    
O18   S1    D    
C64   H63   S    
C40   H34   S    
Ba2   O4    S    
Ba2   O29   S    
C10   C17   A    
C31   C33   A    
O8    P8    D    
C3    H27   S    
C63   H49   S    
Ba1   O16   S    
C35   H37   S    
O26   S3    D    
C8    C9    A    
C23   C34   S    
C16   S1    S    
C61   C62   A    
O9    P8    S    
C46   C50   A    
O12   P2    S    
C10   C11   A    
C24   C27   A    
C6    C8    A    
C12   O14   S    
C25   C26   A    
C32   H35   S    
O5    P2    S    
C20   C21   A    
C11   C25   A    
Ba1   O10   S    
C23   O7    S    
C22   H31   S    
C71   H22   S    
C19   C20   A    
C1    H4    S    
C56   H18   S    
C66   H51   S    
C15   P4    S    
C53   H44   S    
