data_mof_unit_51600.cif
_audit_creation_date              2013-03-05T16:30:58-0500
_audit_creation_method            fapswitch 2.2
_symmetry_space_group_name_H-M    P1
_symmetry_Int_Tables_number       1
_space_group_crystal_system       triclinic
_cell_length_a                    13.009816
_cell_length_b                    10.855809
_cell_length_c                    9.541773
_cell_angle_alpha                 90.912518
_cell_angle_beta                  96.387432
_cell_angle_gamma                 90.553706
_cell_volume                      1338.98043723

loop_
_atom_site_label
_atom_site_type_symbol
_atom_site_description
_atom_site_fract_x
_atom_site_fract_y
_atom_site_fract_z
_atom_type_partial_charge
O1    O     O_R   0.500000 0.319640 0.618810 -0.584593
O2    O     O_R   0.500010 0.319680 0.381230 -0.594401
C1    C     C_R   0.496994 0.262476 0.498465 0.794068
O3    O     O_R   0.348990 0.499960 0.599490 -0.595321
O4    O     O_R   0.349000 0.500000 0.361910 -0.540869
C2    C     C_R   0.300132 0.501551 0.472855 0.832699
Cu1   Cu    Cu3+1 0.499990 0.499980 0.640670 0.956136
Cu2   Cu    Cu3+1 0.500010 0.500020 0.359330 1.000206
O5    O     O_R   0.499990 0.680320 0.618770 -0.581262
O6    O     O_R   0.500000 0.680360 0.381190 -0.575672
O7    O     O_R   0.651000 0.500000 0.638090 -0.589569
O8    O     O_R   0.651010 0.500040 0.400510 -0.565940
C3    C     C_R   0.497909 0.737998 0.500330 0.827298
C4    C     C_R   0.699427 0.497827 0.526835 0.829031
C5    C     C_R   0.812128 0.493684 0.543628 -0.066863
C6    C     C_R   0.186424 0.500899 0.455318 -0.182346
C7    C     C_R   0.020502 0.476511 0.312795 -0.202287
C8    C     C_R   0.127578 0.490184 0.320854 0.348969
C9    C     C_R   0.135308 0.506167 0.577477 -0.282725
C10   C     C_R   0.027961 0.499536 0.567820 0.149396
C11   C     C_R   0.970609 0.482388 0.434608 0.090871
C12   C     C_R   0.863480 0.475871 0.424092 -0.139680
C13   C     C_R   0.869052 0.509315 0.676780 -0.184716
C14   C     C_R   0.976778 0.510879 0.688998 -0.144561
H1    H     H_    0.819978 0.459010 0.322014 0.188325
H2    H     H_    0.830531 0.521722 0.770884 0.175425
H3    H     H_    0.975816 0.466781 0.210229 0.200278
H4    H     H_    0.019810 0.523728 0.792250 0.182360
H5    H     H_    0.178850 0.516544 0.680784 0.188074
C15   C     C_R   0.471517 0.066712 0.617071 0.129570
C16   C     C_R   0.484714 0.129759 0.494298 -0.096584
C17   C     C_R   0.482649 0.062450 0.367090 -0.201917
H6    H     H_    0.486192 0.108394 0.267774 0.167684
C18   C     C_R   0.483434 0.933889 0.368807 -0.163154
H7    H     H_    0.486550 0.884463 0.270117 0.164044
C19   C     C_R   0.486825 0.871418 0.497706 -0.095439
C20   C     C_R   0.472402 0.939852 0.619213 0.127912
C21   C     C_3   0.530076 0.941062 0.763670 -0.483067
C22   C     C_3   0.528452 0.080373 0.760735 -0.437646
H8    H     H_    0.482108 0.904088 0.843102 0.200514
H9    H     H_    0.609458 0.903675 0.764916 0.210555
H10   H     H_    0.479853 0.121939 0.837398 0.199348
H11   H     H_    0.606509 0.122975 0.760161 0.209292
C23   C     C_R   0.584149 0.543442 0.087292 0.186861
N1    N     N_R   0.500660 0.500930 0.148010 -0.222149
C24   C     C_R   0.423034 0.443501 0.061756 -0.011874
H12   H     H_    0.360338 0.398789 0.107208 0.187787
C25   C     C_R   0.422784 0.443871 0.912881 -0.054718
H13   H     H_    0.359378 0.400046 0.847036 0.153449
N2    N     N_R   0.500660 0.500890 0.852110 -0.189861
C26   C     C_R   0.584048 0.542897 0.939451 0.206018
C27   C     C_3   0.627569 0.669615 0.939848 -0.546593
C28   C     C_3   0.627172 0.671889 0.098984 0.141244
H14   H     H_    0.705002 0.672485 0.901167 0.230142
H15   H     H_    0.570477 0.732025 0.886736 0.186619
H16   H     H_    0.573051 0.739791 0.137522 0.112884
N3    N     N_R   0.730985 0.678661 0.175521 0.152270
O9    O     O_R   0.748494 0.750316 0.286322 -0.352389
O10   O     O_R   0.807428 0.618727 0.130553 -0.401485
N4    N     N_R   0.173505 0.498055 0.191437 0.115247
O11   O     O_R   0.147315 0.418091 0.090362 -0.406582
O12   O     O_R   0.218896 0.600246 0.161742 -0.350313

loop_
_geom_bond_atom_site_label_1
_geom_bond_atom_site_label_2
_geom_bond_distance
_ccdc_geom_bond_type
O4    Cu2   1.967500 S    
C21   H8    1.111348 S    
C13   C14   1.393266 A    
O6    C3    1.291952 A    
Cu1   O5    1.972164 S    
C20   C21   1.494056 S    
C7    C11   1.393795 A    
Cu1   O7    1.967502 S    
C16   C17   1.404295 A    
C27   H15   1.097470 S    
Cu2   O8    1.960057 S    
C17   H6    1.083164 S    
C25   N2    1.369632 A    
C7    C8    1.392946 A    
Cu1   Cu2   2.684518 S    
O1    Cu1   1.965515 S    
N1    C24   1.368385 A    
C27   C28   1.518834 S    
N4    O12   1.301647 A    
C1    C16   1.447475 S    
N3    O9    1.300585 A    
O4    C2    1.294036 A    
C21   H9    1.112184 S    
O3    Cu1   1.960057 S    
C28   N3    1.462775 S    
C23   C26   1.410439 A    
C5    C13   1.404553 A    
C25   H13   1.081252 S    
C5    C12   1.396319 A    
C27   H14   1.111086 S    
C15   C22   1.488368 S    
N2    C26   1.362568 A    
C22   H10   1.111921 S    
C18   C19   1.410550 A    
C6    C9    1.405436 A    
C22   H11   1.112391 S    
C15   C16   1.392224 A    
O7    C4    1.293340 A    
C24   C25   1.420242 A    
N3    O10   1.301936 A    
O3    C2    1.301666 A    
Cu2   N1    2.017506 S    
C2    C6    1.470079 S    
C26   C27   1.482315 S    
C9    H5    1.084553 S    
C14   H4    1.083926 S    
C21   C22   1.513352 S    
C10   C11   1.409181 A    
C15   C20   1.377788 A    
C3    C19   1.457265 S    
C6    C8    1.421540 A    
C18   H7    1.081260 S    
C24   H12   1.080166 S    
C28   H16   1.110573 S    
C8    N4    1.433784 S    
C13   H2    1.083112 S    
O5    C3    1.298470 A    
C4    C5    1.458321 S    
C19   C20   1.398197 A    
O2    C1    1.292258 A    
C17   C18   1.396113 A    
C11   C12   1.387188 A    
C23   C28   1.495378 S    
C10   C14   1.401366 A    
Cu2   O6    1.965513 S    
O2    Cu2   1.972164 S    
C23   N1    1.366474 A    
C9    C10   1.390419 A    
Cu1   N2    2.016429 S    
O8    C4    1.297126 A    
N4    O11   1.301648 A    
O1    C1    1.293089 A    
C12   H1    1.082659 S    
C7    H3    1.084369 S    
