data_mof_unit_65836.cif
_audit_creation_date              2013-03-05T16:20:04-0500
_audit_creation_method            fapswitch 2.2
_symmetry_space_group_name_H-M    P1
_symmetry_Int_Tables_number       1
_space_group_crystal_system       triclinic
_cell_length_a                    25.869022
_cell_length_b                    34.539862
_cell_length_c                    21.580548
_cell_angle_alpha                 89.999779
_cell_angle_beta                  126.757228
_cell_angle_gamma                 89.999803
_cell_volume                      15448.7117132

loop_
_atom_site_label
_atom_site_type_symbol
_atom_site_description
_atom_site_fract_x
_atom_site_fract_y
_atom_site_fract_z
_atom_type_partial_charge
Zn1   Zn    Zn3+2 0.989110 0.282490 0.064980 1.027724
Zn2   Zn    Zn3+2 0.010890 0.717510 0.935020 1.038966
Zn3   Zn    Zn3+2 0.010890 0.282490 0.935020 1.045988
Zn4   Zn    Zn3+2 0.989110 0.717510 0.064980 1.038839
Zn5   Zn    Zn3+2 0.489110 0.782490 0.064980 1.034666
Zn6   Zn    Zn3+2 0.510890 0.217510 0.935020 1.046618
Zn7   Zn    Zn3+2 0.510890 0.782490 0.935020 1.034807
Zn8   Zn    Zn3+2 0.489110 0.217510 0.064980 1.028300
Zn9   Zn    Zn3+2 0.075880 0.217510 0.064980 0.997261
Zn10  Zn    Zn3+2 0.924120 0.782490 0.935020 0.983620
Zn11  Zn    Zn3+2 0.924120 0.217510 0.935020 0.979712
Zn12  Zn    Zn3+2 0.075880 0.782490 0.064980 0.983713
Zn13  Zn    Zn3+2 0.575880 0.717510 0.064980 0.996434
Zn14  Zn    Zn3+2 0.424120 0.282490 0.935020 0.982233
Zn15  Zn    Zn3+2 0.424120 0.717510 0.935020 0.996392
Zn16  Zn    Zn3+2 0.575880 0.282490 0.064980 0.999961
C1    C     C_R   0.999998 0.020919 0.000027 -0.235006
C2    C     C_R   0.999996 0.978112 0.000021 -0.159156
C3    C     C_R   0.499997 0.520919 0.000008 -0.235284
C4    C     C_R   0.499996 0.478112 0.000008 -0.158757
O1    O     O_3   0.000000 0.250000 0.000000 -0.504018
O2    O     O_3   0.000000 0.750000 0.000000 -0.506444
O3    O     O_3   0.500000 0.750000 0.000000 -0.503702
O4    O     O_3   0.500000 0.250000 0.000000 -0.506419
O5    O     O_R   0.093070 0.272740 0.954520 -0.637221
O6    O     O_R   0.906930 0.727260 0.045480 -0.633133
O7    O     O_R   0.906930 0.272740 0.045480 -0.645477
O8    O     O_R   0.093070 0.727260 0.954520 -0.633074
O9    O     O_R   0.593070 0.772740 0.954520 -0.644655
O10   O     O_R   0.406930 0.227260 0.045480 -0.644053
O11   O     O_R   0.406930 0.772740 0.045480 -0.644709
O12   O     O_R   0.593070 0.227260 0.954520 -0.635856
O13   O     O_R   0.117100 0.227270 0.173460 -0.637261
O14   O     O_R   0.882900 0.772730 0.826540 -0.649332
O15   O     O_R   0.882900 0.227270 0.826540 -0.649142
O16   O     O_R   0.117100 0.772730 0.173460 -0.649315
O17   O     O_R   0.617100 0.727270 0.173460 -0.635982
O18   O     O_R   0.382900 0.272730 0.826540 -0.648740
O19   O     O_R   0.382900 0.727270 0.826540 -0.635978
O20   O     O_R   0.617100 0.272730 0.173460 -0.636517
O21   O     O_R   0.053120 0.163270 0.045480 -0.647268
O22   O     O_R   0.946880 0.836730 0.954520 -0.635473
O23   O     O_R   0.946880 0.163270 0.954520 -0.645288
O24   O     O_R   0.053120 0.836730 0.045480 -0.635463
O25   O     O_R   0.553120 0.663270 0.045480 -0.647675
O26   O     O_R   0.446880 0.336730 0.954520 -0.635873
O27   O     O_R   0.446880 0.663270 0.954520 -0.647658
O28   O     O_R   0.553120 0.336730 0.045480 -0.637430
O29   O     O_R   0.007620 0.336730 0.954520 -0.620632
O30   O     O_R   0.992380 0.663270 0.045480 -0.622103
O31   O     O_R   0.992380 0.336730 0.045480 -0.625715
O32   O     O_R   0.007620 0.663270 0.954520 -0.621982
O33   O     O_R   0.507620 0.836730 0.954520 -0.625789
O34   O     O_R   0.492380 0.163270 0.045480 -0.625346
O35   O     O_R   0.492380 0.836730 0.045480 -0.625915
O36   O     O_R   0.507620 0.163270 0.954520 -0.620236
O37   O     O_R   0.056370 0.272740 0.173460 -0.607325
O38   O     O_R   0.943630 0.727260 0.826540 -0.588974
O39   O     O_R   0.943630 0.272740 0.826540 -0.590063
O40   O     O_R   0.056370 0.727260 0.173460 -0.589015
O41   O     O_R   0.556370 0.772740 0.173460 -0.611644
O42   O     O_R   0.443630 0.227260 0.826540 -0.590177
O43   O     O_R   0.443630 0.772740 0.826540 -0.611620
O44   O     O_R   0.556370 0.227260 0.173460 -0.607587
O45   O     O_R   0.138550 0.227260 0.045470 -0.628020
O46   O     O_R   0.861450 0.772740 0.954530 -0.633403
O47   O     O_R   0.861450 0.227260 0.954530 -0.631693
O48   O     O_R   0.138550 0.772740 0.045470 -0.633354
O49   O     O_R   0.638550 0.727260 0.045470 -0.626448
O50   O     O_R   0.361450 0.272740 0.954530 -0.631445
O51   O     O_R   0.361450 0.727260 0.954530 -0.626479
O52   O     O_R   0.638550 0.272740 0.045470 -0.627772
C5    C     C_R   0.139687 0.249641 0.999256 0.801996
C6    C     C_R   0.860278 0.750376 0.000701 0.795300
C7    C     C_R   0.860313 0.249641 0.000744 0.793722
C8    C     C_R   0.139722 0.750376 0.999299 0.795432
C9    C     C_R   0.639689 0.749644 0.999260 0.803446
C10   C     C_R   0.360278 0.250378 0.000702 0.794786
C11   C     C_R   0.360311 0.749644 0.000739 0.803330
C12   C     C_R   0.639723 0.250375 0.999302 0.802960
C13   C     C_R   0.105410 0.250378 0.209949 0.863978
C14   C     C_R   0.894033 0.749297 0.789531 0.827589
C15   C     C_R   0.894043 0.250697 0.789526 0.826448
C16   C     C_R   0.105966 0.749297 0.210469 0.827633
C17   C     C_R   0.605414 0.750382 0.209947 0.862770
C18   C     C_R   0.394038 0.249302 0.789528 0.825971
C19   C     C_R   0.394587 0.750382 0.790053 0.862794
C20   C     C_R   0.605415 0.249619 0.209948 0.862830
C21   C     C_R   1.000000 0.144802 0.000003 0.843873
C22   C     C_R   1.000000 0.854967 0.000001 0.821751
C23   C     C_R   0.500000 0.644802 0.000001 0.839911
C24   C     C_R   0.499999 0.354966 0.000003 0.817835
C25   C     C_R   0.000012 0.355145 0.000010 0.820005
C26   C     C_R   0.000003 0.644861 0.000002 0.805680
C27   C     C_R   0.500003 0.855138 0.000002 0.838746
C28   C     C_R   0.500012 0.144853 0.000010 0.820975
C29   C     C_R   0.026584 0.458166 0.968980 -0.153051
C30   C     C_R   0.011712 0.541857 0.063473 -0.155674
C31   C     C_R   0.973556 0.458174 0.031128 -0.152368
C32   C     C_R   0.988421 0.541853 0.936620 -0.157913
C33   C     C_R   0.487961 0.958142 0.936381 -0.153659
C34   C     C_R   0.473871 0.041816 0.031505 -0.150525
C35   C     C_R   0.512169 0.958137 0.063709 -0.151451
C36   C     C_R   0.526267 0.041824 0.968600 -0.151239
H1    H     H_    0.048400 0.473220 0.945930 0.148257
H2    H     H_    0.022000 0.526801 0.113736 0.154505
H3    H     H_    0.951748 0.473235 0.054181 0.146496
H4    H     H_    0.978149 0.526793 0.886369 0.153771
H5    H     H_    0.477337 0.973206 0.885959 0.153106
H6    H     H_    0.452315 0.026752 0.054868 0.146217
H7    H     H_    0.522809 0.973196 0.114143 0.153833
H8    H     H_    0.547830 0.026766 0.945240 0.147960
C37   C     C_R   0.026128 0.417887 0.968453 -0.138874
C38   C     C_R   0.011212 0.582136 0.063195 -0.146872
C39   C     C_R   0.973973 0.417895 0.031625 -0.149369
C40   C     C_R   0.988868 0.582131 0.936862 -0.146326
C41   C     C_R   0.488401 0.917863 0.936616 -0.140833
C42   C     C_R   0.474278 0.082095 0.031990 -0.147602
C43   C     C_R   0.511678 0.917857 0.063440 -0.141403
C44   C     C_R   0.525821 0.082104 0.968087 -0.137303
H9    H     H_    0.046989 0.402702 0.944333 0.175586
H10   H     H_    0.020491 0.597329 0.112853 0.198504
H11   H     H_    0.953092 0.402719 0.055726 0.169721
H12   H     H_    0.979572 0.597321 0.887191 0.198388
H13   H     H_    0.478725 0.902669 0.886755 0.189268
H14   H     H_    0.453637 0.097268 0.056384 0.171327
H15   H     H_    0.521336 0.902660 0.113289 0.189371
H16   H     H_    0.546441 0.097285 0.943674 0.177154
C45   C     C_R   0.000039 0.397511 0.000030 -0.010798
C46   C     C_R   0.000024 0.602505 0.000018 -0.031451
C47   C     C_R   0.500024 0.897490 0.000017 -0.032433
C48   C     C_R   0.500038 0.102482 0.000029 -0.012337
C49   C     C_R   0.000078 0.478680 0.000059 0.101611
C50   C     C_R   0.000077 0.521344 0.000054 0.096696
C51   C     C_R   0.500075 0.978649 0.000053 0.095683
C52   C     C_R   0.500076 0.021311 0.000058 0.102078
C53   C     C_R   0.890811 0.130049 0.085626 -0.276468
C54   C     C_R   0.119159 0.873790 0.938848 -0.263987
C55   C     C_R   0.109309 0.130008 0.914502 -0.275804
C56   C     C_R   0.880857 0.873784 0.061201 -0.263830
C57   C     C_R   0.390828 0.630063 0.085664 -0.278252
C58   C     C_R   0.619058 0.373752 0.938748 -0.265909
C59   C     C_R   0.609180 0.630060 0.914349 -0.278283
C60   C     C_R   0.380841 0.373780 0.061048 -0.265982
H17   H     H_    0.937782 0.124229 0.139212 0.152054
H18   H     H_    0.073617 0.883141 0.886665 0.154842
H19   H     H_    0.062361 0.124161 0.860904 0.154617
H20   H     H_    0.926400 0.883128 0.113390 0.154835
H21   H     H_    0.437790 0.624246 0.139264 0.150990
H22   H     H_    0.573471 0.383067 0.886586 0.153781
H23   H     H_    0.562218 0.624241 0.860749 0.151041
H24   H     H_    0.426431 0.383110 0.113187 0.152065
C61   C     C_R   0.864636 0.167100 0.072296 -0.234987
C62   C     C_R   0.142867 0.837146 0.940864 -0.238022
C63   C     C_R   0.135444 0.167069 0.927789 -0.239219
C64   C     C_R   0.857145 0.837138 0.059164 -0.237819
C65   C     C_R   0.364638 0.667110 0.072322 -0.241705
C66   C     C_R   0.642780 0.337105 0.940820 -0.245260
C67   C     C_R   0.635366 0.667108 0.927684 -0.241900
C68   C     C_R   0.357153 0.337128 0.059029 -0.240899
H25   H     H_    0.891545 0.189030 0.116515 0.160768
H26   H     H_    0.115439 0.818923 0.889947 0.166274
H27   H     H_    0.108527 0.188980 0.883530 0.162738
H28   H     H_    0.884571 0.818907 0.110071 0.166290
H29   H     H_    0.391529 0.689041 0.116544 0.158912
H30   H     H_    0.615320 0.318844 0.889962 0.164163
H31   H     H_    0.608474 0.689037 0.883458 0.158899
H32   H     H_    0.384644 0.318881 0.109905 0.162540
C69   C     C_R   0.803380 0.175596 0.003957 0.009779
C70   C     C_R   0.201942 0.824191 0.007449 0.010022
C71   C     C_R   0.196674 0.175597 0.996139 0.008836
C72   C     C_R   0.798067 0.824192 0.992573 0.009960
C73   C     C_R   0.303391 0.675602 0.003965 0.008035
C74   C     C_R   0.701913 0.324194 0.007381 0.008456
C75   C     C_R   0.696612 0.675601 0.996040 0.008122
C76   C     C_R   0.298019 0.324198 0.992500 0.009598
C77   C     C_R   0.768865 0.146181 0.947238 0.390825
C78   C     C_R   0.237045 0.848522 0.073668 0.404647
C79   C     C_R   0.231201 0.146207 0.052913 0.392285
C80   C     C_R   0.762967 0.848533 0.926367 0.404634
C81   C     C_R   0.268900 0.646187 0.947240 0.394181
C82   C     C_R   0.737062 0.348579 0.073517 0.405444
C83   C     C_R   0.731105 0.646189 0.052771 0.394214
C84   C     C_R   0.262829 0.348566 0.926341 0.404135
C85   C     C_R   0.795428 0.108959 0.962117 -0.109425
C86   C     C_R   0.212787 0.885331 0.070388 -0.100216
C87   C     C_R   0.204677 0.108975 0.038079 -0.111432
C88   C     C_R   0.787230 0.885343 0.929669 -0.099681
C89   C     C_R   0.295479 0.608968 0.962130 -0.107775
C90   C     C_R   0.712790 0.385392 0.070177 -0.100154
C91   C     C_R   0.704530 0.608970 0.037888 -0.108461
C92   C     C_R   0.287065 0.385384 0.929629 -0.099216
H33   H     H_    0.768812 0.086319 0.919507 0.203737
H34   H     H_    0.239664 0.904085 0.120529 0.190160
H35   H     H_    0.231304 0.086354 0.080733 0.203106
H36   H     H_    0.760354 0.904105 0.879540 0.190392
H37   H     H_    0.268882 0.586328 0.919514 0.204720
H38   H     H_    0.739703 0.404186 0.120253 0.191565
H39   H     H_    0.731128 0.586331 0.080509 0.204411
H40   H     H_    0.260121 0.404165 0.879537 0.192060
C93   C     C_R   0.855752 0.100489 0.031068 0.441715
C94   C     C_R   0.154461 0.898330 0.003542 0.454728
C95   C     C_R   0.144383 0.100472 0.969117 0.440203
C96   C     C_R   0.845557 0.898334 0.996523 0.454965
C97   C     C_R   0.355792 0.600502 0.031099 0.440616
C98   C     C_R   0.654404 0.398343 0.003356 0.453897
C99   C     C_R   0.644218 0.600501 0.968920 0.440348
C100  C     C_R   0.345455 0.398354 0.996419 0.455140
C101  C     C_R   0.219358 0.715463 0.994270 -0.223712
C102  C     C_R   0.781076 0.284538 0.006525 -0.231594
C103  C     C_R   0.780641 0.715463 0.005727 -0.223916
C104  C     C_R   0.218892 0.284538 0.993419 -0.221984
C105  C     C_R   0.719364 0.215460 0.994289 -0.219105
C106  C     C_R   0.281083 0.784541 0.006541 -0.223958
C107  C     C_R   0.280661 0.215467 0.005763 -0.228266
C108  C     C_R   0.718917 0.784540 0.993461 -0.223738
H41   H     H_    0.196468 0.688655 0.992109 0.178381
H42   H     H_    0.804386 0.311372 0.009756 0.172273
H43   H     H_    0.803531 0.688655 0.007887 0.178204
H44   H     H_    0.195560 0.311370 0.990147 0.176140
H45   H     H_    0.696478 0.188652 0.992141 0.178764
H46   H     H_    0.304399 0.811374 0.009789 0.176965
H47   H     H_    0.303568 0.188661 0.007952 0.175114
H48   H     H_    0.695603 0.811374 0.990217 0.177141
C109  C     C_R   0.195431 0.750888 0.998456 -0.046845
C110  C     C_R   0.804827 0.249114 0.001984 -0.044968
C111  C     C_R   0.804568 0.750888 0.001543 -0.046776
C112  C     C_R   0.195170 0.249116 0.998014 -0.047663
C113  C     C_R   0.695431 0.250887 0.998458 -0.048088
C114  C     C_R   0.304826 0.749118 0.001981 -0.047866
C115  C     C_R   0.304567 0.250892 0.001543 -0.045806
C116  C     C_R   0.695173 0.749118 0.998018 -0.047948
C117  C     C_R   0.226663 0.785839 0.005253 0.002786
C118  C     C_R   0.774607 0.214056 0.997181 0.006515
C119  C     C_R   0.773338 0.785839 0.994751 0.002775
C120  C     C_R   0.225417 0.214060 0.002868 0.008361
C121  C     C_R   0.726653 0.285839 0.005232 0.003985
C122  C     C_R   0.274605 0.714059 0.997171 0.006553
C123  C     C_R   0.273314 0.285841 0.994710 0.002028
C124  C     C_R   0.725395 0.714059 0.002828 0.006558
C125  C     C_R   0.813330 0.280616 0.581269 -0.222094
C126  C     C_R   0.186833 0.719299 0.418707 -0.221492
C127  C     C_R   0.212109 0.285520 0.416487 -0.222935
C128  C     C_R   0.813163 0.719297 0.581294 -0.221724
C129  C     C_R   0.287941 0.785528 0.583514 -0.221860
C130  C     C_R   0.712052 0.214467 0.416482 -0.222772
C131  C     C_R   0.712063 0.785528 0.416485 -0.221642
C132  C     C_R   0.313190 0.219329 0.581272 -0.222818
H49   H     H_    0.817026 0.303343 0.549532 0.176863
H50   H     H_    0.183228 0.696523 0.450434 0.177195
H51   H     H_    0.232942 0.312215 0.448520 0.178130
H52   H     H_    0.816765 0.696519 0.549568 0.177112
H53   H     H_    0.267161 0.812230 0.551487 0.178880
H54   H     H_    0.732815 0.187763 0.448512 0.178162
H55   H     H_    0.732846 0.812230 0.448511 0.179059
H56   H     H_    0.316806 0.196565 0.549532 0.176424
C133  C     C_R   0.852635 0.282436 0.661938 0.313503
C134  C     C_R   0.147554 0.717474 0.338036 0.316140
C135  C     C_R   0.173370 0.286482 0.335545 0.309589
C136  C     C_R   0.852441 0.717472 0.661966 0.316142
C137  C     C_R   0.326708 0.786496 0.664458 0.311874
C138  C     C_R   0.673303 0.213505 0.335540 0.309382
C139  C     C_R   0.673296 0.786496 0.335541 0.311584
C140  C     C_R   0.352501 0.217513 0.661943 0.313790
C141  C     C_R   0.850054 0.252100 0.704333 -0.137101
C142  C     C_R   0.149982 0.747882 0.295652 -0.137000
C143  C     C_R   0.148562 0.251282 0.294193 -0.114383
C144  C     C_R   0.850017 0.747882 0.704348 -0.137028
C145  C     C_R   0.351434 0.751290 0.705810 -0.113966
C146  C     C_R   0.648579 0.248712 0.294193 -0.114196
C147  C     C_R   0.648567 0.751290 0.294190 -0.113881
C148  C     C_R   0.350030 0.247896 0.704338 -0.137339
C149  C     C_R   0.805424 0.221920 0.664165 -0.213017
C150  C     C_R   0.194479 0.778121 0.335820 -0.212251
C151  C     C_R   0.163209 0.216217 0.333900 -0.228921
C152  C     C_R   0.805525 0.778123 0.664179 -0.212186
C153  C     C_R   0.336708 0.716219 0.666106 -0.228817
C154  C     C_R   0.663337 0.283785 0.333904 -0.226662
C155  C     C_R   0.663289 0.716219 0.333894 -0.228857
C156  C     C_R   0.305490 0.278117 0.664175 -0.210827
H57   H     H_    0.801960 0.198536 0.694957 0.188983
H58   H     H_    0.197832 0.801555 0.305026 0.189675
H59   H     H_    0.143835 0.189187 0.302542 0.163539
H60   H     H_    0.802174 0.801559 0.694972 0.189745
H61   H     H_    0.356029 0.689185 0.697466 0.163418
H62   H     H_    0.644039 0.310822 0.302550 0.164157
H63   H     H_    0.643966 0.689186 0.302535 0.163277
H64   H     H_    0.302109 0.301537 0.694972 0.190351
C157  C     C_R   0.764890 0.221269 0.583735 -0.153893
C158  C     C_R   0.235013 0.778771 0.416247 -0.154808
C159  C     C_R   0.201236 0.215733 0.414132 -0.140974
C160  C     C_R   0.764991 0.778773 0.583752 -0.154719
C161  C     C_R   0.298681 0.715730 0.585877 -0.142272
C162  C     C_R   0.701378 0.284269 0.414136 -0.140633
C163  C     C_R   0.701316 0.715730 0.414124 -0.142448
C164  C     C_R   0.264945 0.278766 0.583745 -0.152501
H65   H     H_    0.730196 0.197985 0.554578 0.159996
H66   H     H_    0.269608 0.802103 0.445394 0.159375
H67   H     H_    0.210256 0.188253 0.443126 0.154070
H68   H     H_    0.730398 0.802107 0.554604 0.159461
H69   H     H_    0.289625 0.688242 0.556898 0.153381
H70   H     H_    0.710484 0.311756 0.443136 0.154365
H71   H     H_    0.710369 0.688243 0.443103 0.153108
H72   H     H_    0.230324 0.302086 0.554593 0.160835
C165  C     C_R   0.768871 0.250425 0.541579 0.068750
C166  C     C_R   0.231152 0.749558 0.458407 0.068654
C167  C     C_R   0.226437 0.250318 0.456234 0.070749
C168  C     C_R   0.768848 0.749558 0.541593 0.068641
C169  C     C_R   0.273534 0.750317 0.543765 0.070267
C170  C     C_R   0.726481 0.249675 0.456232 0.070094
C171  C     C_R   0.726466 0.750317 0.456235 0.070327
C172  C     C_R   0.268826 0.249565 0.541584 0.068112
C173  C     C_R   0.059285 0.041647 0.042428 0.483900
C174  C     C_R   0.024886 0.957380 0.069616 0.458185
C175  C     C_R   0.940712 0.041649 0.957626 0.483987
C176  C     C_R   0.975106 0.957387 0.930417 0.458102
C177  C     C_R   0.559284 0.541647 0.042392 0.483689
C178  C     C_R   0.524897 0.457383 0.069611 0.458248
C179  C     C_R   0.440712 0.541649 0.957618 0.483660
C180  C     C_R   0.475095 0.457384 0.930405 0.457852
C181  C     C_R   0.058301 0.081940 0.043414 -0.169834
C182  C     C_R   0.026702 0.917088 0.069019 -0.182017
C183  C     C_R   0.941697 0.081941 0.956626 -0.169030
C184  C     C_R   0.973292 0.917095 0.931002 -0.181968
C185  C     C_R   0.558302 0.581939 0.043388 -0.169558
C186  C     C_R   0.526713 0.417091 0.069018 -0.182263
C187  C     C_R   0.441697 0.581941 0.956620 -0.169496
C188  C     C_R   0.473280 0.417093 0.930996 -0.181678
H73   H     H_    0.103820 0.097361 0.076914 0.200767
H74   H     H_    0.046608 0.901283 0.122259 0.168589
H75   H     H_    0.896178 0.097363 0.923123 0.200133
H76   H     H_    0.953386 0.901296 0.877756 0.168701
H77   H     H_    0.603821 0.597360 0.076880 0.201036
H78   H     H_    0.546626 0.401288 0.122263 0.166428
H79   H     H_    0.396179 0.597363 0.923126 0.201041
H80   H     H_    0.453367 0.401292 0.877750 0.168350
C189  C     C_R   0.999999 0.102301 0.000013 -0.227577
C190  C     C_R   0.999998 0.897036 0.000007 -0.142896
C191  C     C_R   0.500000 0.602301 0.000003 -0.226902
C192  C     C_R   0.499997 0.397036 0.000006 -0.140583
N1    N     N_R   0.892434 0.316024 0.699001 0.220969
O53   O     O_R   0.885586 0.337134 0.743609 -0.370544
O54   O     O_R   0.925259 0.329807 0.676125 -0.357861
N2    N     N_R   0.107952 0.683814 0.300956 0.220912
O55   O     O_R   0.114793 0.662866 0.256165 -0.382922
O56   O     O_R   0.075314 0.669827 0.323931 -0.357121
N3    N     N_R   0.161919 0.322965 0.296950 0.213759
O57   O     O_R   0.160456 0.325155 0.235712 -0.397787
O58   O     O_R   0.160992 0.354871 0.328354 -0.363705
N4    N     N_R   0.892038 0.683810 0.699047 0.220837
O59   O     O_R   0.885198 0.662866 0.743842 -0.383688
O60   O     O_R   0.924671 0.669817 0.676069 -0.357192
N5    N     N_R   0.338291 0.822997 0.703055 0.211541
O61   O     O_R   0.339778 0.825246 0.764305 -0.401686
O62   O     O_R   0.339362 0.854868 0.671669 -0.371639
N6    N     N_R   0.661763 0.177013 0.296940 0.214105
O63   O     O_R   0.660338 0.174785 0.235732 -0.396275
O64   O     O_R   0.660732 0.145130 0.328326 -0.363165
N7    N     N_R   0.661716 0.822996 0.296942 0.211658
O65   O     O_R   0.660226 0.825244 0.235691 -0.401103
O66   O     O_R   0.660650 0.854868 0.328329 -0.370605
N8    N     N_R   0.392185 0.183884 0.699012 0.221177
O67   O     O_R   0.385343 0.162868 0.743727 -0.369364
O68   O     O_R   0.424889 0.169978 0.676063 -0.359385
O69   O     O_3   0.119169 0.024067 0.083568 -0.691589
H81   H     H_    0.114533 0.996559 0.068568 0.384268
O70   O     O_3   0.047525 0.974998 0.139084 -0.737504
H82   H     H_    0.033291 0.002303 0.130084 0.347489
O71   O     O_3   0.880828 0.024070 0.916495 -0.691427
H83   H     H_    0.885464 0.996563 0.931504 0.384348
O72   O     O_3   0.952467 0.975013 0.860955 -0.736903
H84   H     H_    0.966704 0.002316 0.869965 0.347762
O73   O     O_3   0.619166 0.524066 0.083506 -0.690814
H85   H     H_    0.614524 0.496560 0.068484 0.384395
O74   O     O_3   0.547550 0.475004 0.139080 -0.739183
H86   H     H_    0.533319 0.502309 0.130080 0.347183
O75   O     O_3   0.380828 0.524071 0.916499 -0.690434
H87   H     H_    0.385466 0.496563 0.931505 0.384430
O76   O     O_3   0.452445 0.475007 0.860937 -0.738180
H88   H     H_    0.466684 0.502310 0.869940 0.347235
O77   O     O_3   0.878802 0.063125 0.043608 -0.724178
H89   H     H_    0.922130 0.062026 0.094129 0.331737
O78   O     O_3   0.133567 0.935095 0.003178 -0.757753
H90   H     H_    0.093516 0.940550 0.950903 0.344972
O79   O     O_3   0.121375 0.063099 0.956622 -0.724657
H91   H     H_    0.078063 0.061976 0.906080 0.332031
O80   O     O_3   0.866455 0.935101 0.996910 -0.757371
H92   H     H_    0.906505 0.940550 0.049189 0.345056
O81   O     O_3   0.378854 0.563141 0.043650 -0.725001
H93   H     H_    0.422174 0.562045 0.094185 0.330994
O82   O     O_3   0.633493 0.435113 0.002930 -0.757932
H94   H     H_    0.593395 0.440531 0.950674 0.344439
O83   O     O_3   0.621158 0.563139 0.956376 -0.725525
H95   H     H_    0.577840 0.562042 0.905841 0.331014
O84   O     O_3   0.366330 0.435127 0.996793 -0.757482
H96   H     H_    0.406442 0.440557 0.049030 0.344427
O85   O     O_3   0.709592 0.152296 0.877173 -0.737478
H97   H     H_    0.700873 0.180420 0.868610 0.352796
O86   O     O_3   0.294432 0.837726 0.142439 -0.747234
H98   H     H_    0.302439 0.809865 0.140981 0.349313
O87   O     O_3   0.290448 0.152355 0.122989 -0.743558
H99   H     H_    0.299137 0.180482 0.131503 0.352217
O88   O     O_3   0.705578 0.837745 0.857591 -0.747038
H100  H     H_    0.697569 0.809883 0.859033 0.349277
O89   O     O_3   0.209639 0.652298 0.877158 -0.732303
H101  H     H_    0.200905 0.680421 0.868602 0.355286
O90   O     O_3   0.794510 0.337830 0.142263 -0.742481
H102  H     H_    0.802507 0.309959 0.140892 0.352013
O91   O     O_3   0.790365 0.652303 0.122853 -0.732580
H103  H     H_    0.799097 0.680426 0.131403 0.355319
O92   O     O_3   0.205376 0.337798 0.857622 -0.737034
H104  H     H_    0.197409 0.309925 0.859020 0.352390

loop_
_geom_bond_atom_site_label_1
_geom_bond_atom_site_label_2
_geom_bond_distance
_ccdc_geom_bond_type
Zn6   O12   1.933726 S    
Zn7   O9    1.933723 S    
O33   C27   1.279822 A    
C92   C100  1.397887 A    
C98   O82   1.378299 S    
C125  C165  1.401715 A    
C3    C4    1.478544 S    
C150  H58   1.083191 S    
O19   C19   1.278136 A    
C131  C171  1.403984 A    
C132  C172  1.401747 A    
C143  C151  1.398594 A    
O23   C21   1.282305 A    
C33   C51   1.404486 A    
C70   C78   1.421242 A    
C128  C168  1.401847 A    
C129  C169  1.403984 A    
C30   C38   1.391253 A    
C157  C165  1.401611 A    
C165  C170  1.475887 S    
C181  H73   1.083547 S    
C86   C94   1.397887 A    
C135  N3    1.440184 S    
C106  H46   1.084954 S    
C66   C74   1.404377 A    
C158  H66   1.082733 S    
Zn2   O2    1.943702 S    
C60   C68   1.395711 A    
C154  H62   1.083900 S    
C168  C171  1.476068 S    
C29   H1    1.082746 S    
C54   C62   1.395719 A    
C147  C155  1.398577 A    
C32   H4    1.082742 S    
C4    C178  1.423281 A    
C38   C46   1.401904 A    
C149  C157  1.390838 A    
C58   C66   1.395723 A    
O7    C7    1.276499 A    
N5    O62   1.301462 A    
Zn6   O36   1.933040 S    
C39   H11   1.083230 S    
C177  O73   1.382252 S    
C174  O70   1.382022 S    
C15   C141  1.474250 S    
C133  C141  1.418637 A    
C104  H44   1.084969 S    
C10   C115  1.452230 S    
C129  H53   1.082867 S    
C61   H25   1.083470 S    
C108  H48   1.084954 S    
Zn14  O18   1.934815 S    
Zn2   O38   1.935512 S    
C53   C61   1.394923 A    
O78   H90   0.991312 S    
Zn1   O31   1.933041 S    
Zn15  O19   1.934811 S    
C160  C168  1.401653 A    
O41   C17   1.276838 A    
Zn16  O20   1.934815 S    
C136  N4    1.435404 S    
C57   C65   1.394922 A    
O77   H89   0.991898 S    
C106  C117  1.392054 A    
Zn7   O33   1.933042 S    
C113  C121  1.410615 A    
O80   H92   0.991312 S    
C62   H26   1.083468 S    
C105  C113  1.398337 A    
C109  C117  1.410589 A    
C75   C83   1.421139 A    
C89   H37   1.083235 S    
C76   C84   1.421261 A    
C21   C189  1.467989 S    
C140  N8    1.435313 S    
O74   H86   0.988502 S    
O83   H95   0.991905 S    
Zn9   O21   1.933137 S    
C30   H2    1.082742 S    
C157  H65   1.082752 S    
O20   C20   1.278093 A    
O38   C14   1.279420 A    
C149  H57   1.083173 S    
Zn12  O24   1.933130 S    
O89   H101  0.989306 S    
Zn13  O25   1.933137 S    
C54   C94   1.405571 A    
C146  C154  1.398607 A    
C155  C163  1.388244 A    
Zn11  O15   1.934811 S    
Zn11  O1    1.945369 S    
C92   H40   1.083255 S    
N4    O59   1.301498 A    
Zn9   O45   1.932863 S    
C104  C123  1.392068 A    
C78   C86   1.400738 A    
C76   C123  1.484046 S    
O26   C24   1.278348 A    
C176  C184  1.392769 A    
O76   H88   0.988500 S    
N7    O65   1.301461 A    
C108  C119  1.392055 A    
C151  C159  1.388284 A    
C82   C90   1.400735 A    
O29   C25   1.279944 A    
O91   H103  0.989304 S    
O69   H81   0.987659 S    
C1    C175  1.422139 A    
C131  C139  1.400556 A    
C75   C124  1.486526 S    
C101  H41   1.084956 S    
C132  C140  1.396424 A    
C77   O85   1.380984 S    
O21   C21   1.282299 A    
Zn3   O1    1.943695 S    
C186  H78   1.084049 S    
O49   C9    1.276024 A    
C128  C136  1.396465 A    
C29   C49   1.404459 A    
C129  C137  1.400556 A    
C74   C82   1.421256 A    
O51   C11   1.276031 A    
O87   H99   0.989306 S    
O42   C18   1.279441 A    
C62   C70   1.404358 A    
C26   C46   1.462946 S    
C97   O81   1.378837 S    
O18   C18   1.285033 A    
O10   C10   1.277517 A    
C2    C176  1.423277 A    
C90   C98   1.397885 A    
C56   C96   1.405572 A    
N8    O67   1.301476 A    
O86   H98   0.988798 S    
O46   C6    1.275356 A    
Zn12  O2    1.945365 S    
Zn13  O3    1.945353 S    
C167  C172  1.475934 S    
Zn14  O4    1.945353 S    
C22   C190  1.453085 S    
Zn13  O49   1.932863 S    
C174  C182  1.392776 A    
C173  O69   1.382260 S    
C67   H31   1.083471 S    
C126  C166  1.401843 A    
C43   C47   1.401865 A    
Zn4   O40   1.935521 S    
C134  N2    1.435402 S    
C136  C144  1.418576 A    
C151  H59   1.083889 S    
C137  C145  1.414572 A    
C139  C147  1.414571 A    
C148  C156  1.404690 A    
C102  C110  1.398637 A    
C71   C79   1.421136 A    
C105  H45   1.084974 S    
C69   C77   1.421150 A    
C99   O83   1.378836 S    
C32   C50   1.404500 A    
C80   O88   1.381509 S    
C130  C170  1.403874 A    
C133  N1    1.435291 S    
C70   C117  1.484001 S    
C158  C166  1.401653 A    
C127  H51   1.082883 S    
C145  C153  1.398579 A    
C78   O86   1.381506 S    
Zn10  O14   1.934815 S    
C74   C121  1.484040 S    
C65   H29   1.083470 S    
C36   H8    1.082755 S    
O30   C26   1.279861 A    
C152  H60   1.083188 S    
C63   H27   1.083471 S    
C153  H61   1.083893 S    
C64   C72   1.404358 A    
O22   C22   1.278351 A    
C40   C46   1.401915 A    
C155  H63   1.083893 S    
C185  C191  1.398510 A    
Zn1   O37   1.935516 S    
C182  C190  1.394133 A    
C100  O84   1.378292 S    
Zn4   O2    1.943696 S    
Zn5   O3    1.943699 S    
C55   C63   1.394931 A    
Zn6   O4    1.943702 S    
C144  C152  1.404656 A    
N6    O64   1.301463 A    
C1    C2    1.478541 S    
C16   C142  1.474124 S    
C91   C99   1.398491 A    
C150  C158  1.390801 A    
Zn7   O43   1.935517 S    
C178  O74   1.382007 S    
C188  C192  1.394129 A    
O31   C25   1.279963 A    
C1    C173  1.422141 A    
C141  C149  1.404690 A    
Zn8   O44   1.935521 S    
O47   C7    1.276025 A    
C161  H69   1.082604 S    
C134  C142  1.418579 A    
C163  H71   1.082603 S    
C177  C185  1.392334 A    
C164  H72   1.082747 S    
C36   C52   1.404423 A    
C8    C109  1.452219 S    
C2    C174  1.423270 A    
C107  C120  1.393459 A    
C95   O79   1.378833 S    
C179  C187  1.392323 A    
O48   C8    1.275357 A    
C103  H43   1.084957 S    
C94   O78   1.378295 S    
C110  C118  1.411123 A    
C32   C40   1.391253 A    
C60   H24   1.082868 S    
O85   H97   0.989308 S    
C53   C93   1.404730 A    
C54   H18   1.082858 S    
Zn7   O3    1.943695 S    
C59   H23   1.082774 S    
C156  C164  1.390837 A    
O5    C5    1.276478 A    
C41   C47   1.401871 A    
C96   O80   1.378293 S    
C57   C97   1.404725 A    
C154  C162  1.388271 A    
C42   C48   1.402042 A    
C79   O87   1.380976 S    
C37   H9    1.083242 S    
N2    O55   1.301497 A    
O28   C24   1.278345 A    
C13   C143  1.457191 S    
C103  C124  1.393481 A    
C176  O72   1.382023 S    
C14   C144  1.474124 S    
O14   C14   1.285006 A    
C36   C44   1.391292 A    
C41   H13   1.083304 S    
C43   H15   1.083301 S    
C4    C180  1.423270 A    
C27   C47   1.462850 S    
Zn10  O22   1.933137 S    
C126  C134  1.396465 A    
Zn16  O52   1.932862 S    
C187  H79   1.083545 S    
N5    O61   1.301462 A    
C83   C91   1.401463 A    
C51   C52   1.473564 S    
Zn14  O26   1.933137 S    
Zn10  O2    1.945353 S    
C68   H32   1.083471 S    
C84   O92   1.381505 S    
C93   O77   1.378838 S    
C53   H17   1.082774 S    
O39   C15   1.279401 A    
C31   C39   1.391244 A    
C79   C87   1.401454 A    
C33   H5    1.082754 S    
O72   H84   0.988500 S    
C182  H74   1.084045 S    
C87   C95   1.398480 A    
C77   C85   1.401457 A    
C35   H7    1.082751 S    
C85   C93   1.398488 A    
C80   C88   1.400738 A    
C179  O75   1.382251 S    
C81   C89   1.401462 A    
C59   C99   1.404725 A    
O88   H100  0.988794 S    
C89   C97   1.398491 A    
O43   C19   1.276842 A    
C84   C92   1.400727 A    
C186  C192  1.394137 A    
C130  C138  1.400514 A    
C161  C169  1.403109 A    
C72   C80   1.421245 A    
C73   C81   1.421139 A    
C140  C148  1.418600 A    
C139  N7    1.440241 S    
Zn9   O13   1.934819 S    
Zn14  O50   1.932863 S    
C56   H20   1.082858 S    
C101  C109  1.398347 A    
C3    C177  1.422128 A    
C25   C45   1.463323 S    
C86   H34   1.083253 S    
C187  C191  1.398506 A    
C166  C169  1.476065 S    
C126  H50   1.082939 S    
C102  C121  1.392070 A    
Zn3   O5    1.933723 S    
C3    C179  1.422132 A    
N3    O57   1.301459 A    
C83   O91   1.380986 S    
O15   C15   1.285104 A    
C130  H54   1.082886 S    
Zn4   O30   1.933043 S    
C138  N6    1.440169 S    
C156  H64   1.083187 S    
C138  C146  1.414562 A    
Zn12  O48   1.932862 S    
C175  O71   1.382256 S    
C55   H19   1.082770 S    
C125  H49   1.082967 S    
C127  C135  1.400533 A    
C58   C98   1.405572 A    
N4    O60   1.301206 A    
C37   C45   1.402001 A    
Zn15  O51   1.932862 S    
C20   C146  1.457189 S    
C137  N5    1.440239 S    
C159  C167  1.403087 A    
C49   C50   1.473619 S    
C34   H6    1.082756 S    
C105  C118  1.393487 A    
C106  C114  1.398639 A    
C90   H38   1.083257 S    
O79   H91   0.991915 S    
C72   C119  1.484000 S    
O36   C28   1.279981 A    
C40   H12   1.083313 S    
C6    C111  1.452218 S    
O27   C23   1.282303 A    
C5    C112  1.451617 S    
Zn4   O6    1.933718 S    
O84   H96   0.991315 S    
C44   H16   1.083238 S    
C59   C67   1.394924 A    
C31   H3    1.082745 S    
C88   C96   1.397890 A    
Zn8   O10   1.933718 S    
C17   C147  1.457154 S    
C18   C148  1.474210 S    
C188  H80   1.084040 S    
C55   C95   1.404724 A    
N8    O68   1.301208 A    
C142  C150  1.404655 A    
O25   C23   1.282298 A    
C34   C52   1.404406 A    
C162  H70   1.082622 S    
C135  C143  1.414563 A    
C104  C112  1.398630 A    
O52   C12   1.275352 A    
C61   C69   1.405393 A    
O92   H104  0.988799 S    
C85   H33   1.083239 S    
O44   C20   1.276900 A    
C65   C73   1.405396 A    
C60   C100  1.405566 A    
C131  H55   1.082868 S    
Zn1   O1    1.943699 S    
O50   C10   1.275333 A    
C185  H77   1.083546 S    
O70   H82   0.988499 S    
Zn15  O27   1.933130 S    
C12   C113  1.452202 S    
Zn16  O28   1.933130 S    
Zn3   O29   1.933042 S    
C57   H21   1.082776 S    
O82   H94   0.991316 S    
N1    O53   1.301472 A    
C81   O89   1.380986 S    
C178  C186  1.392789 A    
C125  C133  1.396392 A    
C107  C115  1.398330 A    
O17   C17   1.278130 A    
C91   H39   1.083235 S    
O12   C12   1.277486 A    
C115  C123  1.410639 A    
O45   C5    1.276017 A    
C31   C49   1.404443 A    
C23   C191  1.467992 S    
C35   C51   1.404492 A    
C33   C41   1.391283 A    
Zn8   O4    1.943696 S    
N1    O54   1.301204 A    
C163  C171  1.403109 A    
C164  C172  1.401625 A    
O90   H102  0.988794 S    
O32   C26   1.279850 A    
Zn12  O16   1.934815 S    
C159  H67   1.082620 S    
Zn13  O17   1.934819 S    
C34   C42   1.391263 A    
C28   C48   1.463468 S    
C175  C183  1.392320 A    
Zn15  O3    1.945369 S    
Zn16  O4    1.945365 S    
C67   C75   1.405394 A    
C68   C76   1.404384 A    
Zn11  O47   1.932862 S    
C71   C120  1.486515 S    
C112  C120  1.411100 A    
C69   C118  1.486531 S    
C101  C122  1.393481 A    
O35   C27   1.279831 A    
Zn8   O34   1.933043 S    
C58   H22   1.082857 S    
C73   C122  1.486530 S    
C127  C167  1.403888 A    
C38   H10   1.083311 S    
C11   C114  1.451635 S    
C82   O90   1.381505 S    
N3    O58   1.301463 A    
C181  C189  1.398510 A    
C162  C170  1.403086 A    
O9    C9    1.276476 A    
N7    O66   1.301462 A    
Zn11  O23   1.933130 S    
C64   H28   1.083463 S    
O75   H87   0.987660 S    
Zn2   O32   1.933040 S    
C56   C64   1.395718 A    
C183  C189  1.398509 A    
O37   C13   1.276869 A    
C114  C122  1.411095 A    
C183  H75   1.083549 S    
C29   C37   1.391270 A    
Zn9   O1    1.945353 S    
O24   C22   1.278349 A    
C116  C124  1.411094 A    
O71   H83   0.987663 S    
C39   C45   1.401982 A    
C9    C116  1.451635 S    
C128  H52   1.082938 S    
C87   H35   1.083234 S    
C44   C48   1.402058 A    
O34   C28   1.280005 A    
Zn5   O35   1.933041 S    
C7    C110  1.451654 S    
C35   C43   1.391280 A    
C173  C181  1.392322 A    
C107  H47   1.084964 S    
Zn2   O8    1.933726 S    
C132  H56   1.082957 S    
O11   C11   1.276483 A    
C184  H76   1.084044 S    
C180  O76   1.382009 S    
C111  C119  1.410588 A    
C30   C50   1.404509 A    
C102  H42   1.084974 S    
Zn6   O42   1.935512 S    
C184  C190  1.394130 A    
Zn10  O46   1.932863 S    
O73   H85   0.987672 S    
C19   C145  1.457154 S    
O40   C16   1.279422 A    
O81   H93   0.991909 S    
O16   C16   1.285008 A    
N6    O63   1.301459 A    
O6    C6    1.277486 A    
C24   C192  1.453089 S    
C160  H68   1.082734 S    
C152  C160  1.390799 A    
C66   H30   1.083465 S    
C63   C71   1.405376 A    
C153  C161  1.388244 A    
C88   H36   1.083254 S    
N2    O56   1.301204 A    
Zn1   O7    1.933721 S    
C108  C116  1.398640 A    
C180  C188  1.392771 A    
C103  C111  1.398344 A    
C42   H14   1.083228 S    
O13   C13   1.278118 A    
Zn5   O41   1.935516 S    
Zn3   O39   1.935517 S    
Zn5   O11   1.933721 S    
O8    C8    1.277494 A    
