data_mof_unit_66124.cif
_audit_creation_date              2012-12-10T19:23:27-0500
_audit_creation_method            fapswitch 2.2
_symmetry_space_group_name_H-M    P1
_symmetry_Int_Tables_number       1
_space_group_crystal_system       monoclinic
_cell_length_a                    44.606866
_cell_length_b                    38.861817
_cell_length_c                    21.658536
_cell_angle_alpha                 90.0
_cell_angle_beta                  60.708132
_cell_angle_gamma                 90.0
_cell_volume                      32744.5842169

loop_
_atom_site_label
_atom_site_type_symbol
_atom_type_description
_atom_site_fract_x
_atom_site_fract_y
_atom_site_fract_z
_atom_type_partial_charge
C1    C     C_R   0.067247 0.499981 0.432363 0.891703
C2    C     C_R   0.976984 0.478481 0.241813 -0.051143
C3    C     C_R   0.232025 0.027131 0.800926 -0.184441
C4    C     C_R   0.285806 0.502700 0.216422 0.104468
C5    C     C_R   0.714194 0.502700 0.783577 0.104468
C6    C     C_R   0.785806 0.002700 0.216423 0.104468
C7    C     C_R   0.214194 0.002700 0.783577 0.104468
C8    C     C_R   0.160080 0.473533 0.320342 -0.241315
C9    C     C_R   0.839920 0.473533 0.679657 -0.241315
C10   C     C_R   0.660080 0.973533 0.320343 -0.241314
C11   C     C_R   0.339920 0.973533 0.679656 -0.241314
C12   C     C_R   0.124222 0.471914 0.354178 0.106783
C13   C     C_R   0.523016 0.978481 0.758187 -0.051142
C14   C     C_R   0.875778 0.471914 0.645822 0.106783
C15   C     C_R   0.624222 0.971914 0.354178 0.106783
C16   C     C_R   0.375778 0.971914 0.645821 0.106783
C17   C     C_R   0.104877 0.500258 0.395112 -0.063777
C18   C     C_R   0.895122 0.500258 0.604888 -0.063777
C19   C     C_R   0.604877 0.000258 0.395112 -0.063777
C20   C     C_R   0.395122 0.000258 0.604888 -0.063778
C21   C     C_R   0.121705 0.529743 0.400279 -0.278968
C22   C     C_R   0.878295 0.529743 0.599721 -0.278968
C23   C     C_R   0.621705 0.029743 0.400279 -0.278968
C24   C     C_R   0.476984 0.978481 0.241813 -0.051142
C25   C     C_R   0.378295 0.029743 0.599721 -0.278968
C26   C     C_R   0.157404 0.531339 0.365810 0.021419
C27   C     C_R   0.842596 0.531339 0.634190 0.021419
C28   C     C_R   0.657404 0.031339 0.365810 0.021419
C29   C     C_R   0.342595 0.031339 0.634191 0.021419
C30   C     C_R   0.176675 0.502991 0.325720 0.022393
C31   C     C_R   0.823325 0.502991 0.674279 0.022392
C32   C     C_R   0.676675 0.002991 0.325721 0.022392
C33   C     C_R   0.323325 0.002991 0.674279 0.022392
C34   C     C_R   0.000000 0.432849 0.000000 0.864055
C35   C     C_R   0.022962 0.478933 0.693974 0.043590
C36   C     C_R   0.500000 0.932849 0.000000 0.864055
C37   C     C_R   0.953567 0.576045 0.718434 -0.094363
C38   C     C_R   0.046433 0.576045 0.281566 -0.094363
C39   C     C_R   0.453567 0.076045 0.718434 -0.094363
C40   C     C_R   0.546433 0.076045 0.281566 -0.094362
C41   C     C_R   0.000079 0.499969 0.879774 0.898037
C42   C     C_R   0.999921 0.499969 0.120225 0.898037
C43   C     C_R   0.500079 0.999969 0.879774 0.898037
C44   C     C_R   0.499921 0.999969 0.120225 0.898037
C45   C     C_R   0.000000 0.567175 0.000000 0.867726
C46   C     C_R   0.977038 0.478933 0.306026 0.043590
C47   C     C_R   0.500000 0.067175 0.000000 0.867726
C48   C     C_R   0.500000 0.432686 0.000000 0.868216
C49   C     C_R   0.000000 0.932686 0.000000 0.868216
C50   C     C_R   0.432763 0.500051 0.067347 0.867305
C51   C     C_R   0.567237 0.500051 0.932653 0.867305
C52   C     C_R   0.932763 0.000051 0.067347 0.867305
C53   C     C_R   0.067237 0.000051 0.932653 0.867305
C54   C     C_R   0.500000 0.567096 0.000000 0.864864
C55   C     C_R   0.000000 0.067096 0.000000 0.864864
C56   C     C_R   0.514007 0.622663 0.036005 -0.191026
C57   C     C_R   0.522962 0.978933 0.693974 0.043590
C58   C     C_R   0.485993 0.622663 0.963995 -0.191026
C59   C     C_R   0.014007 0.122663 0.036005 -0.191026
C60   C     C_R   0.985993 0.122663 0.963995 -0.191025
C61   C     C_R   0.514336 0.658446 0.035344 -0.173897
C62   C     C_R   0.485664 0.658446 0.964656 -0.173897
C63   C     C_R   0.014336 0.158446 0.035344 -0.173898
C64   C     C_R   0.985664 0.158446 0.964656 -0.173898
C65   C     C_R   0.500000 0.676370 1.000000 0.108842
C66   C     C_R   0.000000 0.176370 0.000000 0.108842
C67   C     C_R   0.500000 0.604621 0.000000 -0.029227
C68   C     C_R   0.477038 0.978933 0.306026 0.043590
C69   C     C_R   0.000000 0.104621 0.000000 -0.029228
C70   C     C_R   0.468861 0.731780 0.028449 -0.182154
C71   C     C_R   0.531139 0.731780 0.971551 -0.182154
C72   C     C_R   0.968861 0.231780 0.028449 -0.182154
C73   C     C_R   0.031139 0.231780 0.971551 -0.182154
C74   C     C_R   0.949129 0.540902 0.735524 0.143447
C75   C     C_R   0.050871 0.540902 0.264476 0.143447
C76   C     C_R   0.449129 0.040902 0.735524 0.143446
C77   C     C_R   0.550871 0.040903 0.264476 0.143446
C78   C     C_R   0.968818 0.267553 0.029113 -0.186603
C79   C     C_R   0.999378 0.500007 0.686705 -0.101121
C80   C     C_R   0.031182 0.267553 0.970886 -0.186603
C81   C     C_R   0.468818 0.767553 0.029113 -0.186604
C82   C     C_R   0.531182 0.767553 0.970886 -0.186603
C83   C     C_R   1.000000 0.285759 1.000000 0.117691
C84   C     C_R   0.500000 0.785759 1.000000 0.117691
C85   C     C_R   0.500000 0.713863 1.000000 0.100667
C86   C     C_R   0.000000 0.213863 1.000000 0.100667
C87   C     C_R   0.023847 0.341822 0.012135 -0.183308
C88   C     C_R   0.976153 0.341822 0.987865 -0.183308
C89   C     C_R   0.523847 0.841822 0.012135 -0.183308
C90   C     C_R   0.000622 0.500007 0.313295 -0.101121
C91   C     C_R   0.476153 0.841822 0.987865 -0.183308
C92   C     C_R   0.024105 0.377591 0.011243 -0.195283
C93   C     C_R   0.975895 0.377591 0.988757 -0.195282
C94   C     C_R   0.524105 0.877591 0.011243 -0.195281
C95   C     C_R   0.475895 0.877591 0.988757 -0.195281
C96   C     C_R   0.000000 0.395505 0.000000 -0.009754
C97   C     C_R   0.500000 0.895505 0.000000 -0.009755
C98   C     C_R   1.000000 0.323615 1.000000 0.102760
C99   C     C_R   0.500000 0.823615 1.000000 0.102761
C100  C     C_R   0.506927 0.377064 0.047737 -0.191976
C101  C     C_R   0.499378 0.000007 0.686705 -0.101121
C102  C     C_R   0.493074 0.377064 0.952263 -0.191974
C103  C     C_R   0.006926 0.877064 0.047737 -0.191976
C104  C     C_R   0.993074 0.877064 0.952263 -0.191974
C105  C     C_R   0.507079 0.341325 0.047457 -0.188130
C106  C     C_R   0.492921 0.341325 0.952542 -0.188132
C107  C     C_R   0.007079 0.841325 0.047458 -0.188132
C108  C     C_R   0.992921 0.841325 0.952542 -0.188132
C109  C     C_R   0.500000 0.323527 0.000000 0.111425
C110  C     C_R   0.000000 0.823527 1.000000 0.111425
C111  C     C_R   0.918776 0.524335 0.747608 -0.174613
C112  C     C_R   0.932753 0.499981 0.567637 0.891701
C113  C     C_R   0.500622 0.000007 0.313295 -0.101121
C114  C     C_R   0.081224 0.524335 0.252392 -0.174613
C115  C     C_R   0.418776 0.024334 0.747608 -0.174612
C116  C     C_R   0.581224 0.024335 0.252392 -0.174611
C117  C     C_R   0.500000 0.395139 0.000000 -0.033146
C118  C     C_R   0.000000 0.895139 1.000000 -0.033146
C119  C     C_R   0.471533 0.268024 0.052708 0.092110
C120  C     C_R   0.528467 0.268024 0.947292 0.092109
C121  C     C_R   0.971533 0.768024 0.052708 0.092109
C122  C     C_R   0.028467 0.768024 0.947292 0.092110
C123  C     C_R   0.971812 0.732259 0.052382 -0.172468
C124  C     C_R   0.976072 0.521296 0.741920 -0.098417
C125  C     C_R   0.028188 0.732259 0.947618 -0.172470
C126  C     C_R   0.471812 0.232259 0.052382 -0.172469
C127  C     C_R   0.528188 0.232259 0.947618 -0.172469
C128  C     C_R   0.000000 0.714239 1.000000 0.008014
C129  C     C_R   0.500000 0.214239 0.000000 0.008013
C130  C     C_R   0.500000 0.286065 0.000000 -0.003744
C131  C     C_R   0.000000 0.786065 1.000000 -0.003744
C132  C     C_R   0.029792 0.658459 0.986611 -0.174213
C133  C     C_R   0.970208 0.658459 0.013389 -0.174214
C134  C     C_R   0.529792 0.158459 0.986611 -0.174213
C135  C     C_R   0.023928 0.521296 0.258080 -0.098416
C136  C     C_R   0.470208 0.158459 0.013389 -0.174212
C137  C     C_R   0.029841 0.622725 0.986288 -0.183813
C138  C     C_R   0.970159 0.622725 0.013712 -0.183812
C139  C     C_R   0.529841 0.122725 0.986288 -0.183812
C140  C     C_R   0.470159 0.122725 0.013712 -0.183813
C141  C     C_R   0.000000 0.604685 0.000000 -0.036809
C142  C     C_R   0.500000 0.104685 0.000000 -0.036809
C143  C     C_R   0.000000 0.676540 0.000000 0.136269
C144  C     C_R   0.500000 0.176541 0.000000 0.136268
C145  C     C_R   0.893080 0.542789 0.742858 -0.132126
C146  C     C_R   0.476072 0.021296 0.741920 -0.098416
C147  C     C_R   0.106920 0.542790 0.257142 -0.132124
C148  C     C_R   0.393080 0.042789 0.742858 -0.132125
C149  C     C_R   0.606920 0.042790 0.257142 -0.132125
C150  C     C_R   0.897760 0.577690 0.725040 -0.096373
C151  C     C_R   0.102240 0.577690 0.274960 -0.096374
C152  C     C_R   0.397760 0.077690 0.725041 -0.096374
C153  C     C_R   0.602240 0.077690 0.274960 -0.096374
C154  C     C_R   0.977241 0.522238 0.804929 -0.057769
C155  C     C_R   0.022759 0.522238 0.195071 -0.057769
C156  C     C_R   0.477241 0.022237 0.804929 -0.057769
C157  C     C_R   0.523928 0.021296 0.258080 -0.098416
C158  C     C_R   0.522759 0.022238 0.195071 -0.057769
C159  C     C_1   0.173638 0.561848 0.373986 0.138747
C160  C     C_1   0.826362 0.561848 0.626014 0.138747
C161  C     C_1   0.673638 0.061848 0.373986 0.138747
C162  C     C_1   0.326361 0.061848 0.626016 0.138746
C163  C     C_1   0.955222 0.546180 0.860230 0.197859
C164  C     C_1   0.044778 0.546180 0.139769 0.197859
C165  C     C_1   0.455222 0.046179 0.860231 0.197859
C166  C     C_1   0.544778 0.046179 0.139769 0.197859
C167  C     C_R   0.080026 0.463949 0.747399 -0.110697
C168  C     C_R   0.919974 0.463949 0.252601 -0.110698
C169  C     C_R   0.580026 0.963949 0.747399 -0.110698
C170  C     C_R   0.419974 0.963949 0.252601 -0.110697
C171  C     C_R   0.102287 0.440593 0.753366 -0.170048
C172  C     C_R   0.567247 0.999981 0.432363 0.891703
C173  C     C_R   0.897712 0.440593 0.246634 -0.170049
C174  C     C_R   0.602288 0.940593 0.753366 -0.170048
C175  C     C_R   0.397713 0.940593 0.246634 -0.170047
C176  C     C_R   0.091112 0.407256 0.778106 -0.159816
C177  C     C_R   0.908888 0.407256 0.221894 -0.159815
C178  C     C_R   0.591112 0.907256 0.778106 -0.159815
C179  C     C_R   0.408888 0.907256 0.221894 -0.159815
C180  C     C_R   0.057417 0.397193 0.797559 0.164789
C181  C     C_R   0.942583 0.397193 0.202440 0.164790
C182  C     C_R   0.557417 0.897193 0.797559 0.164789
C183  C     C_R   0.432753 0.999981 0.567637 0.891701
C184  C     C_R   0.442583 0.897193 0.202440 0.164789
C185  C     C_R   0.034907 0.420831 0.792907 -0.165192
C186  C     C_R   0.965093 0.420831 0.207093 -0.165192
C187  C     C_R   0.534907 0.920831 0.792907 -0.165190
C188  C     C_R   0.465093 0.920831 0.207093 -0.165192
C189  C     C_R   0.999618 0.499990 0.620404 0.921542
C190  C     C_R   0.000382 0.499990 0.379596 0.921542
C191  C     C_R   0.499618 0.999990 0.620404 0.921542
C192  C     C_R   0.500382 0.999990 0.379596 0.921542
C193  C     C_R   0.046198 0.454209 0.767365 0.089170
C194  C     C_R   0.000230 0.500334 0.813252 -0.154614
C195  C     C_R   0.953802 0.454209 0.232635 0.089170
C196  C     C_R   0.546198 0.954209 0.767365 0.089170
C197  C     C_R   0.453802 0.954209 0.232635 0.089169
C198  C     C_R   0.377034 0.503432 0.067887 -0.192144
C199  C     C_R   0.622966 0.503432 0.932113 -0.192146
C200  C     C_R   0.877034 0.003432 0.067888 -0.192144
C201  C     C_R   0.122966 0.003431 0.932113 -0.192145
C202  C     C_R   0.341324 0.504284 0.104176 -0.178627
C203  C     C_R   0.658676 0.504284 0.895824 -0.178626
C204  C     C_R   0.841324 0.004284 0.104176 -0.178627
C205  C     C_R   0.999769 0.500334 0.186748 -0.154614
C206  C     C_R   0.158676 0.004283 0.895824 -0.178627
C207  C     C_R   0.323395 0.502167 0.178227 0.117404
C208  C     C_R   0.676605 0.502167 0.821773 0.117403
C209  C     C_R   0.823395 0.002167 0.178227 0.117403
C210  C     C_R   0.176605 0.002167 0.821773 0.117405
C211  C     C_R   0.341479 0.499271 0.215701 -0.175204
C212  C     C_R   0.658521 0.499272 0.784299 -0.175205
C213  C     C_R   0.841479 0.999272 0.215700 -0.175203
C214  C     C_R   0.158521 0.999272 0.784299 -0.175204
C215  C     C_R   0.377171 0.498541 0.179498 -0.189558
C216  C     C_R   0.500230 0.000334 0.813252 -0.154614
C217  C     C_R   0.622829 0.498541 0.820502 -0.189558
C218  C     C_R   0.877171 0.998541 0.179498 -0.189559
C219  C     C_R   0.122829 0.998541 0.820501 -0.189558
C220  C     C_R   0.395191 0.500588 0.105337 -0.036230
C221  C     C_R   0.604809 0.500588 0.894663 -0.036230
C222  C     C_R   0.895191 0.000588 0.105337 -0.036231
C223  C     C_R   0.104809 0.000588 0.894663 -0.036230
C224  C     C_R   0.267603 0.478597 0.270164 -0.189883
C225  C     C_R   0.732397 0.478597 0.729835 -0.189883
C226  C     C_R   0.767603 0.978597 0.270165 -0.189884
C227  C     C_R   0.499770 0.000334 0.186748 -0.154614
C228  C     C_R   0.232397 0.978597 0.729834 -0.189883
C229  C     C_R   0.231907 0.478855 0.306070 -0.178876
C230  C     C_R   0.768092 0.478855 0.693930 -0.178876
C231  C     C_R   0.731907 0.978855 0.306070 -0.178877
C232  C     C_R   0.268093 0.978856 0.693929 -0.178877
C233  C     C_R   0.214200 0.503349 0.288834 0.123205
C234  C     C_R   0.785800 0.503349 0.711166 0.123204
C235  C     C_R   0.714200 0.003349 0.288834 0.123204
C236  C     C_R   0.285800 0.003349 0.711166 0.123205
C237  C     C_R   0.927979 0.594308 0.712846 -0.142368
C238  C     C_R   0.023016 0.478481 0.758187 -0.051143
C239  C     C_R   0.072021 0.594308 0.287155 -0.142367
C240  C     C_R   0.427978 0.094308 0.712846 -0.142367
C241  C     C_R   0.572021 0.094308 0.287155 -0.142368
C242  C     C_R   0.232254 0.527440 0.235197 -0.163929
C243  C     C_R   0.767746 0.527440 0.764803 -0.163928
C244  C     C_R   0.732254 0.027440 0.235197 -0.163928
C245  C     C_R   0.267746 0.027440 0.764804 -0.163928
C246  C     C_R   0.267975 0.527132 0.199075 -0.184441
C247  C     C_R   0.732025 0.527132 0.800925 -0.184441
C248  C     C_R   0.767975 0.027132 0.199075 -0.184441
H1    H     H_    0.877946 0.591853 0.720818 0.126442
H2    H     H_    0.991067 0.413031 0.192333 0.133754
H3    H     H_    0.447107 0.171953 0.022782 0.133403
H4    H     H_    0.053065 0.609245 0.976158 0.165485
H5    H     H_    0.946935 0.609245 0.023842 0.165485
H6    H     H_    0.553065 0.109245 0.976158 0.165485
H7    H     H_    0.446935 0.109245 0.023842 0.165485
H8    H     H_    0.914989 0.497256 0.761079 0.117323
H9    H     H_    0.085011 0.497256 0.238921 0.117323
H10   H     H_    0.414989 0.997255 0.761079 0.117323
H11   H     H_    0.585011 0.997256 0.238921 0.117323
H12   H     H_    0.869591 0.530006 0.752711 0.139793
H13   H     H_    0.508933 0.913032 0.807666 0.133754
H14   H     H_    0.130409 0.530006 0.247289 0.139792
H15   H     H_    0.369591 0.030005 0.752711 0.139792
H16   H     H_    0.630409 0.030006 0.247289 0.139793
H17   H     H_    0.089078 0.489566 0.727160 0.128818
H18   H     H_    0.910922 0.489566 0.272840 0.128818
H19   H     H_    0.589078 0.989566 0.727159 0.128818
H20   H     H_    0.410922 0.989566 0.272840 0.128818
H21   H     H_    0.128334 0.448222 0.738105 0.133388
H22   H     H_    0.871666 0.448222 0.261894 0.133388
H23   H     H_    0.628334 0.948222 0.738105 0.133388
H24   H     H_    0.491067 0.913032 0.192333 0.133755
H25   H     H_    0.371666 0.948222 0.261895 0.133387
H26   H     H_    0.050420 0.357391 0.862756 0.201281
H27   H     H_    0.061686 0.346182 0.779133 0.175644
H28   H     H_    0.949580 0.357391 0.137243 0.201281
H29   H     H_    0.938314 0.346182 0.220866 0.175644
H30   H     H_    0.550420 0.857391 0.862757 0.201281
H31   H     H_    0.561687 0.846182 0.779133 0.175645
H32   H     H_    0.449580 0.857391 0.137243 0.201281
H33   H     H_    0.438313 0.846182 0.220866 0.175644
H34   H     H_    0.125500 0.422812 0.317706 0.172823
H35   H     H_    0.390369 0.505056 0.010654 0.154836
H36   H     H_    0.096798 0.449378 0.314074 0.171989
H37   H     H_    0.874500 0.422812 0.682293 0.172823
H38   H     H_    0.903202 0.449378 0.685926 0.171989
H39   H     H_    0.625500 0.922812 0.317707 0.172823
H40   H     H_    0.596798 0.949378 0.314074 0.171989
H41   H     H_    0.374500 0.922811 0.682291 0.172823
H42   H     H_    0.403202 0.949377 0.685925 0.171989
H43   H     H_    0.432188 0.301613 0.082037 0.194053
H44   H     H_    0.449671 0.300672 0.136123 0.189620
H45   H     H_    0.567812 0.301613 0.917963 0.194053
H46   H     H_    0.609631 0.505056 0.989346 0.154836
H47   H     H_    0.550329 0.300672 0.863877 0.189620
H48   H     H_    0.932188 0.801613 0.082036 0.194053
H49   H     H_    0.949670 0.800672 0.136123 0.189620
H50   H     H_    0.067812 0.801613 0.917963 0.194053
H51   H     H_    0.050330 0.800672 0.863877 0.189620
H52   H     H_    0.043306 0.432503 0.650269 0.197757
H53   H     H_    0.071957 0.465517 0.622669 0.183877
H54   H     H_    0.956694 0.432503 0.349731 0.197758
H55   H     H_    0.928043 0.465517 0.377331 0.183877
H56   H     H_    0.543306 0.932503 0.650269 0.197757
H57   H     H_    0.890369 0.005056 0.010654 0.154836
H58   H     H_    0.571958 0.965517 0.622669 0.183877
H59   H     H_    0.456694 0.932503 0.349731 0.197757
H60   H     H_    0.428043 0.965517 0.377331 0.183877
H61   H     H_    0.109631 0.005054 0.989346 0.154836
H62   H     H_    0.327686 0.506167 0.074443 0.129996
H63   H     H_    0.672314 0.506167 0.925557 0.129996
H64   H     H_    0.827686 0.006167 0.074443 0.129996
H65   H     H_    0.122054 0.591853 0.279183 0.126442
H66   H     H_    0.172314 0.006165 0.925557 0.129996
H67   H     H_    0.327983 0.497933 0.272984 0.132438
H68   H     H_    0.672017 0.497934 0.727016 0.132438
H69   H     H_    0.827983 0.997934 0.272984 0.132438
H70   H     H_    0.172017 0.997935 0.727016 0.132438
H71   H     H_    0.390601 0.496389 0.209596 0.156388
H72   H     H_    0.609399 0.496389 0.790404 0.156389
H73   H     H_    0.890601 0.996389 0.209596 0.156389
H74   H     H_    0.109399 0.996390 0.790404 0.156389
H75   H     H_    0.281003 0.459316 0.283591 0.133416
H76   H     H_    0.377946 0.091852 0.720818 0.126443
H77   H     H_    0.718997 0.459317 0.716408 0.133417
H78   H     H_    0.781003 0.959317 0.283592 0.133417
H79   H     H_    0.218997 0.959317 0.716406 0.133416
H80   H     H_    0.218048 0.460030 0.347273 0.138281
H81   H     H_    0.781952 0.460031 0.652726 0.138282
H82   H     H_    0.718048 0.960030 0.347273 0.138282
H83   H     H_    0.281952 0.960031 0.652725 0.138281
H84   H     H_    0.218662 0.546220 0.221130 0.131917
H85   H     H_    0.781338 0.546220 0.778871 0.131916
H86   H     H_    0.718662 0.046220 0.221130 0.131916
H87   H     H_    0.622054 0.091853 0.279182 0.126443
H88   H     H_    0.281338 0.046220 0.778872 0.131916
H89   H     H_    0.931531 0.621359 0.699251 0.123917
H90   H     H_    0.068468 0.621359 0.300749 0.123917
H91   H     H_    0.431531 0.121358 0.699252 0.123917
H92   H     H_    0.568468 0.121358 0.300749 0.123917
H93   H     H_    0.281685 0.546050 0.158013 0.133221
H94   H     H_    0.718315 0.546050 0.841987 0.133220
H95   H     H_    0.781685 0.046050 0.158013 0.133221
H96   H     H_    0.218315 0.046049 0.841989 0.133221
H97   H     H_    0.175242 0.452010 0.288559 0.140853
H98   H     H_    0.108661 0.389170 0.781693 0.123105
H99   H     H_    0.824758 0.452010 0.711440 0.140853
H100  H     H_    0.675242 0.952010 0.288559 0.140852
H101  H     H_    0.324758 0.952010 0.711439 0.140852
H102  H     H_    0.106974 0.551542 0.431793 0.170872
H103  H     H_    0.893026 0.551542 0.568207 0.170872
H104  H     H_    0.606974 0.051542 0.431793 0.170872
H105  H     H_    0.393026 0.051543 0.568208 0.170872
H106  H     H_    0.525076 0.609112 0.063773 0.149781
H107  H     H_    0.474924 0.609112 0.936227 0.149781
H108  H     H_    0.025076 0.109112 0.063773 0.149781
H109  H     H_    0.891339 0.389170 0.218307 0.123105
H110  H     H_    0.974924 0.109112 0.936227 0.149781
H111  H     H_    0.525389 0.672181 0.062946 0.133918
H112  H     H_    0.474611 0.672181 0.937054 0.133917
H113  H     H_    0.025389 0.172181 0.062946 0.133918
H114  H     H_    0.974611 0.172181 0.937054 0.133918
H115  H     H_    0.444649 0.718039 0.051062 0.135274
H116  H     H_    0.555351 0.718039 0.948937 0.135274
H117  H     H_    0.944649 0.218039 0.051063 0.135274
H118  H     H_    0.055351 0.218039 0.948937 0.135274
H119  H     H_    0.944402 0.280918 0.053128 0.125062
H120  H     H_    0.608661 0.889171 0.781693 0.123105
H121  H     H_    0.055598 0.280918 0.946872 0.125062
H122  H     H_    0.444402 0.780918 0.053128 0.125062
H123  H     H_    0.555598 0.780918 0.946872 0.125062
H124  H     H_    0.042062 0.328468 0.022995 0.132986
H125  H     H_    0.957938 0.328468 0.977005 0.132986
H126  H     H_    0.542062 0.828468 0.022995 0.132986
H127  H     H_    0.457938 0.828468 0.977004 0.132986
H128  H     H_    0.976840 0.589134 0.709167 0.120980
H129  H     H_    0.023160 0.589134 0.290833 0.120980
H130  H     H_    0.476840 0.089134 0.709167 0.120980
H131  H     H_    0.391339 0.889170 0.218307 0.123105
H132  H     H_    0.523160 0.089134 0.290833 0.120980
H133  H     H_    0.042638 0.391278 0.020690 0.144134
H134  H     H_    0.957362 0.391278 0.979310 0.144134
H135  H     H_    0.542638 0.891278 0.020690 0.144134
H136  H     H_    0.457362 0.891278 0.979310 0.144134
H137  H     H_    0.512480 0.390500 0.084800 0.154639
H138  H     H_    0.487520 0.390500 0.915200 0.154638
H139  H     H_    0.012479 0.890500 0.084801 0.154639
H140  H     H_    0.987521 0.890500 0.915199 0.154639
H141  H     H_    0.512663 0.327506 0.084103 0.133757
H142  H     H_    0.008933 0.413031 0.807666 0.133755
H143  H     H_    0.487337 0.327506 0.915896 0.133758
H144  H     H_    0.012663 0.827506 0.084104 0.133758
H145  H     H_    0.987337 0.827506 0.915896 0.133758
H146  H     H_    0.950077 0.718537 0.093590 0.150471
H147  H     H_    0.049923 0.718537 0.906410 0.150472
H148  H     H_    0.450077 0.218537 0.093590 0.150471
H149  H     H_    0.549923 0.218537 0.906410 0.150471
H150  H     H_    0.052892 0.671953 0.977218 0.133403
H151  H     H_    0.947108 0.671953 0.022782 0.133404
H152  H     H_    0.552892 0.171953 0.977218 0.133403
N1    N     N_3   0.046115 0.362791 0.820498 -0.464038
N2    N     N_1   0.813352 0.586288 0.619483 -0.207833
N3    N     N_1   0.686648 0.086288 0.380517 -0.207832
N4    N     N_1   0.313352 0.086288 0.619486 -0.207832
N5    N     N_3   0.441968 0.285470 0.106573 -0.465343
N6    N     N_3   0.558032 0.285470 0.893427 -0.465342
N7    N     N_3   0.941968 0.785470 0.106572 -0.465342
N8    N     N_3   0.058032 0.785470 0.893428 -0.465343
N9    N     N_1   0.937715 0.565286 0.904172 -0.212622
N10   N     N_1   0.062285 0.565286 0.095828 -0.212623
N11   N     N_1   0.437715 0.065286 0.904172 -0.212622
N12   N     N_3   0.953885 0.362791 0.179502 -0.464038
N13   N     N_1   0.562285 0.065286 0.095828 -0.212623
N14   N     N_3   0.047007 0.458394 0.635258 -0.437696
N15   N     N_3   0.952993 0.458394 0.364742 -0.437696
N16   N     N_3   0.547007 0.958394 0.635258 -0.437696
N17   N     N_3   0.452993 0.958394 0.364742 -0.437696
N18   N     N_3   0.546115 0.862792 0.820498 -0.464038
N19   N     N_3   0.453885 0.862791 0.179502 -0.464038
N20   N     N_3   0.107556 0.442099 0.345504 -0.428283
N21   N     N_3   0.892444 0.442099 0.654495 -0.428283
N22   N     N_3   0.607556 0.942099 0.345505 -0.428283
N23   N     N_3   0.392444 0.942099 0.654494 -0.428282
N24   N     N_1   0.186648 0.586288 0.380517 -0.207833
O1    O     O_R   0.050910 0.528730 0.449120 -0.625634
O2    O     O_R   0.550920 0.499990 0.000830 -0.627168
O3    O     O_R   0.949080 0.999990 0.999170 -0.627168
O4    O     O_R   0.050920 0.999990 0.000830 -0.627168
O5    O     O_R   0.500000 0.550830 0.051830 -0.621933
O6    O     O_R   0.500000 0.550830 0.948170 -0.621932
O7    O     O_R   0.000000 0.050830 0.051830 -0.621933
O8    O     O_R   0.000000 0.050830 0.948170 -0.621932
O9    O     O_R   0.050890 0.471250 0.449130 -0.598893
O10   O     O_R   0.949110 0.471250 0.550870 -0.598893
O11   O     O_R   0.550890 0.971250 0.449130 -0.598893
O12   O     O_R   0.949090 0.528730 0.550880 -0.625633
O13   O     O_R   0.449110 0.971250 0.550870 -0.598893
O14   O     O_R   0.000000 0.528730 0.591620 -0.627920
O15   O     O_R   1.000000 0.528730 0.408380 -0.627920
O16   O     O_R   0.500000 0.028730 0.591620 -0.627920
O17   O     O_R   0.500000 0.028730 0.408380 -0.627920
O18   O     O_R   0.999980 0.471250 0.591630 -0.609690
O19   O     O_R   0.000020 0.471250 0.408370 -0.609689
O20   O     O_R   0.499980 0.971250 0.591630 -0.609690
O21   O     O_R   0.500020 0.971250 0.408370 -0.609689
O22   O     O_R   0.971250 0.449060 0.028730 -0.619282
O23   O     O_R   0.550910 0.028730 0.449120 -0.625634
O24   O     O_R   0.028750 0.449060 0.971270 -0.619282
O25   O     O_R   0.471250 0.949060 0.028730 -0.619282
O26   O     O_R   0.528750 0.949060 0.971270 -0.619282
O27   O     O_R   0.971250 0.499970 0.937120 -0.619783
O28   O     O_R   0.028750 0.499970 0.062880 -0.619783
O29   O     O_R   0.471250 0.999970 0.937120 -0.619783
O30   O     O_R   0.528750 0.999970 0.062880 -0.619783
O31   O     O_R   0.028730 0.499980 0.879660 -0.615170
O32   O     O_R   0.971270 0.499980 0.120340 -0.615170
O33   O     O_R   0.528730 0.999980 0.879660 -0.615169
O34   O     O_R   0.449090 0.028730 0.550880 -0.625633
O35   O     O_R   0.471270 0.999980 0.120340 -0.615170
O36   O     O_R   0.971250 0.550880 0.028740 -0.622815
O37   O     O_R   0.028750 0.550880 0.971260 -0.622816
O38   O     O_R   0.471250 0.050880 0.028740 -0.622815
O39   O     O_R   0.528750 0.050880 0.971260 -0.622816
O40   O     O_R   0.499970 0.449010 0.051630 -0.624731
O41   O     O_R   0.500030 0.449010 0.948370 -0.624730
O42   O     O_R   0.999970 0.949010 0.051630 -0.624731
O43   O     O_R   0.000030 0.949010 0.948370 -0.624730
O44   O     O_R   0.449080 0.499920 0.102620 -0.623353
O45   O     O_R   0.550920 0.499920 0.897380 -0.623353
O46   O     O_R   0.949080 0.999920 0.102620 -0.623353
O47   O     O_R   0.050920 0.999920 0.897380 -0.623353
O48   O     O_R   0.449080 0.499990 0.999170 -0.627168
Zn1   Zn    Zn3+2 0.000000 0.538370 0.500000 0.954948
Zn2   Zn    Zn3+2 0.500010 0.499910 0.930920 0.943034
Zn3   Zn    Zn3+2 0.999990 0.999910 0.069080 0.943033
Zn4   Zn    Zn3+2 0.000010 0.999910 0.930920 0.943034
Zn5   Zn    Zn3+2 0.500000 0.038370 0.500000 0.954947
Zn6   Zn    Zn3+2 0.000000 0.461610 0.500000 0.982055
Zn7   Zn    Zn3+2 0.500000 0.961610 0.500000 0.982055
Zn8   Zn    Zn3+2 0.961610 0.499970 0.038370 0.966545
Zn9   Zn    Zn3+2 0.038390 0.499970 0.961630 0.966545
Zn10  Zn    Zn3+2 0.461610 0.999970 0.038370 0.966545
Zn11  Zn    Zn3+2 0.538390 0.999970 0.961630 0.966545
Zn12  Zn    Zn3+2 0.499990 0.499910 0.069080 0.943033

loop_
_geom_bond_atom_site_label_1
_geom_bond_atom_site_label_2
_ccdc_geom_bond_type
C21   C26   A    
C52   C222  S    
C157  C158  A    
H52   N14   S    
C50   O48   A    
C136  C140  A    
H26   N1    S    
C203  H63   S    
C42   O28   A    
C89   C99   A    
C6    C248  A    
C34   C96   S    
O25   Zn10  S    
C127  H149  S    
C139  C142  A    
C91   H127  S    
C46   N15   S    
C29   C33   A    
C119  C130  A    
C201  H61   S    
C2    C195  S    
C89   C94   A    
C149  C153  A    
C72   H117  S    
C45   O37   A    
O28   Zn9   S    
C183  O34   A    
C51   O2    A    
C58   H107  S    
C199  H46   S    
C156  C216  A    
C169  C174  A    
O37   Zn9   S    
C36   C97   S    
C179  H131  S    
C120  N6    S    
C71   C82   A    
C183  O13   A    
C35   N14   S    
C76   C146  S    
C182  N18   S    
H41   N23   S    
C218  H73   S    
C1    O9    A    
C80   C83   A    
C95   H136  S    
C25   C29   A    
C31   C234  S    
C55   O8    A    
C134  H152  S    
C28   C32   A    
C48   O41   A    
C247  H94   S    
C167  C171  A    
C94   C97   A    
C155  C205  A    
C132  C137  A    
C115  C148  A    
C187  H13   S    
C209  C213  A    
H48   N7    S    
O11   Zn7   S    
C64   C66   A    
C43   O33   A    
C19   C23   A    
C154  C163  S    
H39   N22   S    
C41   O31   A    
C9    H99   S    
C110  C131  S    
C125  H147  S    
C248  H95   S    
C126  H148  S    
C178  C182  A    
C33   C236  S    
C59   C69   A    
C46   C90   A    
O39   Zn11  S    
C82   C84   A    
C22   C27   A    
C107  C110  A    
H32   N19   S    
C7    C210  S    
O30   Zn11  S    
C164  N10   T    
C191  O20   A    
C36   O25   A    
H28   N12   S    
O7    Zn3   S    
C241  H92   S    
C140  C142  A    
C101  C191  S    
C138  C141  A    
C95   C97   A    
C180  N1    S    
C8    H97   S    
C53   C223  S    
C59   C63   A    
C225  C230  A    
C60   C64   A    
C51   O45   A    
C192  O21   A    
C8    C30   A    
C210  C214  A    
C224  C229  A    
C51   C221  S    
C52   O3    A    
C208  C212  A    
H29   N12   S    
C5    C225  A    
C230  C234  A    
C172  O23   A    
C132  H150  S    
C44   C227  S    
C133  H151  S    
C160  N2    T    
C228  H79   S    
C61   C65   A    
C58   C67   A    
C20   C25   A    
C40   C77   A    
O10   Zn6   S    
C103  C107  A    
C100  C117  A    
H43   N5    S    
C113  C157  A    
C190  O15   A    
C215  C220  A    
O2    Zn12  S    
C12   N20   S    
C175  H25   S    
C229  H80   S    
C129  C144  S    
O43   Zn4   S    
H47   N6    S    
C87   H124  S    
H27   N1    S    
O41   Zn2   S    
C188  C197  A    
C57   N16   S    
C114  C147  A    
O46   Zn3   S    
H44   N5    S    
C13   C57   A    
C232  C236  A    
C42   C205  S    
C72   C78   A    
C47   O38   A    
C224  H75   S    
C13   C196  S    
C198  C202  A    
H59   N17   S    
C202  H62   S    
O9    Zn6   S    
C138  H5    S    
H50   N8    S    
C145  C150  A    
C8    C12   A    
C42   O32   A    
C231  H82   S    
C30   C233  S    
O17   Zn5   S    
C188  H24   S    
C207  C211  A    
C167  C193  A    
C199  C203  A    
C237  H89   S    
C43   C216  S    
C1    O1    A    
C116  C149  A    
C28   C161  S    
C185  H142  S    
C121  C123  A    
C120  C127  A    
O32   Zn8   S    
C240  H91   S    
C225  H77   S    
C11   C33   A    
C139  H6    S    
C19   C172  S    
C104  H140  S    
C71   H116  S    
C134  C139  A    
C2    C205  A    
C24   C68   A    
C39   C76   A    
C166  N13   T    
O26   Zn11  S    
C119  N5    S    
C147  C151  A    
C127  C129  A    
C22   H103  S    
C206  C210  A    
C56   H106  S    
C200  C204  A    
C150  C237  A    
C140  H7    S    
C176  H98   S    
C23   C28   A    
C194  C238  A    
O31   Zn9   S    
C55   C69   S    
O4    Zn3   S    
C54   O5    A    
C189  O18   A    
C26   C30   A    
C121  C131  A    
C202  C207  A    
C79   C189  S    
C242  H84   S    
C21   H102  S    
C201  C223  A    
C122  C131  A    
C137  H4    S    
C159  N24   T    
H36   N20   S    
C181  N12   S    
C179  C184  A    
C90   C190  S    
O33   Zn11  S    
C113  C192  S    
C105  C109  A    
C18   C22   A    
C29   C162  S    
H53   N14   S    
C148  C152  A    
O5    Zn12  S    
C66   C86   S    
C44   O35   A    
C181  C186  A    
O21   Zn7   S    
C48   C117  S    
H49   N7    S    
O19   Zn6   S    
C57   C101  A    
C79   C124  A    
H60   N17   S    
C1    C17   S    
C70   H115  S    
C11   H101  S    
C122  C125  A    
C204  H64   S    
C90   C135  A    
C184  N19   S    
C60   C69   A    
C177  C181  A    
C35   C79   A    
C217  H72   S    
C108  C110  A    
C246  H93   S    
C229  C233  A    
C114  H9    S    
C193  C238  S    
C239  H90   S    
C171  H21   S    
C134  C144  A    
C233  C242  A    
C176  C180  A    
C151  H65   S    
C231  C235  A    
C161  N3    T    
C91   C99   A    
C70   C85   A    
C162  N4    T    
C158  C227  A    
C170  C197  A    
C88   C98   A    
C106  C109  A    
C58   C62   A    
C74   C124  S    
C37   C74   A    
C187  C196  A    
O1    Zn1   S    
C192  O17   A    
H45   N6    S    
C245  H88   S    
C49   O43   A    
C43   O29   A    
C6    C209  S    
H55   N15   S    
C23   H104  S    
C14   N21   S    
C15   C19   A    
H56   N16   S    
C55   O7    A    
C242  C246  A    
C172  O11   A    
C106  H143  S    
C18   C112  S    
C3    C7    A    
C45   O36   A    
C75   C135  S    
C212  C217  A    
C76   C115  A    
C78   C83   A    
C102  H138  S    
C168  C195  A    
C204  C209  A    
O38   Zn10  S    
C24   C227  A    
C174  C178  A    
C40   C241  A    
C47   O39   A    
C68   C113  A    
C87   C98   A    
C132  C143  A    
C34   O24   A    
C63   C66   A    
C133  C138  A    
C87   C92   A    
C45   C141  S    
O34   Zn5   S    
C37   H128  S    
C104  C118  A    
C170  C175  A    
C177  H109  S    
O16   Zn5   S    
C36   O26   A    
C169  H19   S    
C170  H20   S    
C232  H83   S    
C112  O10   A    
C89   H126  S    
C217  C221  A    
C74   C111  A    
H58   N16   S    
C88   H125  S    
C27   C31   A    
O42   Zn3   S    
C244  C248  A    
C49   O42   A    
C9    C14   A    
C167  H17   S    
C44   O30   A    
C41   C194  S    
O22   Zn8   S    
C11   C16   A    
C213  C218  A    
C92   H133  S    
C153  C241  A    
C26   C159  S    
C94   H135  S    
C80   H121  S    
C123  H146  S    
C4    C246  A    
C20   C183  S    
O24   Zn9   S    
C24   C197  S    
C243  C247  A    
C103  C118  A    
C213  H69   S    
H42   N23   S    
C104  C108  A    
C158  C166  S    
C4    C207  S    
C215  H71   S    
C203  C208  A    
C111  H8    S    
C137  C141  A    
C93   H134  S    
C53   O4    A    
C84   C99   S    
C236  C245  A    
H38   N21   S    
C72   C86   A    
C15   N22   S    
C78   H119  S    
C206  H66   S    
C63   H113  S    
C151  C239  A    
C126  C129  A    
C214  C219  A    
C200  C222  A    
C243  H85   S    
C50   O44   A    
C136  C144  A    
O47   Zn4   S    
C5    C208  S    
C59   H108  S    
C211  H67   S    
C189  O14   A    
O27   Zn8   S    
C156  C165  S    
C60   H110  S    
C6    C226  A    
C50   C220  S    
C201  C206  A    
C128  C143  S    
C244  H86   S    
C235  C244  A    
C186  H2    S    
C226  H78   S    
C219  C223  A    
C34   O22   A    
C219  H74   S    
C56   C61   A    
C3    C245  A    
H51   N8    S    
C32   C235  S    
C17   C21   A    
C211  C215  A    
C107  H144  S    
C124  C154  A    
O13   Zn7   S    
C14   C18   A    
C92   C96   A    
C48   O40   A    
C52   O46   A    
C2    C46   A    
C47   C142  S    
C100  C105  A    
C120  C130  A    
C13   C216  A    
C25   H105  S    
O48   Zn2   S    
C10   C15   A    
C111  C145  A    
C173  H22   S    
H30   N18   S    
C7    C228  A    
C152  H76   S    
C226  C231  A    
O36   Zn8   S    
C135  C155  A    
C228  C232  A    
C105  H141  S    
C191  O16   A    
H37   N21   S    
C70   C81   A    
C38   C239  A    
C71   C85   A    
C125  C128  A    
C136  H3    S    
C64   H114  S    
O6    Zn2   S    
C77   C116  A    
O23   Zn5   S    
C149  H16   S    
C16   C20   A    
C234  C243  A    
H31   N18   S    
O29   Zn10  S    
C54   O6    A    
H40   N22   S    
C3    H96   S    
C41   O27   A    
C145  H12   S    
C184  C188  A    
O12   Zn1   S    
C35   C238  A    
C200  H57   S    
C5    C247  A    
C39   C240  A    
C218  C222  A    
C169  C196  A    
C38   C75   A    
C168  C173  A    
C101  C146  A    
C133  C143  A    
C38   H129  S    
C186  C195  A    
C175  C179  A    
C54   C67   S    
C27   C160  S    
C4    C224  A    
C103  H139  S    
C83   C98   S    
C163  N9    T    
C116  H11   S    
O44   Zn12  S    
C171  C176  A    
C37   C237  A    
C49   C118  S    
C152  C240  A    
C173  C177  A    
C73   H118  S    
C75   C114  A    
C68   N17   S    
C147  H14   S    
C39   H130  S    
O14   Zn1   S    
C199  C221  A    
C102  C117  A    
C61   H111  S    
C230  H81   S    
C82   H123  S    
C93   C96   A    
C108  H145  S    
C212  H68   S    
C16   N23   S    
C81   C84   A    
C150  H1    S    
C88   C93   A    
C62   C65   A    
C100  H137  S    
C198  C220  A    
O3    Zn4   S    
C185  C193  A    
C190  O19   A    
C115  H10   S    
C168  H18   S    
C81   H122  S    
O45   Zn2   S    
C65   C85   S    
C174  H23   S    
C155  C164  S    
C56   C67   A    
C165  N11   T    
C112  O12   A    
C178  H120  S    
C10   H100  S    
C53   O47   A    
O40   Zn12  S    
C12   C17   A    
C123  C128  A    
H33   N19   S    
H54   N15   S    
H34   N20   S    
C73   C80   A    
C102  C106  A    
C62   H112  S    
C182  C187  A    
C148  H15   S    
O18   Zn6   S    
C40   H132  S    
C73   C86   A    
C214  H70   S    
C180  C185  A    
C9    C31   A    
C198  H35   S    
C154  C194  A    
O20   Zn7   S    
C10   C32   A    
C146  C156  A    
C91   C95   A    
O15   Zn1   S    
O8    Zn4   S    
C109  C130  S    
C119  C126  A    
C153  H87   S    
O35   Zn10  S    
C121  N7    S    
C77   C157  S    
C122  N8    S    
