data_mof_unit_20745.cif
_audit_creation_date              2012-12-10T20:44:50-0500
_audit_creation_method            fapswitch 2.2
_symmetry_space_group_name_H-M    P1
_symmetry_Int_Tables_number       1
_space_group_crystal_system       triclinic
_cell_length_a                    9.856367
_cell_length_b                    10.651215
_cell_length_c                    16.684313
_cell_angle_alpha                 87.531267
_cell_angle_beta                  93.870204
_cell_angle_gamma                 88.88161
_cell_volume                      1745.49901856

loop_
_atom_site_label
_atom_site_type_symbol
_atom_type_description
_atom_site_fract_x
_atom_site_fract_y
_atom_site_fract_z
_atom_type_partial_charge
C1    C     C_R   0.500323 0.259926 0.494291 0.964567
C2    C     C_R   0.499924 0.130137 0.473715 -0.224901
C3    C     C_R   0.378297 0.071313 0.446928 0.457761
C4    C     C_R   0.515972 0.521649 0.650934 1.012061
C5    C     C_R   0.376495 0.939499 0.450456 -0.351718
C6    C     C_R   0.497071 0.871741 0.473651 -0.107318
C7    C     C_R   0.619891 0.933132 0.474108 -0.009164
C8    C     C_3   0.746170 0.913647 0.527847 -0.418116
C9    C     C_3   0.748699 0.055412 0.530863 0.646999
C10   C     C_R   0.079584 0.476461 0.569703 0.203370
C11   C     C_R   0.063502 0.533689 0.432449 -0.118727
C12   C     C_R   0.646257 0.608406 0.771463 0.281157
C13   C     C_R   0.919619 0.533208 0.432343 -0.114229
C14   C     C_R   0.936963 0.478530 0.570237 0.182576
C15   C     C_3   0.941614 0.361746 0.623376 0.114954
C16   C     C_R   0.498335 0.740267 0.494022 0.902284
C17   C     C_3   0.095875 0.363082 0.625955 0.170580
C18   C     C_R   0.483063 0.500164 0.346309 0.859411
C19   C     C_R   0.522252 0.569878 0.732895 -0.304235
C20   C     C_R   0.402185 0.587777 0.773188 0.329175
C21   C     C_R   0.411406 0.601576 0.855153 -0.275915
C22   C     C_R   0.538776 0.604996 0.897563 0.140138
C23   C     C_R   0.587712 0.472224 0.136634 0.414619
C24   C     C_R   0.655874 0.619806 0.855426 0.408921
C25   C     C_3   0.162150 0.157085 0.651526 0.153947
C26   C     C_3   0.224782 0.040196 0.618795 -0.650031
C27   C     C_3   0.868671 0.555037 0.905059 0.210594
C28   C     C_3   0.984282 0.586690 0.965411 -0.736409
C29   C     C_3   0.209729 0.124807 0.349510 0.127812
C30   C     C_3   0.122958 0.239366 0.319770 -0.710227
C31   C     C_R   0.591438 0.467377 0.219898 -0.264267
C32   C     C_R   0.466572 0.511330 0.092253 0.247679
C33   C     C_R   0.474851 0.498418 0.259160 -0.090297
C34   C     C_R   0.352276 0.529100 0.214630 -0.222333
C35   C     C_R   0.348420 0.535009 0.131283 -0.231910
C36   C     C_R   0.621758 0.060826 0.475969 0.004281
Cl1   Cl    Cl    0.725215 0.106553 0.629924 -0.579406
Cl2   Cl    Cl    0.889988 0.118970 0.482583 -0.647775
Cl3   Cl    Cl    0.879676 0.377995 0.720045 -0.571917
Cl4   Cl    Cl    0.734146 0.423824 0.090506 -0.643306
Cl5   Cl    Cl    0.778604 0.667729 0.715346 -0.518810
Cl6   Cl    Cl    0.239128 0.612605 0.724572 -0.609344
H1    H     H_    0.685515 0.439008 0.253801 0.192754
H2    H     H_    0.318755 0.608197 0.886400 0.207222
H3    H     H_    0.254377 0.561865 0.096906 0.166771
H4    H     H_    0.059714 0.132422 0.670949 0.199726
H5    H     H_    0.227998 0.183073 0.704940 0.138267
H6    H     H_    0.332292 0.057373 0.606813 0.241794
H7    H     H_    0.222669 0.960641 0.663930 0.223039
H8    H     H_    0.166381 0.014323 0.562940 0.290521
H9    H     H_    0.913468 0.538181 0.847210 0.230151
H10   H     H_    0.820918 0.467256 0.927182 0.182789
H11   H     H_    0.943948 0.605541 0.024377 0.280052
H12   H     H_    0.280851 0.892035 0.441331 0.180860
H13   H     H_    0.058574 0.506647 0.973453 0.208484
H14   H     H_    0.037284 0.671183 0.943366 0.260421
H15   H     H_    0.145638 0.040133 0.346840 0.161884
H16   H     H_    0.293117 0.115188 0.307886 0.115935
H17   H     H_    0.186225 0.324485 0.319765 0.239749
H18   H     H_    0.079798 0.226178 0.257572 0.209479
H19   H     H_    0.038351 0.253422 0.359321 0.295210
H20   H     H_    0.727172 0.864663 0.586051 0.251962
H21   H     H_    0.830161 0.871363 0.495961 0.213304
H22   H     H_    0.110687 0.559068 0.377584 0.138848
H23   H     H_    0.858908 0.558084 0.377364 0.155458
H24   H     H_    0.896230 0.283396 0.591796 0.229399
H25   H     H_    0.146497 0.386353 0.684867 0.172376
H26   H     H_    0.260764 0.551623 0.244037 0.164863
N1    N     N_2   0.549891 0.592959 0.982306 -0.077504
N2    N     N_2   0.459092 0.525547 0.008227 -0.168787
N3    N     N_R   0.142860 0.499130 0.500540 -0.081399
N4    N     N_R   0.857210 0.499170 0.500530 -0.113950
O1    O     O_R   0.614690 0.316790 0.499990 -0.589180
O2    O     O_3   0.774533 0.657134 0.895979 -0.565587
O3    O     O_3   0.259067 0.141174 0.429775 -0.543089
O4    O     O_R   0.385350 0.316760 0.500000 -0.518674
O5    O     O_R   0.627460 0.498860 0.616130 -0.535035
O6    O     O_R   0.398120 0.498820 0.616130 -0.585501
O7    O     O_R   0.614650 0.683240 0.500000 -0.615817
O8    O     O_R   0.385310 0.683210 0.500010 -0.622278
O9    O     O_R   0.601880 0.501180 0.383870 -0.635496
O10   O     O_R   0.372540 0.501140 0.383870 -0.645351
O11   O     O_3   0.152174 0.256319 0.591840 -0.538101
Zn1   Zn    Zn3+2 0.653130 0.500020 0.499990 1.022482
Zn2   Zn    Zn3+2 0.346870 0.499980 0.500010 1.029414

loop_
_geom_bond_atom_site_label_1
_geom_bond_atom_site_label_2
_ccdc_geom_bond_type
C7    C36   A    
C19   C20   A    
C28   H14   S    
C7    C8    S    
C13   H23   S    
C29   C30   S    
C31   H1    S    
C1    C2    S    
C26   H8    S    
O7    Zn1   S    
C11   N3    A    
C10   C17   S    
C23   Cl4   S    
C18   O9    A    
C34   C35   A    
N3    Zn2   S    
C4    C19   S    
C8    C9    S    
C30   H18   S    
C9    C36   S    
C31   C33   A    
C27   O2    S    
C3    O3    S    
C25   H5    S    
C22   N1    S    
C26   H6    S    
C10   N3    A    
C21   C22   A    
C28   H13   S    
C27   H9    S    
C17   H25   S    
C32   C35   A    
C5    H12   S    
C11   H22   S    
C10   C14   A    
C26   H7    S    
C34   H26   S    
C32   N2    S    
O5    Zn1   S    
C25   C26   S    
C15   H24   S    
C16   O8    A    
C23   C31   A    
C4    O6    A    
O8    Zn2   S    
C21   H2    S    
C30   H17   S    
C9    Cl1   S    
C33   C34   A    
C29   H16   S    
C15   Cl3   S    
N4    Zn1   S    
O6    Zn2   S    
C29   H15   S    
C22   C24   A    
C35   H3    S    
O9    Zn1   S    
C27   H10   S    
C12   Cl5   S    
C2    C36   A    
C15   C17   S    
O1    Zn1   S    
C1    O4    A    
C14   N4    A    
C3    C5    A    
C20   Cl6   S    
C28   H11   S    
C6    C7    A    
C29   O3    S    
C13   N4    A    
O10   Zn2   S    
C12   C24   A    
C16   O7    A    
C1    O1    A    
C23   C32   A    
C2    C3    A    
C4    O5    A    
C11   C13   A    
C24   O2    S    
C5    C6    A    
O4    Zn2   S    
C12   C19   A    
C9    Cl2   S    
C18   O10   A    
N1    N2    D    
C18   C33   S    
C8    H21   S    
C6    C16   S    
C20   C21   A    
C30   H19   S    
C27   C28   S    
C25   O11   S    
C14   C15   S    
C17   O11   S    
C25   H4    S    
C8    H20   S    
