data_mof_unit_8415.cif
_audit_creation_date              2012-12-11T17:47:26-0500
_audit_creation_method            fapswitch 2.2
_symmetry_space_group_name_H-M    P1
_symmetry_Int_Tables_number       1
_space_group_crystal_system       triclinic
_cell_length_a                    14.859098
_cell_length_b                    14.931763
_cell_length_c                    15.144517
_cell_angle_alpha                 110.337977
_cell_angle_beta                  108.856486
_cell_angle_gamma                 108.618508
_cell_volume                      2605.12555447

loop_
_atom_site_label
_atom_site_type_symbol
_atom_type_description
_atom_site_fract_x
_atom_site_fract_y
_atom_site_fract_z
_atom_type_partial_charge
C1    C     C_R   0.909196 0.196076 0.995387 -0.144678
C2    C     C_R   0.830426 0.961426 0.919739 -0.221824
C3    C     C_R   0.133642 0.062940 0.739013 -0.087645
C4    C     C_R   0.861346 0.976725 0.217354 -0.130725
C5    C     C_R   0.043329 0.002760 0.743587 -0.192620
C6    C     C_R   0.889777 0.964769 0.136331 -0.185924
C7    C     C_R   0.670851 0.330051 0.205429 -0.120995
C8    C     C_R   0.393960 0.687823 0.879746 -0.132737
C9    C     C_R   0.776056 0.394468 0.293815 -0.116503
C10   C     C_R   0.302983 0.610819 0.778345 -0.122597
C11   C     C_R   0.842976 0.347885 0.315188 0.118587
C12   C     C_R   0.025486 0.751637 0.938588 -0.123916
C13   C     C_R   0.256249 0.644482 0.708340 0.110592
C14   C     C_R   0.803246 0.236189 0.246939 -0.194011
C15   C     C_R   0.305356 0.755898 0.739553 -0.166121
C16   C     C_R   0.298836 0.801475 0.208890 -0.144738
C17   C     C_R   0.685487 0.245621 0.776486 -0.131130
C18   C     C_R   0.698254 0.172287 0.158164 -0.110681
C19   C     C_R   0.397588 0.832546 0.840541 -0.104475
C20   C     C_R   0.631972 0.219200 0.137493 -0.109213
C21   C     C_R   0.441137 0.798715 0.911064 -0.104272
C22   C     C_R   0.963468 0.418060 0.504139 -0.229606
C23   C     C_R   0.303875 0.860186 0.305424 0.067777
C24   C     C_R   0.143768 0.561602 0.510564 -0.240988
C25   C     C_R   0.060243 0.492743 0.601070 0.085573
C26   C     C_R   0.045160 0.489076 0.414425 0.081059
C27   C     C_R   0.152632 0.564641 0.605809 0.027439
C28   C     C_R   0.953763 0.416052 0.410506 0.013442
C29   C     C_R   0.052629 0.018941 0.843437 0.105284
C30   C     C_R   0.814621 0.880358 0.029195 0.114030
C31   C     C_R   0.246020 0.144579 0.931263 -0.144517
C32   C     C_R   0.683264 0.820972 0.086296 -0.152674
C33   C     C_R   0.088706 0.953213 0.372957 -0.129995
C34   C     C_R   0.678510 0.222939 0.676263 0.049519
C35   C     C_R   0.851268 0.065810 0.560190 -0.124970
C36   C     C_R   0.194361 0.006981 0.390769 -0.157497
C37   C     C_R   0.747660 0.045685 0.546341 -0.171295
C38   C     C_R   0.282140 0.019256 0.475062 0.133389
C39   C     C_R   0.687951 0.078421 0.483867 0.108529
C40   C     C_R   0.224513 0.407680 0.974090 -0.130845
C41   C     C_R   0.786067 0.590426 0.091869 -0.137493
C42   C     C_R   0.264108 0.985622 0.546577 -0.203274
C43   C     C_R   0.727515 0.119735 0.426065 -0.217085
C44   C     C_R   0.158046 0.930149 0.527046 -0.222589
C45   C     C_R   0.325181 0.499342 0.048380 0.023248
C46   C     C_R   0.830217 0.137798 0.439039 -0.222178
C47   C     C_R   0.070164 0.913508 0.440061 0.287913
C48   C     C_R   0.893531 0.114209 0.508424 0.257332
C49   C     C_R   0.481349 0.131309 0.563366 -0.242729
C50   C     C_R   0.492660 0.991706 0.393375 -0.238899
C51   C     C_R   0.582153 0.145917 0.571555 0.067276
C52   C     C_R   0.392809 0.968592 0.390250 0.059425
C53   C     C_R   0.587433 0.076124 0.483549 0.033856
C54   C     C_R   0.385692 0.041861 0.473676 0.026164
C55   C     C_R   0.235052 0.132741 0.832116 -0.106906
C56   C     C_R   0.693869 0.498666 0.058819 0.041042
C57   C     C_R   0.758418 0.904242 0.192615 -0.045028
C58   C     C_R   0.840140 0.881982 0.943391 0.024883
C59   C     C_R   0.956454 0.962882 0.851028 0.017063
C60   C     C_R   0.154805 0.088679 0.937269 -0.131751
C61   C     C_R   0.710510 0.808836 0.004208 -0.168876
C62   C     C_R   0.899533 0.834110 0.907784 0.055070
C63   C     C_R   0.904607 0.015976 0.894119 0.052765
C64   C     C_R   0.054201 0.590015 0.313661 -0.116152
C65   C     C_R   0.001276 0.408769 0.700029 -0.153371
C66   C     C_3   0.493401 0.394019 0.020440 -0.179695
C67   C     C_R   0.035136 0.496157 0.320525 0.036983
C68   C     C_3   0.535771 0.602181 0.120359 -0.147821
C69   C     C_3   0.436280 0.445506 0.967616 -0.140904
C70   C     C_3   0.593924 0.550653 0.173373 -0.124840
C71   C     C_3   0.426910 0.499143 0.068468 0.189809
C72   C     C_3   0.601663 0.497214 0.071666 0.187887
C73   C     C_3   0.482543 0.447353 0.121543 -0.183837
C74   C     C_3   0.544923 0.548332 0.019025 -0.162727
C75   C     C_R   0.314783 0.591392 0.064807 -0.127919
C76   C     C_R   0.696900 0.408071 0.999613 -0.127896
C77   C     C_R   0.972850 0.406667 0.218611 -0.102028
C78   C     C_R   0.053803 0.498794 0.694850 0.056550
C79   C     C_R   0.087000 0.590891 0.787861 -0.133929
C80   C     C_R   0.211950 0.796589 0.304147 -0.140516
C81   C     C_R   0.782171 0.262761 0.691173 -0.121370
C82   C     C_R   0.997848 0.196336 0.902118 -0.136469
C83   C     C_R   0.930952 0.748316 0.027668 -0.141218
C84   C     C_R   0.939159 0.132361 0.931793 0.059481
C85   C     C_R   0.946901 0.777471 0.954172 0.057834
C86   C     C_R   0.935945 0.861949 0.841632 -0.214795
H1    H     H_    0.851102 0.169356 0.021241 0.095586
H2    H     H_    0.426344 0.660983 0.934120 0.109547
H3    H     H_    0.805256 0.480322 0.345734 0.123888
H4    H     H_    0.267062 0.525341 0.755700 0.130577
H5    H     H_    0.854922 0.199684 0.260046 0.117995
H6    H     H_    0.270442 0.783813 0.687181 0.111106
H7    H     H_    0.668567 0.086615 0.105161 0.111228
H8    H     H_    0.434177 0.918420 0.864904 0.102089
H9    H     H_    0.891585 0.366746 0.502702 0.136665
H10   H     H_    0.212725 0.616776 0.511241 0.131686
H11   H     H_    0.965721 0.946677 0.670493 0.151606
H12   H     H_    0.060470 0.764352 0.889066 0.095116
H13   H     H_    0.969283 0.023070 0.156329 0.125637
H14   H     H_    0.454066 0.406368 0.163354 0.115484
H15   H     H_    0.570989 0.586633 0.974384 0.119834
H16   H     H_    0.348291 0.831126 0.175868 0.092213
H17   H     H_    0.619544 0.225140 0.794501 0.094049
H18   H     H_    0.163298 0.100204 0.014778 0.113367
H19   H     H_    0.650073 0.746141 0.921501 0.125605
H20   H     H_    0.021032 0.937519 0.303879 0.144765
H21   H     H_    0.900467 0.048903 0.615074 0.135046
H22   H     H_    0.206611 0.030503 0.333768 0.121846
H23   H     H_    0.124773 0.056480 0.663486 0.178139
H24   H     H_    0.717524 0.012450 0.590389 0.130135
H25   H     H_    0.330545 0.992555 0.610698 0.125329
H26   H     H_    0.681875 0.143933 0.376329 0.145771
H27   H     H_    0.143975 0.897278 0.577644 0.149251
H28   H     H_    0.863644 0.175883 0.400249 0.149686
H29   H     H_    0.477246 0.185404 0.629867 0.133755
H30   H     H_    0.499743 0.936160 0.330676 0.127916
H31   H     H_    0.971999 0.820511 0.803535 0.128724
H32   H     H_    0.782728 0.995254 0.944685 0.125382
H33   H     H_    0.370391 0.402392 0.882733 0.129525
H34   H     H_    0.919060 0.042722 0.299086 0.157664
H35   H     H_    0.661409 0.593076 0.257220 0.147682
H36   H     H_    0.479354 0.309226 0.980809 0.099520
H37   H     H_    0.552885 0.687718 0.163966 0.109227
H38   H     H_    0.205827 0.323212 0.939512 0.129399
H39   H     H_    0.812227 0.673864 0.148274 0.141832
H40   H     H_    0.095529 0.673109 0.379272 0.110412
H41   H     H_    0.976936 0.325553 0.646498 0.141495
H42   H     H_    0.378322 0.675718 0.113398 0.092822
H43   H     H_    0.642813 0.323950 0.971701 0.090655
H44   H     H_    0.945372 0.322054 0.195772 0.109114
H45   H     H_    0.324517 0.198264 0.003602 0.112425
H46   H     H_    0.139559 0.674791 0.813901 0.109956
H47   H     H_    0.185264 0.815112 0.362306 0.126906
H48   H     H_    0.807047 0.268452 0.633514 0.124940
H49   H     H_    0.015268 0.169553 0.836988 0.122772
H50   H     H_    0.875345 0.752887 0.057477 0.126077
H51   H     H_    0.304594 0.177632 0.826995 0.112973
H52   H     H_    0.736226 0.913444 0.255362 0.138405
H53   H     H_    0.602839 0.768077 0.067486 0.103616
H54   H     H_    0.550602 0.169789 0.068834 0.095680
H55   H     H_    0.510937 0.858714 0.990072 0.107578
H56   H     H_    0.619370 0.366015 0.189918 0.117584
I1    I     I_    0.909697 0.824592 0.407316 -0.563690
I2    I     I_    0.057918 0.168938 0.546823 -0.547914
N1    N     N_R   0.947560 0.293820 0.002910 -0.041887
N2    N     N_R   0.789450 0.443190 0.997090 -0.038445
N3    N     N_R   0.945970 0.443180 0.152110 -0.041668
N4    N     N_R   0.054030 0.556820 0.847890 -0.040141
N5    N     N_R   0.151530 0.706170 0.208880 -0.041682
N6    N     N_R   0.848470 0.293830 0.791120 -0.044088
N7    N     N_R   0.004980 0.293810 0.946140 -0.042414
N8    N     N_R   0.995020 0.706190 0.053860 -0.042175
N9    N     N_R   0.052440 0.706180 0.997090 -0.042705
N10   N     N_R   0.208960 0.706170 0.152110 -0.038806
N11   N     N_R   0.791040 0.293830 0.847890 -0.041629
N12   N     N_R   0.154330 0.443160 0.946140 -0.038165
N13   N     N_R   0.845670 0.556840 0.053860 -0.042139
N14   N     N_R   0.002190 0.556820 0.208880 -0.038751
N15   N     N_R   0.997810 0.443180 0.791120 -0.042100
N16   N     N_R   0.210550 0.556810 0.002910 -0.038717
Ni1   Ni    Ni4+2 0.869690 0.369690 0.000000 0.217387
Ni2   Ni    Ni4+2 0.130310 0.630310 0.000000 0.214986
Ni3   Ni    Ni4+2 0.001390 0.369680 0.869810 0.221559
Ni4   Ni    Ni4+2 0.998610 0.630320 0.130190 0.225578

loop_
_geom_bond_atom_site_label_1
_geom_bond_atom_site_label_2
_ccdc_geom_bond_type
C75   N16   A    
C1    H1    S    
C73   H14   S    
C58   C62   A    
C56   C76   A    
C64   H40   S    
C45   C71   S    
C22   H9    S    
C14   C18   A    
C1    N1    A    
C67   C77   A    
C24   C27   A    
C12   N9    A    
C65   N15   A    
C2    H32   S    
C81   H48   S    
N2    N13   A    
N11   Ni1   S    
C1    C84   A    
C15   C19   A    
N6    Ni3   S    
C62   C86   A    
C34   C51   S    
C12   C85   A    
C49   H29   S    
C26   C67   S    
C65   H41   S    
C19   C21   A    
C24   C26   A    
C32   C61   A    
C38   C42   A    
C24   H10   S    
C31   C55   A    
C8    C10   A    
C11   C14   A    
C66   C69   S    
C36   H22   S    
C68   C74   S    
C81   N6    A    
C47   I1    S    
C33   C36   A    
C48   I2    S    
C75   H42   S    
C82   H49   S    
C69   C71   S    
C31   H45   S    
C15   H6    S    
C3    C55   A    
C66   C72   S    
C29   C59   S    
N12   Ni3   S    
C49   C51   A    
C22   C25   A    
C4    C57   A    
C50   C52   A    
C66   H36   S    
C34   C81   A    
C23   C80   A    
C61   H19   S    
C77   N3    A    
C12   H12   S    
C82   N7    A    
C44   C47   A    
N14   Ni4   S    
C76   N2    A    
C22   C28   A    
C40   C45   A    
C42   C44   A    
C32   C57   A    
C35   C48   A    
C68   H37   S    
C26   C28   A    
N2    Ni1   S    
C52   C54   A    
C5    C29   A    
C80   N5    A    
C40   H38   S    
C62   C85   S    
C46   C48   A    
C50   C53   A    
C46   H28   S    
C25   C78   S    
C64   C67   A    
C41   H39   S    
N12   N16   A    
C32   H53   S    
C72   C74   S    
N3    Ni1   S    
C9    H3    S    
C71   C73   S    
C78   C79   A    
C39   C43   A    
C56   C72   S    
C66   C73   S    
C69   H33   S    
C80   H47   S    
C51   C53   A    
N4    N15   A    
N16   Ni2   S    
C31   C60   A    
N5    N10   A    
C41   C56   A    
C76   H43   S    
C40   N12   A    
C38   C54   S    
C29   C60   A    
C70   C73   S    
C8    C21   A    
C83   H50   S    
C69   C74   S    
N5    Ni4   S    
N1    N7    A    
C9    C11   A    
N13   Ni4   S    
C37   H24   S    
N8    Ni4   S    
C19   H8    S    
C74   H15   S    
C41   N13   A    
C4    C6    A    
C83   C85   A    
C5    H11   S    
C44   H27   S    
C16   C23   A    
N7    Ni3   S    
N6    N11   A    
C13   C15   A    
C16   N10   A    
C33   C47   A    
N15   Ni3   S    
C43   H26   S    
C17   N11   A    
C2    C63   A    
C35   C37   A    
C83   N8    A    
C16   H16   S    
C7    C9    A    
C65   C78   A    
C6    C30   A    
C59   C63   A    
N10   Ni2   S    
C42   H25   S    
C13   C27   S    
C33   H20   S    
C3    C5    A    
C10   C13   A    
C2    C58   A    
C79   N4    A    
C25   C27   A    
C63   C84   S    
C82   C84   A    
C55   H51   S    
N9    Ni2   S    
C45   C75   A    
N4    Ni2   S    
C6    H13   S    
C20   H54   S    
C36   C38   A    
C17   H17   S    
C59   C86   A    
C21   H55   S    
C37   C39   A    
C70   H35   S    
C23   C52   S    
C39   C53   S    
N1    Ni1   S    
C11   C28   S    
C3    H23   S    
C68   C71   S    
C79   H46   S    
C30   C58   S    
C57   H52   S    
C86   H31   S    
C18   C20   A    
C77   H44   S    
C43   C46   A    
C14   H5    S    
C35   H21   S    
N8    N9    A    
C10   H4    S    
C68   C70   S    
C7    C20   A    
C17   C34   A    
C30   C61   A    
C64   N14   A    
C18   H7    S    
C4    H34   S    
C70   C72   S    
C50   H30   S    
C8    H2    S    
C60   H18   S    
N3    N14   A    
C7    H56   S    
C49   C54   A    
