data_mof_unit_60654.cif
_audit_creation_date              2012-12-10T21:02:06-0500
_audit_creation_method            fapswitch 2.2
_symmetry_space_group_name_H-M    P1
_symmetry_Int_Tables_number       1
_space_group_crystal_system       triclinic
_cell_length_a                    22.185774
_cell_length_b                    22.225165
_cell_length_c                    22.186671
_cell_angle_alpha                 108.526908
_cell_angle_beta                  109.870224
_cell_angle_gamma                 109.979027
_cell_volume                      8424.14819736

loop_
_atom_site_label
_atom_site_type_symbol
_atom_type_description
_atom_site_fract_x
_atom_site_fract_y
_atom_site_fract_z
_atom_type_partial_charge
C1    C     C_R   0.699682 0.849958 0.349992 0.816058
C2    C     C_3   0.024812 0.523727 0.958841 -0.203914
C3    C     C_3   0.582600 0.004474 0.688942 -0.452831
C4    C     C_3   0.542472 0.014807 0.732360 -0.347637
C5    C     C_3   0.482707 0.941118 0.713815 -0.713256
C6    C     C_3   0.368598 0.021693 0.468654 -0.398846
C7    C     C_3   0.296901 0.977475 0.393588 -0.351411
C8    C     C_3   0.243459 0.005850 0.395701 -0.890509
C9    C     C_3   0.628800 0.978779 0.538510 -0.428414
C10   C     C_3   0.689877 0.027125 0.529527 -0.271359
C11   C     C_3   0.750452 0.006784 0.541553 -0.876984
C12   C     C_3   0.944518 0.376037 0.863669 -0.429846
C13   C     C_3   0.024727 0.456274 0.013591 -0.207010
C14   C     C_3   0.006587 0.370059 0.851522 -0.355728
C15   C     C_3   0.974904 0.301983 0.779050 -0.843068
C16   C     C_3   0.056122 0.626064 0.135671 -0.429516
C17   C     C_3   0.994351 0.632664 0.147997 -0.358167
C18   C     C_3   0.026436 0.701207 0.220228 -0.836254
C19   C     C_3   0.975396 0.545365 0.985862 -0.207238
C20   C     C_1   0.221072 0.610533 0.110310 -0.148475
C21   C     C_1   0.778993 0.390050 0.889616 -0.145157
C22   C     C_3   0.024766 0.558588 0.062743 0.162281
C23   C     C_3   0.975425 0.443105 0.936731 0.162436
C24   C     C_3   0.073235 0.536973 0.035843 0.134021
C25   C     C_3   0.926898 0.464639 0.963626 0.133184
C26   C     C_1   0.154349 0.577246 0.076561 -0.099105
C27   C     C_R   0.300308 0.150037 0.649951 0.823186
C28   C     C_1   0.845742 0.423877 0.923133 -0.097755
C29   C     C_R   0.266874 0.473606 0.014914 -0.122354
C30   C     C_R   0.733188 0.526791 0.984992 -0.122314
C31   C     C_R   0.300420 0.650166 0.150169 0.833238
C32   C     C_R   0.699604 0.349856 0.849819 0.829754
C33   C     C_R   0.334480 0.478568 0.025069 -0.130913
C34   C     C_R   0.665448 0.521497 0.974755 -0.130667
C35   C     C_R   0.358066 0.486700 0.975335 0.129188
C36   C     C_R   0.641993 0.513448 0.024595 0.129116
C37   C     C_R   0.311959 0.487649 0.914254 -0.130758
C38   C     C_3   0.527469 0.481735 0.457005 0.476333
C39   C     C_R   0.688346 0.512871 0.085833 -0.130753
C40   C     C_R   0.244318 0.482610 0.904300 -0.126835
C41   C     C_R   0.756120 0.518245 0.095870 -0.126545
C42   C     C_R   0.222110 0.476170 0.954897 -0.096845
C43   C     C_R   0.778225 0.524650 0.045200 -0.097210
C44   C     C_R   0.434266 0.444851 0.934251 -0.237545
C45   C     C_R   0.565757 0.555175 0.065740 -0.237481
C46   C     C_R   0.501783 0.448254 0.946101 -0.043609
C47   C     C_R   0.498238 0.551765 0.053893 -0.043390
C48   C     C_R   0.568575 0.504461 0.012006 0.001892
C49   C     C_3   0.472347 0.517934 0.542677 0.476816
C50   C     C_R   0.431456 0.495579 0.987974 0.001778
C51   C     C_3   0.024735 0.000489 0.564589 -0.158061
C52   C     C_3   0.975210 0.999845 0.435666 -0.159856
C53   C     C_3   0.975247 0.032823 0.540013 -0.163237
C54   C     C_3   0.024687 0.967508 0.460235 -0.161547
C55   C     C_R   0.500493 0.890094 0.390691 0.809507
C56   C     C_R   0.499613 0.109873 0.609356 0.798588
C57   C     C_1   0.779125 0.889731 0.389830 -0.139268
C58   C     C_1   0.220850 0.110333 0.610207 -0.137822
C59   C     C_3   0.975253 0.930786 0.487718 -0.154244
C60   C     C_3   0.499763 0.536594 0.463412 0.042321
C61   C     C_3   0.024696 0.069551 0.512537 -0.155597
C62   C     C_3   0.927057 0.963762 0.463788 0.193986
C63   C     C_3   0.072893 0.036568 0.536464 0.194199
C64   C     C_1   0.845909 0.923186 0.423277 -0.073941
C65   C     C_1   0.154055 0.077021 0.576881 -0.075231
C66   C     C_3   0.541879 0.072732 0.048032 -0.246596
C67   C     C_3   0.458745 0.927194 0.951878 -0.250272
C68   C     C_3   0.472122 0.017589 0.042289 0.473795
C69   C     C_3   0.528511 0.982346 0.957638 0.471993
C70   C     C_1   0.500109 0.889453 0.110480 -0.127676
C71   C     C_3   0.500054 0.463079 0.536273 0.042113
C72   C     C_1   0.500164 0.110468 0.889432 -0.133257
C73   C     C_3   0.570563 0.017514 0.042250 -0.251839
C74   C     C_3   0.430056 0.982413 0.957675 -0.256064
C75   C     C_3   0.500434 0.963225 0.036411 0.045745
C76   C     C_3   0.500186 0.036695 0.963495 0.046035
C77   C     C_1   0.500278 0.922736 0.077028 0.032660
C78   C     C_1   0.500192 0.077156 0.922853 0.025708
C79   C     C_R   0.499554 0.609253 0.109895 0.792766
C80   C     C_R   0.500455 0.390755 0.890104 0.793273
C81   C     C_R   0.317820 0.868342 0.219396 -0.164755
C82   C     C_1   0.499798 0.577177 0.422908 0.036830
C83   C     C_R   0.699249 0.127565 0.773294 -0.153506
C84   C     C_R   0.375496 0.919491 0.292314 0.044999
C85   C     C_R   0.637189 0.077634 0.702373 0.061368
C86   C     C_R   0.373988 0.904420 0.349676 -0.025559
C87   C     C_R   0.628458 0.097002 0.645990 -0.024955
C88   C     C_R   0.317231 0.836550 0.331652 0.406454
C89   C     C_R   0.681307 0.166484 0.662826 0.412729
C90   C     C_R   0.260848 0.786722 0.258708 -0.175131
C91   C     C_R   0.741754 0.215359 0.734087 -0.167924
C92   C     C_R   0.260806 0.802760 0.202904 -0.239560
C93   C     C_1   0.500055 0.422578 0.576855 0.035804
C94   C     C_R   0.750693 0.195969 0.789042 -0.245932
C95   C     C_R   0.434303 0.007634 0.480819 0.056969
C96   C     C_R   0.563094 0.991840 0.517636 0.047455
C97   C     C_R   0.498673 0.053671 0.552071 -0.083710
C98   C     C_R   0.500044 0.946311 0.446413 -0.096956
C99   C     C_R   0.562602 0.046919 0.570231 0.018630
C100  C     C_R   0.436487 0.954184 0.426930 0.047825
C101  C     C_R   0.499980 0.849858 0.150258 0.818533
C102  C     C_R   0.500060 0.150129 0.849727 0.811973
C103  C     C_R   0.499990 0.650250 0.349889 0.811839
C104  C     C_3   0.975380 0.477972 0.040676 -0.203665
C105  C     C_R   0.499995 0.349728 0.650091 0.811840
C106  C     C_3   0.457790 0.427076 0.451761 -0.258234
C107  C     C_3   0.542025 0.572591 0.547924 -0.256431
C108  C     C_3   0.429725 0.482799 0.458093 -0.252817
C109  C     C_3   0.570090 0.516870 0.541590 -0.253206
C110  C     C_1   0.499875 0.610560 0.389562 -0.111214
C111  C     C_1   0.500031 0.389300 0.610304 -0.111978
C112  C     C_3   0.438726 0.987463 0.306387 -0.395154
C113  C     C_3   0.429284 0.054576 0.331724 -0.381457
C114  C     C_3   0.490046 0.120894 0.339918 -0.738984
Cl1   Cl    Cl    0.434527 0.040843 0.099506 -0.630857
Cl2   Cl    Cl    0.566412 0.959201 0.900740 -0.640013
Cl3   Cl    Cl    0.315426 0.812465 0.399669 -0.618566
Cl4   Cl    Cl    0.672496 0.194638 0.595923 -0.632115
Cl5   Cl    Cl    0.435432 0.541911 0.600350 -0.583852
Cl6   Cl    Cl    0.564374 0.457740 0.399329 -0.586053
H1    H     H_    0.372228 0.469617 0.424076 0.182711
H2    H     H_    0.046009 0.941178 0.427946 0.140071
H3    H     H_    0.046070 0.001240 0.618066 0.140843
H4    H     H_    0.953872 0.999093 0.382188 0.140903
H5    H     H_    0.045998 0.127072 0.523218 0.143269
H6    H     H_    0.953949 0.873265 0.477036 0.143739
H7    H     H_    0.575421 0.132714 0.087187 0.184134
H8    H     H_    0.425209 0.867215 0.912710 0.184208
H9    H     H_    0.372498 0.968810 0.923209 0.180668
H10   H     H_    0.628121 0.031115 0.076712 0.180790
H11   H     H_    0.217038 0.763666 0.146451 0.158320
H12   H     H_    0.627587 0.530050 0.575607 0.182907
H13   H     H_    0.797497 0.234119 0.844215 0.155602
H14   H     H_    0.423800 0.367094 0.412594 0.180298
H15   H     H_    0.576021 0.632570 0.587097 0.181737
H16   H     H_    0.317370 0.878886 0.174866 0.162316
H17   H     H_    0.707710 0.113583 0.816840 0.159237
H18   H     H_    0.217341 0.735001 0.245195 0.167468
H19   H     H_    0.781722 0.268772 0.746980 0.167890
H20   H     H_    0.045745 0.420038 0.024760 0.139852
H21   H     H_    0.954360 0.581579 0.974664 0.140071
H22   H     H_    0.954332 0.459384 0.073998 0.142193
H23   H     H_    0.329049 0.493712 0.875249 0.139893
H24   H     H_    0.045909 0.542384 0.925580 0.141847
H25   H     H_    0.170420 0.473484 0.947847 0.118331
H26   H     H_    0.830063 0.527668 0.052360 0.118439
H27   H     H_    0.249458 0.468387 0.053909 0.120028
H28   H     H_    0.750518 0.531982 0.945937 0.120294
H29   H     H_    0.368864 0.476951 0.072090 0.111053
H30   H     H_    0.630892 0.522856 0.927622 0.111006
H31   H     H_    0.545533 0.135278 0.381169 0.274203
H32   H     H_    0.487662 0.108931 0.286321 0.286334
H33   H     H_    0.482096 0.168751 0.358772 0.252829
H34   H     H_    0.671373 0.506891 0.124931 0.139982
H35   H     H_    0.374341 0.041917 0.291033 0.235406
H36   H     H_    0.432362 0.069166 0.385759 0.237522
H37   H     H_    0.492771 0.999600 0.347924 0.220285
H38   H     H_    0.441446 0.977217 0.255167 0.219115
H39   H     H_    0.439809 0.910072 0.654571 0.259613
H40   H     H_    0.507679 0.908033 0.726702 0.284351
H41   H     H_    0.455630 0.950594 0.746942 0.260562
H42   H     H_    0.582726 0.045844 0.792415 0.234738
H43   H     H_    0.516081 0.046646 0.719127 0.251580
H44   H     H_    0.540578 0.966948 0.629731 0.225083
H45   H     H_    0.209396 0.484318 0.857694 0.135044
H46   H     H_    0.613297 0.977001 0.706029 0.214299
H47   H     H_    0.228947 0.001636 0.438024 0.267367
H48   H     H_    0.268836 0.064054 0.408282 0.261803
H49   H     H_    0.191678 0.972412 0.341279 0.256850
H50   H     H_    0.308752 0.982392 0.350287 0.232586
H51   H     H_    0.268004 0.919192 0.379434 0.259066
H52   H     H_    0.351040 0.013064 0.507917 0.241877
H53   H     H_    0.390394 0.080674 0.484121 0.181620
H54   H     H_    0.777006 0.015109 0.598171 0.258060
H55   H     H_    0.726707 0.948493 0.501225 0.258677
H56   H     H_    0.791247 0.516858 0.142622 0.135302
H57   H     H_    0.793535 0.042145 0.534162 0.254629
H58   H     H_    0.666197 0.021085 0.473703 0.258109
H59   H     H_    0.715704 0.085619 0.570202 0.246776
H60   H     H_    0.652661 0.989110 0.595978 0.202192
H61   H     H_    0.610198 0.920046 0.505021 0.188595
H62   H     H_    0.942170 0.251509 0.779247 0.262059
H63   H     H_    0.938655 0.304634 0.732186 0.270844
H64   H     H_    0.021021 0.299018 0.771579 0.247870
H65   H     H_    0.040016 0.419552 0.850327 0.219163
H66   H     H_    0.043494 0.366565 0.897279 0.220438
H67   H     H_    0.383109 0.400763 0.884003 0.158911
H68   H     H_    0.910636 0.326148 0.863893 0.198407
H69   H     H_    0.908256 0.380546 0.818439 0.211097
H70   H     H_    0.062784 0.698819 0.267255 0.274016
H71   H     H_    0.059161 0.751344 0.219542 0.260925
H72   H     H_    0.980532 0.704604 0.227852 0.247182
H73   H     H_    0.957340 0.635896 0.102074 0.220619
H74   H     H_    0.960939 0.583520 0.149676 0.219391
H75   H     H_    0.092340 0.621626 0.181002 0.212837
H76   H     H_    0.090238 0.675705 0.135128 0.199567
H77   H     H_    0.616912 0.599277 0.115981 0.158900
H78   H     H_    0.953871 0.059126 0.572255 0.138186
O1    O     O_3   0.500050 0.750060 0.250070 -0.490283
O2    O     O_R   0.664320 0.341000 0.884100 -0.630459
O3    O     O_R   0.664480 0.780430 0.323540 -0.633697
O4    O     O_R   0.335520 0.219570 0.676460 -0.634401
O5    O     O_R   0.335610 0.676590 0.219700 -0.623044
O6    O     O_R   0.664390 0.323410 0.780300 -0.622986
O7    O     O_R   0.543050 0.908950 0.365840 -0.659584
O8    O     O_R   0.456950 0.091050 0.634160 -0.665595
O9    O     O_R   0.457060 0.634290 0.091200 -0.628348
O10   O     O_R   0.542940 0.365710 0.908800 -0.627774
O11   O     O_R   0.543140 0.884190 0.219790 -0.634579
O12   O     O_3   0.499950 0.249940 0.749930 -0.490600
O13   O     O_R   0.456860 0.115810 0.780210 -0.644924
O14   O     O_R   0.543170 0.659080 0.323490 -0.625980
O15   O     O_R   0.456830 0.340920 0.676510 -0.626080
O16   O     O_R   0.456990 0.780350 0.115960 -0.631922
O17   O     O_R   0.543010 0.219650 0.884040 -0.629085
O18   O     O_R   0.456900 0.676640 0.341050 -0.629362
O19   O     O_R   0.543100 0.323360 0.658950 -0.626303
O20   O     O_R   0.456830 0.822700 0.365800 -0.604262
O21   O     O_R   0.543170 0.177300 0.634200 -0.596872
O22   O     O_R   0.543260 0.634320 0.177440 -0.641566
O23   O     O_R   0.456740 0.365680 0.822560 -0.641571
O24   O     O_R   0.664430 0.884240 0.341140 -0.635446
O25   O     O_R   0.335570 0.115760 0.658860 -0.635856
O26   O     O_R   0.335680 0.659000 0.115900 -0.630430
Zn1   Zn    Zn3+2 0.438420 0.731820 0.293400 1.011849
Zn2   Zn    Zn3+2 0.561580 0.268180 0.706600 1.012050
Zn3   Zn    Zn3+2 0.561600 0.855040 0.293450 0.967191
Zn4   Zn    Zn3+2 0.438400 0.144960 0.706550 0.960905
Zn5   Zn    Zn3+2 0.438510 0.706680 0.145100 0.990533
Zn6   Zn    Zn3+2 0.561490 0.293320 0.854900 0.988695
Zn7   Zn    Zn3+2 0.561670 0.706730 0.268320 0.982809
Zn8   Zn    Zn3+2 0.438330 0.293270 0.731680 0.983560

loop_
_geom_bond_atom_site_label_1
_geom_bond_atom_site_label_2
_ccdc_geom_bond_type
C66   C68   S    
C63   C65   S    
C69   Cl2   S    
C32   O6    A    
C7    H51   S    
C29   C42   A    
C3    C85   S    
C27   O4    A    
C2    H24   S    
C38   C60   S    
C17   H73   S    
C47   C79   S    
C108  H1    S    
C1    O3    A    
C34   H30   S    
C70   C101  S    
C22   C104  S    
C7    C8    S    
C39   C41   A    
C6    H52   S    
C68   C75   S    
C12   H69   S    
C12   C23   S    
C18   H72   S    
C84   C112  S    
C112  H38   S    
C57   C64   T    
C103  C110  S    
C53   H78   S    
C82   C110  T    
C35   C37   A    
C24   C26   S    
C37   C40   A    
C1    C57   S    
C52   C61   S    
C16   H75   S    
C14   H66   S    
C86   C88   A    
C102  O13   A    
C54   C63   S    
C68   C74   S    
O17   Zn6   S    
C96   C99   A    
C29   C33   A    
C94   H13   S    
C51   H3    S    
C66   H7    S    
C13   C23   S    
C69   C76   S    
C49   Cl5   S    
C45   H77   S    
C61   C63   S    
O1    Zn7   S    
C107  H15   S    
C8    H48   S    
C90   H18   S    
C80   O23   A    
C81   C92   A    
C60   C82   S    
O7    Zn3   S    
C52   C54   S    
C16   C17   S    
C5    H39   S    
C96   C98   A    
C62   C64   S    
C69   C73   S    
C11   H57   S    
C114  H32   S    
C89   C91   A    
C86   C100  S    
C9    C10   S    
C41   C43   A    
C114  H33   S    
C31   O5    A    
C60   C108  S    
O19   Zn2   S    
C38   Cl6   S    
C106  C108  S    
C45   C47   A    
C54   H2    S    
C19   H21   S    
C70   C77   T    
C40   C42   A    
C73   C75   S    
C17   H74   S    
C53   C61   S    
C56   C97   S    
C113  H35   S    
C104  H22   S    
C112  C113  S    
C97   C99   A    
C42   H25   S    
C44   C46   A    
C47   C50   A    
C87   C99   S    
C54   C59   S    
C85   C87   A    
C55   O7    A    
C21   C32   S    
C46   C48   A    
C18   H71   S    
C11   H54   S    
C105  O15   A    
C112  H37   S    
C30   C34   A    
C39   H34   S    
C76   C78   S    
C10   H58   S    
C13   H20   S    
C19   C22   S    
C51   C63   S    
C49   C107  S    
C14   H65   S    
C95   C100  A    
O9    Zn5   S    
C59   C62   S    
C101  O11   A    
C83   C94   A    
C27   C58   S    
C51   C53   S    
C13   C24   S    
C15   H63   S    
C1    O24   A    
C25   C28   S    
C5    H41   S    
C38   C106  S    
C16   H76   S    
C8    H47   S    
C114  H31   S    
O1    Zn1   S    
C53   C62   S    
C71   C106  S    
C58   C65   T    
C90   C92   A    
C106  H14   S    
C101  O16   A    
C5    H40   S    
C66   C76   S    
C15   H64   S    
C92   H11   S    
C35   C50   S    
C17   C18   S    
O12   Zn6   S    
C4    H43   S    
C56   O8    A    
C67   C74   S    
C38   C109  S    
C60   C107  S    
C11   H55   S    
C75   C77   S    
C9    C96   S    
C40   H45   S    
O15   Zn8   S    
C74   C76   S    
C3    H44   S    
C93   C111  T    
C91   H19   S    
C80   O10   A    
C41   H56   S    
C88   C90   A    
C105  O19   A    
O13   Zn4   S    
C87   C89   A    
O8    Zn4   S    
O2    Zn6   S    
C22   C24   S    
C30   C43   A    
C7    H50   S    
C67   C75   S    
C68   Cl1   S    
C10   H59   S    
C113  H36   S    
O6    Zn2   S    
C3    C4    S    
C83   H17   S    
C81   C84   A    
C8    H49   S    
C81   H16   S    
O4    Zn8   S    
C113  C114  S    
C45   C48   A    
C44   C50   A    
O14   Zn7   S    
C73   H10   S    
C18   H70   S    
C59   H6    S    
C16   C22   S    
C15   H62   S    
C37   H23   S    
O22   Zn7   S    
C83   C85   A    
C2    C19   S    
O25   Zn4   S    
O12   Zn4   S    
C21   C28   T    
C36   C39   A    
C12   C14   S    
C4    C5    S    
C20   C26   T    
O5    Zn1   S    
C103  O14   A    
C29   H27   S    
C61   H5    S    
C95   C97   A    
C25   C104  S    
C30   H28   S    
C6    C7    S    
C71   C93   S    
C6    H53   S    
C109  H12   S    
C27   O25   A    
O18   Zn1   S    
C66   C73   S    
C9    H60   S    
O20   Zn1   S    
O12   Zn2   S    
C32   O2    A    
C43   H26   S    
C33   H29   S    
O26   Zn5   S    
C91   C94   A    
C46   C80   S    
C52   H4    S    
C79   O22   A    
C107  C109  S    
C72   C102  S    
O24   Zn3   S    
C79   O9    A    
C71   C109  S    
O23   Zn8   S    
C55   C98   S    
C33   C35   A    
C34   C36   A    
C36   C48   S    
C4    H42   S    
C23   C25   S    
O21   Zn2   S    
O1    Zn5   S    
C55   O20   A    
C19   C25   S    
C98   C100  A    
C49   C108  S    
C9    H61   S    
C10   C11   S    
C44   H67   S    
C31   O26   A    
C105  C111  S    
C102  O17   A    
O3    Zn7   S    
C51   C59   S    
C89   Cl4   S    
C6    C95   S    
C49   C71   S    
C74   H9    S    
C72   C78   T    
C2    C23   S    
C13   C104  S    
O12   Zn8   S    
C14   C15   S    
C84   C86   A    
C52   C62   S    
C2    C24   S    
O11   Zn3   S    
C67   C69   S    
C88   Cl3   S    
C67   H8    S    
O16   Zn5   S    
O1    Zn3   S    
C103  O18   A    
C56   O21   A    
C3    H46   S    
O10   Zn6   S    
C20   C31   S    
C12   H68   S    
