data_mof_unit_23555.cif
_audit_creation_date              2012-12-11T20:30:03-0500
_audit_creation_method            fapswitch 2.2
_symmetry_space_group_name_H-M    P1
_symmetry_Int_Tables_number       1
_space_group_crystal_system       triclinic
_cell_length_a                    8.45796
_cell_length_b                    17.462024
_cell_length_c                    18.788501
_cell_angle_alpha                 102.743286
_cell_angle_beta                  91.423337
_cell_angle_gamma                 98.408087
_cell_volume                      2672.79780103

loop_
_atom_site_label
_atom_site_type_symbol
_atom_type_description
_atom_site_fract_x
_atom_site_fract_y
_atom_site_fract_z
_atom_type_partial_charge
Ba1   Ba    Ba6+2 0.853800 0.535410 0.467450 1.675068
Ba2   Ba    Ba6+2 0.336030 0.464660 0.532560 1.646255
C1    C     C_3   0.530628 0.747101 0.207199 -0.341919
C2    C     C_3   0.593418 0.722731 0.275769 0.787165
C3    C     C_3   0.468169 0.302532 0.297387 0.340176
C4    C     C_3   0.576618 0.303503 0.233637 -0.367560
C5    C     C_3   0.068356 0.289231 0.724958 0.336048
C6    C     C_3   0.128899 0.267876 0.794577 -0.371524
C7    C     C_3   0.489123 0.258664 0.667218 0.420643
C8    C     C_3   0.453070 0.176815 0.685060 0.284411
C9    C     C_R   0.010677 0.440621 0.040017 0.034141
C10   C     C_R   0.920011 0.396090 0.083174 0.033106
C11   C     C_R   0.774945 0.349360 0.053581 -0.132651
C12   C     C_3   0.052910 0.757439 0.312903 0.702188
C13   C     C_R   0.715751 0.351132 0.984101 -0.075239
C14   C     C_R   0.798399 0.401144 0.942931 -0.015237
C15   C     C_R   0.949493 0.443532 0.969539 -0.043860
C16   C     C_R   0.728651 0.410828 0.877062 0.377613
C17   C     C_R   0.820212 0.452226 0.829808 -0.099512
C18   C     C_R   0.977907 0.491517 0.855376 -0.057934
C19   C     C_R   0.037516 0.490001 0.926859 -0.014570
C20   C     C_R   0.763438 0.454537 0.757763 0.019182
C21   C     C_R   0.869760 0.488147 0.711792 -0.302642
C22   C     C_R   0.025951 0.527484 0.735660 0.078786
C23   C     C_3   0.032043 0.819862 0.268532 0.320421
C24   C     C_R   0.076381 0.533108 0.810553 -0.021952
C25   C     C_R   0.162450 0.481780 0.067253 0.010869
C26   C     C_R   0.223965 0.479532 0.137993 -0.023138
C27   C     C_R   0.121497 0.445182 0.185417 -0.098173
C28   C     C_R   0.972983 0.400614 0.155751 -0.053206
C29   C     C_R   0.220848 0.580562 0.842932 -0.068595
C30   C     C_R   0.273388 0.584295 0.916030 0.012150
C31   C     C_R   0.186531 0.534243 0.955900 -0.006649
C32   C     C_R   0.250423 0.527758 0.024865 -0.013279
C33   C     C_R   0.414974 0.633906 0.950357 0.059051
C34   C     C_3   0.247901 0.720762 0.652282 0.293006
C35   C     C_R   0.485014 0.619423 0.013432 -0.114718
C36   C     C_R   0.406247 0.564393 0.049680 0.012365
C37   C     C_R   0.386274 0.512559 0.160856 -0.096356
C38   C     C_R   0.481941 0.544858 0.109713 0.031792
C39   C     C_R   0.439734 0.517613 0.235132 -0.047245
C40   C     C_R   0.330169 0.490622 0.283298 0.162933
C41   C     C_R   0.171144 0.456269 0.260428 -0.007944
C42   C     C_2   0.441909 0.730062 0.501542 -0.179338
C43   C     C_3   0.369482 0.769873 0.449021 0.036050
C44   C     C_2   0.416993 0.858570 0.474415 -0.038748
C45   C     C_3   0.230745 0.808199 0.680617 0.288620
C46   C     C_2   0.562222 0.887973 0.509938 0.017037
C47   C     C_2   0.658007 0.830730 0.532740 -0.109028
C48   C     C_1   0.588163 0.756859 0.529466 0.078671
C49   C     C_R   0.795457 0.142561 0.540564 -0.118357
C50   C     C_R   0.855468 0.223061 0.548486 0.029131
C51   C     C_R   0.611281 0.242694 0.489764 0.040360
C52   C     C_R   0.550976 0.162215 0.481511 -0.145040
C53   C     C_R   0.641399 0.111613 0.507531 0.012011
C54   C     C_2   0.626938 0.974276 0.528236 -0.087018
C55   C     C_2   0.576674 0.025854 0.492269 -0.084334
C56   C     C_3   0.938678 0.293258 0.373485 0.288081
C57   C     C_R   0.761358 0.273515 0.525403 -0.269367
C58   C     C_3   0.886437 0.203525 0.350848 -0.402235
C59   C     C_3   0.738113 0.660709 0.697931 0.348330
C60   C     C_3   0.784175 0.700207 0.779512 0.364588
H1    H     H_    0.249281 0.824718 0.741504 0.025671
H2    H     H_    0.104698 0.814980 0.668938 0.091039
H3    H     H_    0.836459 0.322297 0.394767 0.031634
H4    H     H_    0.036972 0.306295 0.416696 0.079404
H5    H     H_    0.786231 0.189037 0.308436 0.145400
H6    H     H_    0.847056 0.179212 0.398078 0.071826
H7    H     H_    0.987544 0.173829 0.328253 0.106790
H8    H     H_    0.839634 0.633918 0.672076 0.011770
H9    H     H_    0.633176 0.613163 0.693848 -0.020353
H10   H     H_    0.630663 0.776612 0.180988 0.126416
H11   H     H_    0.740355 0.654513 0.810377 -0.062636
H12   H     H_    0.489706 0.700060 0.304220 -0.046786
H13   H     H_    0.439770 0.787100 0.220524 0.079915
H14   H     H_    0.466597 0.365154 0.325939 0.094724
H15   H     H_    0.566007 0.243459 0.196743 0.099281
H16   H     H_    0.545805 0.346574 0.201963 0.056976
H17   H     H_    0.702534 0.321080 0.254998 0.153629
H18   H     H_    0.471749 0.694465 0.166641 0.070271
H19   H     H_    0.152602 0.853359 0.263497 -0.014058
H20   H     H_    0.118175 0.352435 0.727231 0.077949
H21   H     H_    0.260588 0.274191 0.798548 0.175071
H22   H     H_    0.092119 0.307951 0.843849 0.067050
H23   H     H_    0.079742 0.205400 0.795073 0.111030
H24   H     H_    0.608926 0.265092 0.646175 -0.085400
H25   H     H_    0.403089 0.262452 0.623373 0.041625
H26   H     H_    0.466055 0.130527 0.635479 -0.005885
H27   H     H_    0.326093 0.166771 0.699441 0.048265
H28   H     H_    0.945561 0.711409 0.304517 0.095443
H29   H     H_    0.705117 0.312839 0.084834 0.066518
H30   H     H_    0.602467 0.314357 0.963546 0.109734
H31   H     H_    0.827453 0.485908 0.656447 0.059340
H32   H     H_    0.898277 0.368356 0.188345 0.086182
H33   H     H_    0.294082 0.613617 0.810569 0.104040
H34   H     H_    0.599410 0.653962 0.036091 0.084896
H35   H     H_    0.484241 0.004951 0.448461 0.057680
H36   H     H_    0.778055 0.851516 0.557918 0.080850
H37   H     H_    0.872462 0.104435 0.556872 0.073583
H38   H     H_    0.721093 0.994632 0.571356 0.072266
H39   H     H_    0.338471 0.896654 0.458922 0.064852
H40   H     H_    0.436668 0.138345 0.451722 0.084771
H41   H     H_    0.368603 0.683952 0.521053 -0.055932
H42   H     H_    0.810186 0.335298 0.529668 0.056699
H43   H     H_    0.958846 0.863111 0.298356 0.040844
H44   H     H_    0.376227 0.714472 0.649402 -0.008920
H45   H     H_    0.182284 0.697868 0.598457 0.053714
O1    O     O_2   0.871520 0.445720 0.321500 -0.458505
O2    O     O_3   0.697210 0.718486 0.663158 -0.667814
O3    O     O_3   0.061678 0.795112 0.387598 -0.638260
O4    O     O_2   0.318180 0.554310 0.678550 -0.475168
O5    O     O_3   0.068680 0.548140 0.588860 -0.505170
O6    O     O_3   0.527520 0.406960 0.624950 -0.492030
O7    O     O_3   0.180456 0.679980 0.702320 -0.640748
O8    O     O_3   0.608500 0.402060 0.457050 -0.464236
O9    O     O_3   0.104610 0.363860 0.586060 -0.484578
O10   O     O_2   0.173025 0.221035 0.524783 -0.498356
O11   O     O_3   0.120946 0.238706 0.663627 -0.616791
O12   O     O_3   0.121030 0.451930 0.411150 -0.482636
O13   O     O_3   0.581210 0.598010 0.542960 -0.510816
O14   O     O_2   0.335820 0.303580 0.452320 -0.464246
O15   O     O_3   0.528070 0.258052 0.342663 -0.649586
O16   O     O_2   0.433611 0.465388 0.753325 -0.488177
O17   O     O_3   0.477568 0.317631 0.730347 -0.551795
O18   O     O_3   0.662190 0.593100 0.375060 -0.459716
O19   O     O_2   0.773393 0.530158 0.250057 -0.489395
O20   O     O_3   0.991091 0.319331 0.311686 -0.652052
O21   O     O_3   0.691021 0.664718 0.250694 -0.620279
O22   O     O_2   0.853880 0.696450 0.547730 -0.450916
O23   O     O_3   0.085100 0.636210 0.413950 -0.512596
O24   O     O_2   0.091821 0.772429 0.517848 -0.466520
P1    P     P_3+3 0.038810 0.422920 0.331160 0.993376
P2    P     P_3+3 0.678260 0.686080 0.568600 0.967875
P3    P     P_3+3 0.149130 0.740516 0.441360 1.009747
P4    P     P_3+3 0.150900 0.577150 0.668860 0.984452
P5    P     P_3+3 0.063746 0.261844 0.581045 0.928401
P6    P     P_3+3 0.636341 0.575506 0.278789 0.969211
P7    P     P_3+3 0.518175 0.301378 0.435898 0.957533
P8    P     P_3+3 0.554319 0.412284 0.717493 0.995462
O25   O     O_3   0.690600 0.785913 0.326190 -0.650616
C61   C     C_3   0.637017 0.860089 0.334218 0.083175
H46   H     H_    0.506104 0.855431 0.340677 0.028167
H47   H     H_    0.669504 0.886964 0.287217 0.039416
H48   H     H_    0.700864 0.901350 0.383148 0.088860
O26   O     O_3   0.331488 0.858282 0.645225 -0.653569
C62   C     C_3   0.472636 0.892653 0.689322 0.115627
H49   H     H_    0.548930 0.846914 0.692803 0.049857
H50   H     H_    0.446728 0.924472 0.744917 0.014402
H51   H     H_    0.541196 0.937597 0.663991 0.082554
O27   O     O_3   0.952518 0.721782 0.789244 -0.637726
C63   C     C_3   0.006081 0.729988 0.862818 0.174077
H52   H     H_    0.964057 0.676018 0.883510 0.020525
H53   H     H_    0.970346 0.783347 0.898777 0.016906
H54   H     H_    0.138780 0.738932 0.866014 0.066602
C64   C     C_3   0.704325 0.775160 0.804883 -0.310617
H55   H     H_    0.759061 0.823489 0.779251 0.130393
H56   H     H_    0.574091 0.761692 0.789256 0.069614
H57   H     H_    0.721041 0.798577 0.864735 0.067680
C65   C     C_3   0.299615 0.262343 0.268133 -0.326666
H58   H     H_    0.300323 0.201068 0.235282 0.096572
H59   H     H_    0.226041 0.257292 0.315011 0.138370
H60   H     H_    0.246712 0.297504 0.233906 0.066081
C66   C     C_3   0.886333 0.278282 0.723545 -0.314198
H61   H     H_    0.836422 0.215106 0.700057 0.153513
H62   H     H_    0.841488 0.295521 0.778747 0.123748
H63   H     H_    0.845888 0.316607 0.689587 0.019545
O28   O     O_3   0.563521 0.171889 0.741099 -0.638051
C67   C     C_3   0.487710 0.128082 0.788830 0.181579
H64   H     H_    0.423924 0.069037 0.758554 0.013429
H65   H     H_    0.403500 0.162468 0.822076 0.043803
H66   H     H_    0.580303 0.117779 0.826999 0.054326
O29   O     O_3   0.571102 0.377392 0.859196 -0.619256
C68   C     C_3   0.472802 0.428335 0.898426 0.210981
H67   H     H_    0.511027 0.490931 0.894826 0.034229
H68   H     H_    0.470447 0.423944 0.956361 0.009352
H69   H     H_    0.348658 0.409902 0.874217 0.080611
C69   C     C_3   0.494559 0.704546 0.925113 -0.437543
H70   H     H_    0.429100 0.717460 0.878714 0.106205
H71   H     H_    0.502961 0.758162 0.970484 0.111398
H72   H     H_    0.617328 0.694694 0.911732 0.114470
C70   C     C_3   0.657362 0.538442 0.104739 -0.350770
H73   H     H_    0.683596 0.487896 0.126826 0.140877
H74   H     H_    0.688177 0.523856 0.046751 0.082694
H75   H     H_    0.734913 0.594762 0.130817 0.167836
O30   O     O_3   0.193861 0.725542 0.292295 -0.723736
C71   C     C_3   0.155475 0.655300 0.237073 0.058331
H76   H     H_    0.104328 0.666583 0.185440 0.106507
H77   H     H_    0.074291 0.608255 0.256453 0.079134
H78   H     H_    0.268410 0.632947 0.224047 0.037453
O31   O     O_3   0.381524 0.496177 0.354640 -0.670988
C72   C     C_3   0.356699 0.570162 0.396969 0.433071
H79   H     H_    0.268866 0.566001 0.437608 0.084618
H80   H     H_    0.344419 0.616629 0.365994 -0.177682
H81   H     H_    0.454550 0.591309 0.436458 0.077637
O32   O     O_3   0.955923 0.781946 0.199358 -0.656113
C73   C     C_3   0.961588 0.836828 0.154176 0.127470
H82   H     H_    0.893038 0.807118 0.101787 0.062172
H83   H     H_    0.087039 0.855792 0.141199 0.032202
H84   H     H_    0.905384 0.889450 0.179398 0.015732

loop_
_geom_bond_atom_site_label_1
_geom_bond_atom_site_label_2
_ccdc_geom_bond_type
C59   H8    S    
C33   C69   S    
C45   O26   S    
O19   P6    D    
O31   C72   S    
C64   H56   S    
C6    H21   S    
C39   C40   A    
Ba1   Ba2   S    
O17   P8    S    
C17   C18   A    
O24   P3    D    
C59   O2    S    
O26   C62   S    
C51   C57   A    
C23   H43   S    
C5    C6    S    
C37   C39   A    
C49   C53   A    
C68   H67   S    
C54   C55   D    
C8    H26   S    
C43   P3    S    
C35   C36   A    
C18   C24   A    
C57   H42   S    
C41   P1    S    
C66   H62   S    
Ba1   O18   S    
C6    H23   S    
Ba1   O22   S    
C61   H47   S    
Ba1   O5    S    
C45   H1    S    
C3    C4    S    
Ba2   O6    S    
Ba2   O14   S    
C19   C31   A    
C56   C58   S    
C13   C14   A    
O16   P8    D    
C7    O17   S    
C60   C64   S    
C34   C45   S    
C46   C54   S    
O13   P2    S    
Ba1   O12   S    
C63   H54   S    
O20   P1    S    
C12   H28   S    
C13   H30   S    
Ba2   O9    S    
C56   H4    S    
C67   H66   S    
C55   H35   S    
C66   H61   S    
C58   H5    S    
C14   C15   A    
C3    C65   S    
C21   C22   A    
C65   H59   S    
C60   H11   S    
O7    P4    S    
C1    H13   S    
C7    C8    S    
C2    H12   S    
C23   O32   S    
C10   C28   A    
Ba1   P1    S    
C67   H65   S    
C47   H36   S    
C34   O7    S    
C24   C29   A    
C32   C36   A    
C27   C41   A    
C64   H57   S    
C23   H19   S    
C5    O11   S    
O23   P3    S    
C73   H84   S    
Ba1   P2    S    
C1    H18   S    
C20   C21   A    
C42   H41   S    
C31   C32   A    
C62   H50   S    
C70   H74   S    
C25   C32   A    
C49   H37   S    
C44   H39   S    
C44   C46   D    
Ba2   O4    S    
C64   H55   S    
C2    O21   S    
C34   H44   S    
C72   H79   S    
C30   C33   A    
C67   H64   S    
C66   H63   S    
O25   C61   S    
C8    H27   S    
C73   H83   S    
Ba1   O23   S    
C61   H48   S    
C37   C38   A    
C12   O30   S    
Ba2   O13   S    
C16   C17   A    
C4    H15   S    
O32   C73   S    
C26   C37   A    
O18   P6    S    
C70   H73   S    
O2    P2    S    
C3    O15   S    
C15   C19   A    
C49   C50   A    
C35   H34   S    
Ba1   O13   S    
O14   P7    D    
C8    O28   S    
O21   P6    S    
C72   H80   S    
C27   C28   A    
C50   C57   A    
C7    H24   S    
C2    O25   S    
C62   H51   S    
Ba2   O8    S    
C40   O31   S    
C56   H3    S    
C65   H58   S    
O8    P7    S    
C9    C25   A    
C63   H52   S    
C69   H72   S    
Ba2   O5    S    
C17   C20   A    
O6    P8    S    
O12   P1    S    
C65   H60   S    
C10   C11   A    
O15   P7    S    
C68   H68   S    
O22   P2    D    
C22   P4    S    
C46   C47   S    
C69   H70   S    
C51   P7    S    
C11   C13   A    
C50   P5    S    
O3    P3    S    
C40   C41   A    
C54   H38   S    
O5    P4    S    
C71   H77   S    
C1    C2    S    
C26   C27   A    
O28   C67   S    
O11   P5    S    
C42   C43   S    
C38   C70   S    
C68   H69   S    
C42   C48   D    
C12   O3    S    
C52   C53   A    
C9    C15   A    
C60   O27   S    
C33   C35   A    
C6    H22   S    
C39   P6    S    
C52   H40   S    
C29   C30   A    
C22   C24   A    
C73   H82   S    
C48   P2    S    
C43   C44   S    
C9    C10   A    
C45   H2    S    
C51   C52   A    
O9    P5    S    
C16   O29   S    
Ba2   P4    S    
C30   C31   A    
C71   H78   S    
C53   C55   S    
C1    H10   S    
C72   H81   S    
C28   H32   S    
C61   H46   S    
C7    H25   S    
C36   C38   A    
C59   H9    S    
O30   C71   S    
C5    C66   S    
C58   H7    S    
C3    H14   S    
C29   H33   S    
C70   H75   S    
C20   P8    S    
Ba2   O12   S    
C69   H71   S    
C62   H49   S    
C63   H53   S    
C12   C23   S    
C59   C60   S    
O4    P4    D    
O1    P1    D    
C4    H16   S    
Ba1   O1    S    
C4    H17   S    
O29   C68   S    
C21   H31   S    
C56   O20   S    
C5    H20   S    
C18   C19   A    
C58   H6    S    
C14   C16   A    
C47   C48   D    
C25   C26   A    
O27   C63   S    
Ba1   O8    S    
C71   H76   S    
O10   P5    D    
C11   H29   S    
C34   H45   S    
