data_mof_unit_26980.cif
_audit_creation_date              2012-12-11T20:21:52-0500
_audit_creation_method            fapswitch 2.2
_symmetry_space_group_name_H-M    P1
_symmetry_Int_Tables_number       1
_space_group_crystal_system       triclinic
_cell_length_a                    8.236673
_cell_length_b                    17.441197
_cell_length_c                    26.969516
_cell_angle_alpha                 99.815773
_cell_angle_beta                  92.651979
_cell_angle_gamma                 81.384303
_cell_volume                      3773.71923353

loop_
_atom_site_label
_atom_site_type_symbol
_atom_type_description
_atom_site_fract_x
_atom_site_fract_y
_atom_site_fract_z
_atom_type_partial_charge
Ba1   Ba    Ba6+2 0.860160 0.462360 0.521850 1.652913
Ba2   Ba    Ba6+2 0.329680 0.537570 0.478140 1.642490
C1    C     C_3   0.603848 0.203552 0.661412 -0.372757
C2    C     C_R   0.882635 0.572722 0.178078 0.572275
C3    C     C_2   0.752483 0.546451 0.273942 -0.085984
C4    C     C_3   0.148191 0.233997 0.640550 0.317598
C5    C     C_3   0.732706 0.575049 0.329608 -0.051235
C6    C     C_1   0.985570 0.487098 0.342419 0.033270
C7    C     C_2   0.028565 0.485415 0.294891 -0.109059
C8    C     C_2   0.903507 0.513748 0.256470 0.184554
C9    C     C_R   0.025060 0.507376 0.101459 -0.080823
C10   C     C_R   0.091905 0.445632 0.127219 -0.035047
C11   C     C_R   0.201943 0.383522 0.101846 -0.059765
C12   C     C_3   0.599215 0.279711 0.640516 0.360989
C13   C     C_R   0.917686 0.570556 0.127041 -0.023028
C14   C     C_2   0.845088 0.525837 0.361086 -0.291174
C15   C     C_2   0.357353 0.486052 0.640096 -0.275290
C16   C     C_3   0.063545 0.208450 0.682961 -0.189661
C17   C     C_R   0.228383 0.445547 0.975105 0.020181
C18   C     C_R   0.026522 0.564958 0.972555 0.020361
C19   C     C_R   0.148259 0.505159 0.948585 0.049274
C20   C     C_R   0.353660 0.389471 0.950087 -0.100022
C21   C     C_R   0.394968 0.390638 0.900639 -0.069954
C22   C     C_R   0.313862 0.447770 0.873617 -0.032248
C23   C     C_3   0.492601 0.666883 0.634523 0.306085
C24   C     C_R   0.190453 0.505166 0.897565 -0.077575
C25   C     C_R   0.109711 0.562896 0.870593 -0.031716
C26   C     C_R   0.153757 0.562992 0.820479 0.588336
C27   C     C_R   0.353872 0.448450 0.823116 0.573342
C28   C     C_3   0.224187 0.298505 0.410053 0.315128
C29   C     C_2   0.468821 0.494951 0.728453 -0.077571
C30   C     C_3   0.506941 0.495611 0.673867 -0.069255
C31   C     C_1   0.211573 0.517304 0.657540 0.046957
C32   C     C_2   0.175608 0.515802 0.704860 -0.102185
C33   C     C_2   0.310859 0.504419 0.743800 0.197087
C34   C     C_3   0.478281 0.698554 0.690541 -0.378035
C35   C     C_R   0.181950 0.444316 0.025526 0.019428
C36   C     C_R   0.065919 0.506278 0.050176 0.049276
C37   C     C_R   0.990630 0.567456 0.024191 0.020368
C38   C     C_R   0.246907 0.383025 0.052454 -0.100263
C39   C     C_R   0.848445 0.631597 0.101400 -0.059306
C40   C     C_3   0.255007 0.209688 0.394298 -0.363703
C41   C     C_R   0.944159 0.620368 0.943703 -0.100470
C42   C     C_R   0.985482 0.619489 0.894139 -0.060857
C43   C     C_R   0.883014 0.630015 0.051252 -0.103294
C44   C     C_2   0.453178 0.280295 0.516810 -0.239853
C45   C     C_3   0.027405 0.705935 0.346376 0.347839
C46   C     C_3   0.378384 0.229093 0.546780 -0.071942
C47   C     C_2   0.426751 0.142804 0.528815 -0.096762
C48   C     C_2   0.553784 0.116298 0.497463 0.015397
C49   C     C_2   0.634029 0.174576 0.476266 -0.124252
C50   C     C_1   0.575556 0.250513 0.485876 0.059589
C51   C     C_R   0.790013 0.862566 0.471846 -0.127278
C52   C     C_3   0.974024 0.701364 0.587575 0.308962
C53   C     C_R   0.848021 0.782095 0.465216 0.014362
C54   C     C_R   0.616632 0.759575 0.510070 0.044682
C55   C     C_R   0.558724 0.839985 0.517480 -0.114053
C56   C     C_3   0.033439 0.729148 0.294776 -0.353550
C57   C     C_R   0.643386 0.891977 0.497802 0.010913
C58   C     C_2   0.613992 0.030859 0.483039 -0.074640
C59   C     C_2   0.585819 0.977071 0.510822 -0.071294
C60   C     C_R   0.757148 0.730542 0.482191 -0.283473
C61   C     C_3   0.941536 0.790218 0.603204 -0.384470
C62   C     C_3   0.695111 0.362378 0.368641 0.302725
C63   C     C_3   0.697506 0.342046 0.311518 -0.360278
C64   C     C_3   0.173359 0.203310 0.730095 -0.298519
C65   C     C_3   0.210380 0.283602 0.756479 -0.365160
C66   C     C_3   0.485364 0.745617 0.367845 0.371200
C67   C     C_3   0.435451 0.822597 0.348071 -0.362584
C68   C     C_R   0.046758 0.446887 0.177677 0.598136
H1    H     H_    0.660906 0.264783 0.603621 0.060301
H2    H     H_    0.816770 0.377071 0.382617 0.009796
H3    H     H_    0.599417 0.413898 0.379203 0.073808
H4    H     H_    0.732164 0.177140 0.667839 0.115756
H5    H     H_    0.796108 0.292299 0.299784 0.131654
H6    H     H_    0.720642 0.393364 0.295130 0.068504
H7    H     H_    0.577225 0.325350 0.296819 0.135434
H8    H     H_    0.469268 0.306248 0.636121 -0.082561
H9    H     H_    0.546110 0.160182 0.634115 0.058574
H10   H     H_    0.370508 0.652490 0.619972 0.028417
H11   H     H_    0.585062 0.613040 0.629045 0.033207
H12   H     H_    0.341836 0.193831 0.362678 0.119633
H13   H     H_    0.393213 0.754921 0.696514 0.134601
H14   H     H_    0.429048 0.656169 0.710016 0.072658
H15   H     H_    0.600835 0.708589 0.707087 0.128024
H16   H     H_    0.538428 0.215209 0.697594 0.128616
H17   H     H_    0.102489 0.647260 0.345928 0.077615
H18   H     H_    0.897508 0.702711 0.353848 -0.058052
H19   H     H_    0.160577 0.735914 0.286256 0.151879
H20   H     H_    0.992507 0.682566 0.265825 0.128758
H21   H     H_    0.951393 0.785554 0.293330 0.115732
H22   H     H_    0.621775 0.734568 0.369160 -0.071322
H23   H     H_    0.308374 0.181243 0.426217 0.074895
H24   H     H_    0.438977 0.752460 0.406640 0.077227
H25   H     H_    0.492058 0.870274 0.372275 0.068532
H26   H     H_    0.299987 0.838802 0.348405 0.151163
H27   H     H_    0.163494 0.297033 0.651451 0.019489
H28   H     H_    0.478326 0.816650 0.308931 0.122023
H29   H     H_    0.155383 0.466152 0.284320 0.144776
H30   H     H_    0.255550 0.334824 0.120351 0.121252
H31   H     H_    0.570252 0.491392 0.755539 0.114085
H32   H     H_    0.491982 0.346125 0.883570 0.117993
H33   H     H_    0.424994 0.344265 0.967989 0.068307
H34   H     H_    0.137634 0.187350 0.382202 0.133787
H35   H     H_    0.331276 0.332579 0.036126 0.068538
H36   H     H_    0.652121 0.563059 0.248639 0.128315
H37   H     H_    0.765654 0.681410 0.120083 0.122789
H38   H     H_    0.844287 0.664901 0.957961 0.068763
H39   H     H_    0.269262 0.196891 0.635024 -0.029162
H40   H     H_    0.918317 0.663676 0.874114 0.120631
H41   H     H_    0.048896 0.523173 0.715611 0.136188
H42   H     H_    0.825753 0.680235 0.035223 0.069039
H43   H     H_    0.825241 0.537066 0.401365 0.081398
H44   H     H_    0.370279 0.456045 0.601436 0.069779
H45   H     H_    0.858261 0.679302 0.574453 0.006869
H46   H     H_    0.517354 0.995139 0.545202 0.067248
H47   H     H_    0.738576 0.153956 0.451966 0.081227
H48   H     H_    0.864352 0.901866 0.459786 0.074378
H49   H     H_    0.685221 0.012474 0.449128 0.071094
H50   H     H_    0.359044 0.103249 0.543491 0.061586
H51   H     H_    0.950647 0.250215 0.693178 0.159673
H52   H     H_    0.451568 0.862355 0.540283 0.078267
H53   H     H_    0.418012 0.343391 0.526347 0.069358
H54   H     H_    0.803861 0.668474 0.477958 0.063689
H55   H     H_    0.028375 0.149296 0.669238 0.096452
H56   H     H_    0.062157 0.687229 0.556422 0.077699
H57   H     H_    0.342326 0.320041 0.420464 -0.001148
H58   H     H_    0.142847 0.313132 0.442916 0.087647
H59   H     H_    0.284949 0.309754 0.732389 0.151962
H60   H     H_    0.095201 0.324220 0.766024 0.139358
H61   H     H_    0.280963 0.276407 0.791724 0.154931
H62   H     H_    0.109098 0.176969 0.756887 0.136754
H63   H     H_    0.289923 0.163752 0.720185 0.124380
H64   H     H_    0.846619 0.806055 0.632532 0.135529
H65   H     H_    0.898031 0.818954 0.570523 0.062436
H66   H     H_    0.056305 0.812486 0.618434 0.123066
N1    N     N_R   0.944168 0.510610 0.203317 -0.420371
N2    N     N_R   0.272956 0.505319 0.796600 -0.422434
O1    O     O_2   0.906370 0.542040 0.619810 -0.464917
O2    O     O_2   0.184950 0.780769 0.477215 -0.485123
O3    O     O_3   0.090797 0.762277 0.382480 -0.597616
O4    O     O_3   0.138370 0.541980 0.559630 -0.493878
O5    O     O_3   0.572820 0.404940 0.471170 -0.497356
O6    O     O_2   0.345130 0.693150 0.532000 -0.462062
O7    O     O_3   0.543067 0.724387 0.610650 -0.642218
O8    O     O_2   0.411828 0.532978 0.324569 -0.495163
O9    O     O_3   0.418063 0.684644 0.336225 -0.588697
O10   O     O_2   0.097627 0.390575 0.198345 -0.598913
O11   O     O_2   0.459703 0.397648 0.802679 -0.605882
O12   O     O_3   0.660945 0.297197 0.388123 -0.635087
O13   O     O_2   0.798461 0.631129 0.200141 -0.620671
O14   O     O_2   0.087223 0.615431 0.798414 -0.602573
O15   O     O_3   0.686580 0.398330 0.583860 -0.482464
O16   O     O_2   0.847958 0.442055 0.668882 -0.478429
O17   O     O_3   0.037447 0.668098 0.629334 -0.627204
O18   O     O_3   0.682785 0.331285 0.673959 -0.583807
O19   O     O_2   0.844570 0.306830 0.467970 -0.450459
O20   O     O_3   0.101900 0.357890 0.557750 -0.472844
O21   O     O_2   0.073116 0.220517 0.499235 -0.482820
O22   O     O_3   0.052899 0.222880 0.596022 -0.583356
O23   O     O_2   0.283330 0.457940 0.380160 -0.459131
O24   O     O_3   0.051340 0.457960 0.440360 -0.499458
O25   O     O_3   0.503130 0.601610 0.416130 -0.478278
O26   O     O_3   0.151017 0.332092 0.369551 -0.625228
O27   O     O_3   0.616890 0.595000 0.528820 -0.481262
O28   O     O_3   0.087820 0.642040 0.442240 -0.492748
P1    P     P_3+3 0.071770 0.565500 0.613330 1.000328
P2    P     P_3+3 0.664870 0.318630 0.453960 0.982631
P3    P     P_3+3 0.151567 0.256011 0.549392 0.961288
P4    P     P_3+3 0.117940 0.434440 0.386660 0.991577
P5    P     P_3+3 0.054199 0.743124 0.442135 0.949302
P6    P     P_3+3 0.679760 0.418547 0.649857 0.994494
P7    P     P_3+3 0.532196 0.694354 0.545463 0.950483
P8    P     P_3+3 0.516447 0.595205 0.351099 0.951719

loop_
_geom_bond_atom_site_label_1
_geom_bond_atom_site_label_2
_ccdc_geom_bond_type
C19   C24   A    
C53   C60   A    
C32   H41   S    
C40   H23   S    
Ba2   O6    S    
C12   H1    S    
O26   P4    S    
C40   H12   S    
C28   O26   S    
C67   H26   S    
C1    H9    S    
C14   H43   S    
Ba2   O24   S    
C60   H54   S    
C51   C57   A    
O9    P8    S    
C31   P1    S    
C27   N2    Am   
C52   H56   S    
C24   C25   A    
C63   H6    S    
C29   H31   S    
Ba1   O20   S    
C17   C19   A    
C22   C24   A    
C32   C33   S    
C35   C38   A    
C33   N2    S    
C36   C37   A    
C55   C57   A    
C47   H50   S    
C52   C61   S    
Ba1   P1    S    
C34   H13   S    
O27   P7    S    
C23   H10   S    
C5    P8    S    
C44   C50   D    
O3    P5    S    
C54   C55   A    
O19   P2    D    
C58   H49   S    
Ba1   Ba2   S    
C1    H4    S    
C22   C27   A    
C11   C38   A    
Ba1   O4    S    
C17   C35   A    
C34   H14   S    
C66   H22   S    
O4    P1    S    
C9    C13   A    
C25   C42   A    
O17   P1    S    
C66   C67   S    
O6    P7    D    
C62   H3    S    
C8    N1    S    
O21   P3    D    
C7    C8    S    
Ba2   O28   S    
Ba1   O1    S    
C37   C43   A    
C67   H28   S    
C12   H8    S    
C64   C65   S    
C55   H52   S    
O28   P5    S    
C7    H29   S    
C1    H16   S    
C23   H11   S    
Ba2   O5    S    
C65   H59   S    
C15   C31   D    
Ba2   O23   S    
C53   P5    S    
C6    P4    S    
C15   H44   S    
C48   C49   S    
C64   H62   S    
C3    H36   S    
C51   C53   A    
C4    C16   S    
C28   H58   S    
C43   H42   S    
C57   C59   S    
O16   P6    D    
C49   C50   D    
C4    H27   S    
C17   C20   A    
C63   H7    S    
C13   C39   A    
C52   O17   S    
C3    C5    S    
C18   C37   A    
C51   H48   S    
C6    C7    D    
C16   H51   S    
Ba1   P2    S    
O18   P6    S    
C66   H24   S    
C20   H33   S    
C62   O12   S    
C58   C59   D    
C45   H17   S    
C9    C36   A    
O1    P1    D    
C41   C42   A    
C61   H64   S    
C35   C36   A    
Ba1   O5    S    
C64   H63   S    
O22   P3    S    
C29   C30   S    
O24   P4    S    
Ba1   O27   S    
C21   C22   A    
O12   P2    S    
C52   H45   S    
C59   H46   S    
C31   C32   D    
C26   N2    Am   
C18   C19   A    
Ba1   O15   S    
C56   H20   S    
Ba2   O27   S    
C66   O9    S    
Ba2   P4    S    
O23   P4    D    
C46   C47   S    
O7    P7    S    
Ba1   O24   S    
C26   O14   D    
O2    P5    D    
Ba2   O4    S    
C4    H39   S    
C54   C60   A    
C44   H53   S    
C65   H60   S    
C68   O10   D    
C18   C41   A    
C56   H21   S    
C2    O13   D    
C10   C68   A    
C28   H57   S    
C5    C14   S    
C39   H37   S    
C12   O18   S    
C65   H61   S    
C2    N1    Am   
C67   H25   S    
C40   H34   S    
Ba2   O25   S    
C4    O22   S    
C9    C10   A    
O20   P3    S    
C1    C12   S    
C34   H15   S    
C16   C64   S    
C45   O3    S    
C63   H5    S    
C54   P7    S    
C48   C58   S    
C45   H18   S    
C2    C13   A    
Ba1   O19   S    
C3    C8    D    
C16   H55   S    
C62   C63   S    
C45   C56   S    
C11   H30   S    
O8    P8    D    
O15   P6    S    
C49   H47   S    
C29   C33   D    
C41   H38   S    
C62   H2    S    
C30   P6    S    
C56   H19   S    
O5    P2    S    
C23   C34   S    
C27   O11   D    
C46   P3    S    
C21   H32   S    
C44   C46   S    
C10   C11   A    
C68   N1    Am   
C6    C14   D    
C47   C48   D    
C25   C26   A    
C15   C30   S    
C39   C43   A    
C20   C21   A    
C28   C40   S    
C61   H66   S    
C23   O7    S    
O25   P8    S    
C50   P2    S    
C61   H65   S    
C38   H35   S    
C42   H40   S    
