data_mof_unit_49972.cif
_audit_creation_date              2012-12-10T17:46:59-0500
_audit_creation_method            fapswitch 2.2
_symmetry_space_group_name_H-M    P1
_symmetry_Int_Tables_number       1
_space_group_crystal_system       triclinic
_cell_length_a                    9.98063
_cell_length_b                    10.690539
_cell_length_c                    13.594731
_cell_angle_alpha                 93.611698
_cell_angle_beta                  83.275293
_cell_angle_gamma                 88.183014
_cell_volume                      1436.57625527

loop_
_atom_site_label
_atom_site_type_symbol
_atom_type_description
_atom_site_fract_x
_atom_site_fract_y
_atom_site_fract_z
_atom_type_partial_charge
C1    C     C_R   0.499731 0.739052 0.489532 0.865016
C2    C     C_R   0.622593 0.933417 0.478271 0.374397
C3    C     C_R   0.622202 0.057684 0.513704 -0.118798
C4    C     C_R   0.475822 0.499533 0.685315 0.875834
C5    C     C_R   0.498951 0.128093 0.528679 -0.231092
C6    C     C_R   0.846819 0.701863 0.612589 -0.007874
C7    C     C_R   0.917239 0.805802 0.645262 0.471776
C8    C     C_R   0.054748 0.792057 0.649904 -0.321219
C9    C     C_R   0.123160 0.682597 0.612390 -0.224267
C10   C     C_R   0.062506 0.592252 0.555184 0.145277
C11   C     C_R   0.918054 0.595672 0.555718 0.056663
C12   C     C_1   0.457597 0.494670 0.788667 -0.076292
C13   C     C_R   0.942322 0.409206 0.447831 0.052849
C14   C     C_R   0.084147 0.410181 0.448945 -0.187299
C15   C     C_R   0.499651 0.261598 0.512368 0.924338
C16   C     C_R   0.524143 0.498262 0.314575 0.898299
C17   C     C_1   0.542982 0.485672 0.210659 -0.113357
C18   C     C_2   0.558910 0.458489 0.018264 -0.090665
C19   C     C_2   0.442011 0.482983 0.981057 0.470699
C20   C     C_1   0.446162 0.489220 0.876114 -0.091747
C21   C     C_1   0.555527 0.472437 0.122728 -0.029287
C22   C     C_3   0.206523 0.519962 0.999596 0.107933
C23   C     C_R   0.254568 0.898430 0.458769 -0.121312
C24   C     C_3   0.084950 0.542109 0.078097 -0.806346
C25   C     C_2   0.724899 0.692599 0.681841 0.513903
C26   C     C_3   0.852032 0.938599 0.785792 0.101525
C27   C     C_3   0.915622 0.063775 0.806312 -0.781526
C28   C     C_2   0.691734 0.420777 0.960120 0.384786
C29   C     C_3   0.770403 0.853681 0.347447 0.091920
C30   C     C_3   0.880972 0.752600 0.317317 -0.801432
C31   C     C_2   0.751375 0.108132 0.538890 0.574577
C32   C     C_2   0.894302 0.304256 0.387081 0.407799
C33   C     C_R   0.132860 0.967224 0.484103 -0.150453
C34   C     C_R   0.129494 0.077773 0.544137 -0.169075
C35   C     C_R   0.249526 0.126968 0.568293 -0.130642
C36   C     C_R   0.375018 0.067258 0.530097 0.080298
C37   C     C_R   0.375945 0.944251 0.488815 0.036551
C38   C     C_R   0.498852 0.873281 0.477609 -0.263688
H1    H     H_    0.108589 0.865279 0.685168 0.182954
H2    H     H_    0.095095 0.630768 0.123279 0.254298
H3    H     H_    0.991141 0.549176 0.041861 0.202001
H4    H     H_    0.077677 0.463174 0.127595 0.261174
H5    H     H_    0.633436 0.746512 0.673695 0.053374
H6    H     H_    0.906709 0.863660 0.820776 0.131914
H7    H     H_    0.746842 0.944089 0.823370 0.171320
H8    H     H_    0.855611 0.140897 0.779385 0.316164
H9    H     H_    0.918063 0.081700 0.887411 0.202857
H10   H     H_    0.020393 0.062703 0.768449 0.234397
H11   H     H_    0.781938 0.420546 0.997673 0.064452
H12   H     H_    0.224713 0.672071 0.628088 0.230762
H13   H     H_    0.804491 0.943608 0.317886 0.135149
H14   H     H_    0.679678 0.824282 0.312381 0.131185
H15   H     H_    0.974757 0.777169 0.349234 0.233624
H16   H     H_    0.847517 0.661302 0.343892 0.278775
H17   H     H_    0.902858 0.742970 0.235181 0.200317
H18   H     H_    0.845348 0.073692 0.496797 0.036835
H19   H     H_    0.952475 0.215830 0.376902 0.002853
H20   H     H_    0.148840 0.337581 0.406759 0.154489
H21   H     H_    0.252968 0.811781 0.413466 0.164129
H22   H     H_    0.040309 0.931339 0.461794 0.162659
H23   H     H_    0.034860 0.127239 0.570591 0.175517
H24   H     H_    0.243700 0.212990 0.615363 0.161966
H25   H     H_    0.193997 0.430237 0.955936 0.144507
H26   H     H_    0.209160 0.599413 0.950333 0.144478
N1    N     N_R   0.857120 0.501200 0.500900 -0.112150
N2    N     N_R   0.142720 0.501280 0.500940 -0.107769
O1    O     O_R   0.385310 0.683220 0.500000 -0.653695
O2    O     O_2   0.731210 0.637124 0.757177 -0.583455
O3    O     O_3   0.846924 0.916402 0.682347 -0.620253
O4    O     O_2   0.702454 0.386198 0.872155 -0.519953
O5    O     O_3   0.745215 0.868126 0.452134 -0.612901
O6    O     O_2   0.754248 0.183511 0.609865 -0.559387
O7    O     O_2   0.797037 0.315793 0.341924 -0.555492
O8    O     O_R   0.614640 0.683250 0.500010 -0.598099
O9    O     O_R   0.368830 0.499960 0.640340 -0.666186
O10   O     O_R   0.598160 0.499980 0.640350 -0.556647
O11   O     O_R   0.385360 0.316750 0.499990 -0.632037
O12   O     O_R   0.614690 0.316780 0.500000 -0.547182
O13   O     O_R   0.401840 0.500020 0.359650 -0.603932
O14   O     O_R   0.631170 0.500040 0.359660 -0.568710
O15   O     O_3   0.325059 0.514042 0.046979 -0.610239
Zn1   Zn    Zn3+2 0.346870 0.499980 0.499990 0.925485
Zn2   Zn    Zn3+2 0.653130 0.500020 0.500010 1.032385

loop_
_geom_bond_atom_site_label_1
_geom_bond_atom_site_label_2
_ccdc_geom_bond_type
C27   H10   S    
C18   C21   S    
C24   H4    S    
C13   C32   S    
C35   C36   A    
O8    Zn2   S    
C25   H5    S    
C26   H6    S    
C7    C8    A    
C13   N1    A    
C23   H21   S    
C30   H16   S    
C26   C27   S    
C29   C30   S    
C1    O8    A    
C36   C37   A    
C18   C19   D    
N1    Zn2   S    
C6    C25   S    
C5    C36   A    
C34   C35   A    
C4    O9    A    
C26   H7    S    
C1    O1    A    
C22   H25   S    
O12   Zn2   S    
C19   C20   S    
C8    C9    A    
C23   C33   A    
C8    H1    S    
C31   H18   S    
C4    C12   S    
C9    C10   A    
C13   C14   A    
C24   H3    S    
C25   O2    D    
C32   H19   S    
O14   Zn2   S    
O10   Zn2   S    
C10   N2    A    
C14   H20   S    
C30   H15   S    
C4    O10   A    
C22   O15   S    
C18   C28   S    
C32   O7    D    
C16   C17   S    
C23   C37   A    
C34   H23   S    
C17   C21   T    
C16   O14   A    
C37   C38   A    
N2    Zn1   S    
C28   H11   S    
C2    C38   A    
C12   C20   T    
C33   C34   A    
C14   N2    A    
C3    C31   S    
C1    C38   S    
C27   H8    S    
C31   O6    D    
C33   H22   S    
C22   C24   S    
C2    O5    S    
C6    C11   A    
C29   H13   S    
C27   H9    S    
C28   O4    D    
C9    H12   S    
C3    C5    A    
C7    O3    S    
O13   Zn1   S    
O9    Zn1   S    
C6    C7    A    
C30   H17   S    
C16   O13   A    
C2    C3    A    
C15   O11   A    
O11   Zn1   S    
C24   H2    S    
C35   H24   S    
C5    C15   S    
C10   C11   A    
C22   H26   S    
C15   O12   A    
O1    Zn1   S    
C26   O3    S    
C19   O15   S    
C11   N1    A    
C29   O5    S    
C29   H14   S    
