data_mof_unit_12068.cif
_audit_creation_date              2012-12-11T16:36:11-0500
_audit_creation_method            fapswitch 2.2
_symmetry_space_group_name_H-M    P1
_symmetry_Int_Tables_number       1
_space_group_crystal_system       triclinic
_cell_length_a                    21.554569
_cell_length_b                    21.53562
_cell_length_c                    22.382998
_cell_angle_alpha                 90.012539
_cell_angle_beta                  89.977974
_cell_angle_gamma                 90.08608
_cell_volume                      10389.9736458

loop_
_atom_site_label
_atom_site_type_symbol
_atom_type_description
_atom_site_fract_x
_atom_site_fract_y
_atom_site_fract_z
_atom_type_partial_charge
C1    C     C_R   0.436042 0.638151 0.609475 -0.128811
C2    C     C_R   0.583489 0.657133 0.581192 -0.139738
C3    C     C_R   0.790128 0.291010 0.836409 -0.166611
C4    C     C_R   0.808075 0.872535 0.287856 -0.185751
C5    C     C_R   0.218320 0.139229 0.725480 -0.166601
C6    C     C_R   0.870623 0.192287 0.286029 -0.188472
C7    C     C_R   0.210389 0.708194 0.838262 -0.166518
C8    C     C_R   0.294895 0.767966 0.880853 -0.183376
C9    C     C_R   0.768277 0.152882 0.261260 -0.164930
C10   C     C_R   0.121481 0.193174 0.707882 -0.182583
C11   C     C_R   0.849345 0.770672 0.264368 -0.165029
C12   C     C_R   0.705701 0.232077 0.880256 -0.183639
C13   C     C_R   0.656577 0.417347 0.417495 -0.126965
C14   C     C_R   0.232418 0.845924 0.260143 -0.162427
C15   C     C_R   0.860602 0.781531 0.725596 -0.166686
C16   C     C_R   0.127990 0.191800 0.287652 -0.186603
C17   C     C_R   0.752982 0.688678 0.597377 -0.162505
C18   C     C_R   0.249285 0.330667 0.366079 -0.172215
C19   C     C_R   0.613165 0.306466 0.722749 -0.167140
C20   C     C_R   0.315653 0.753198 0.398789 -0.167427
C21   C     C_R   0.251350 0.331341 0.640100 -0.174421
C22   C     C_R   0.753215 0.686135 0.401343 -0.162899
C23   C     C_R   0.385830 0.694408 0.722100 -0.168371
C24   C     C_R   0.362587 0.564681 0.610255 -0.126972
C25   C     C_R   0.684462 0.246847 0.399064 -0.166480
C26   C     C_R   0.749835 0.331196 0.364287 -0.174192
C27   C     C_R   0.331640 0.597401 0.739453 -0.164599
C28   C     C_R   0.669073 0.750549 0.365104 -0.173121
C29   C     C_R   0.311115 0.247076 0.597302 -0.161949
C30   C     C_R   0.250078 0.668737 0.364600 -0.173635
C31   C     C_R   0.668568 0.402918 0.739386 -0.164628
C32   C     C_R   0.314300 0.246383 0.401073 -0.163559
C33   C     C_R   0.668797 0.748730 0.639869 -0.174134
C34   C     C_R   0.208224 0.131501 0.208455 -0.174085
C35   C     C_R   0.582842 0.656851 0.418020 -0.124705
C36   C     C_R   0.832126 0.902872 0.760193 -0.164793
C37   C     C_R   0.108112 0.826907 0.230057 -0.160313
C38   C     C_R   0.832164 0.247337 0.857034 -0.175476
C39   C     C_R   0.828447 0.894334 0.232769 -0.161588
C40   C     C_R   0.194016 0.113810 0.777398 -0.166927
C41   C     C_R   0.892331 0.172747 0.230703 -0.159494
C42   C     C_R   0.168302 0.751735 0.859085 -0.173528
C43   C     C_R   0.252617 0.811892 0.901492 -0.167463
C44   C     C_R   0.790013 0.133146 0.206235 -0.183101
C45   C     C_R   0.097132 0.167835 0.760164 -0.164926
C46   C     C_R   0.414805 0.343011 0.580810 -0.137646
C47   C     C_R   0.869852 0.792462 0.209570 -0.180786
C48   C     C_R   0.747919 0.188016 0.900680 -0.167540
C49   C     C_R   0.210734 0.865478 0.205067 -0.174533
C50   C     C_R   0.885950 0.805841 0.777529 -0.167707
C51   C     C_R   0.106185 0.171808 0.232453 -0.159474
C52   C     C_R   0.343407 0.582676 0.417605 -0.128135
C53   C     C_R   0.637070 0.435694 0.610445 -0.127463
C54   C     C_R   0.926804 0.145730 0.102465 -0.132524
C55   C     C_R   0.083262 0.842977 0.918467 -0.140906
C56   C     C_R   0.145647 0.072145 0.102529 -0.120965
C57   C     C_R   0.584037 0.343517 0.417678 -0.124344
C58   C     C_R   0.862796 0.935460 0.889608 -0.128865
C59   C     C_R   0.073621 0.853842 0.101927 -0.132129
C60   C     C_R   0.917020 0.156796 0.917770 -0.144299
C61   C     C_R   0.855558 0.927789 0.103947 -0.131140
C62   C     C_R   0.137933 0.063758 0.890365 -0.128638
C63   C     C_R   0.936058 0.861986 0.890402 -0.126844
C64   C     C_R   0.072256 0.144745 0.103676 -0.135066
C65   C     C_R   0.156849 0.915092 0.918852 -0.136878
C66   C     C_R   0.853301 0.073038 0.101249 -0.127087
C67   C     C_R   0.064648 0.137208 0.889579 -0.127396
C68   C     C_R   0.656942 0.585038 0.580941 -0.141877
C69   C     C_R   0.928305 0.854566 0.102859 -0.125789
C70   C     C_R   0.843359 0.084614 0.918204 -0.140942
C71   C     C_R   0.146979 0.926604 0.100867 -0.121484
C72   C     C_R   0.774833 0.783039 0.652670 0.117368
C73   C     C_R   0.219549 0.224460 0.347262 0.116709
C74   C     C_R   0.682801 0.316148 0.806829 0.116151
C75   C     C_R   0.220957 0.774835 0.345115 0.117235
C76   C     C_R   0.216896 0.225235 0.652708 0.117402
C77   C     C_R   0.775260 0.780782 0.347242 0.117036
C78   C     C_R   0.317473 0.684040 0.807132 0.116609
C79   C     C_R   0.343171 0.417036 0.418198 -0.125082
C80   C     C_R   0.779252 0.225008 0.345517 0.117330
C81   C     C_R   0.190819 0.184414 0.302218 0.118005
C82   C     C_R   0.817993 0.816360 0.692244 0.116188
C83   C     C_R   0.192751 0.814418 0.299631 0.117904
C84   C     C_R   0.726284 0.282314 0.845467 0.118349
C85   C     C_R   0.815743 0.809751 0.302692 0.117515
C86   C     C_R   0.183564 0.181986 0.692207 0.116055
C87   C     C_R   0.807729 0.185070 0.300416 0.119339
C88   C     C_R   0.274270 0.717445 0.846454 0.118054
C89   C     C_R   0.689661 0.695258 0.610423 0.142691
C90   C     C_R   0.563561 0.362221 0.609710 -0.129605
C91   C     C_R   0.305115 0.310081 0.391259 0.145773
C92   C     C_R   0.630394 0.365911 0.703110 0.144061
C93   C     C_R   0.306040 0.689435 0.389545 0.145496
C94   C     C_R   0.304682 0.310436 0.610502 0.143177
C95   C     C_R   0.689636 0.694981 0.390898 0.145474
C96   C     C_R   0.369049 0.634738 0.702748 0.144782
C97   C     C_R   0.693942 0.310563 0.389438 0.145386
C98   C     C_R   0.146828 0.143552 0.191745 0.147633
C99   C     C_R   0.869301 0.865494 0.796955 0.144340
C100  C     C_R   0.149085 0.854029 0.188868 0.146263
C101  C     C_R   0.415936 0.656496 0.417765 -0.125636
C102  C     C_R   0.811173 0.194285 0.887144 0.143709
C103  C     C_R   0.857311 0.853688 0.192430 0.145779
C104  C     C_R   0.134452 0.130542 0.796876 0.144372
C105  C     C_R   0.851508 0.145092 0.189744 0.148508
C106  C     C_R   0.189274 0.805189 0.888576 0.143062
C107  C     C_R   0.388019 0.613420 0.643186 0.035686
C108  C     C_R   0.645613 0.355815 0.403567 0.034470
C109  C     C_R   0.644841 0.646564 0.595111 0.043801
C110  C     C_R   0.353778 0.355372 0.404833 0.034234
C111  C     C_R   0.611447 0.387126 0.643514 0.035927
C112  C     C_R   0.342944 0.416701 0.581431 -0.144060
C113  C     C_R   0.354357 0.644206 0.403717 0.035200
C114  C     C_R   0.353392 0.355239 0.595186 0.043825
C115  C     C_R   0.644444 0.646260 0.404583 0.034238
C116  C     C_R   0.874263 0.124586 0.131707 0.034181
C117  C     C_R   0.144560 0.853691 0.904284 0.042908
C118  C     C_R   0.124212 0.123143 0.133500 0.033038
C119  C     C_R   0.888182 0.886764 0.856623 0.034374
C120  C     C_R   0.126259 0.874786 0.131000 0.033411
C121  C     C_R   0.855814 0.145901 0.903236 0.041707
C122  C     C_R   0.877489 0.876070 0.133999 0.033468
C123  C     C_R   0.656643 0.584563 0.418337 -0.124168
C124  C     C_R   0.113231 0.111685 0.856570 0.034475
C125  C     C_R   0.795370 0.732590 0.618155 -0.179702
C126  C     C_R   0.206567 0.288154 0.344622 -0.164763
C127  C     C_R   0.639075 0.281832 0.774209 -0.166860
C128  C     C_R   0.272976 0.795826 0.376874 -0.185701
C129  C     C_R   0.207786 0.289165 0.660936 -0.166030
C130  C     C_R   0.795943 0.729121 0.379758 -0.182628
C131  C     C_R   0.360346 0.718808 0.773885 -0.166289
C132  C     C_R   0.727249 0.204151 0.377416 -0.186816
C133  C     C_R   0.792449 0.288695 0.342867 -0.165233
C134  C     C_R   0.415478 0.343262 0.418441 -0.123578
C135  C     C_R   0.306225 0.621854 0.791613 -0.183582
C136  C     C_R   0.711577 0.793372 0.343791 -0.164693
C137  C     C_R   0.267208 0.204674 0.618070 -0.179660
C138  C     C_R   0.207566 0.711173 0.342938 -0.165881
C139  C     C_R   0.694409 0.378232 0.791214 -0.183288
C140  C     C_R   0.271425 0.203648 0.379319 -0.182448
C141  C     C_R   0.710958 0.792290 0.660727 -0.166442
C142  C     C_R   0.230044 0.151660 0.263348 -0.163220
C143  C     C_R   0.806861 0.878515 0.707888 -0.182509
C144  C     C_R   0.129793 0.807513 0.285416 -0.186628
H1    H     H_    0.770019 0.648861 0.572904 0.104541
H2    H     H_    0.319714 0.550413 0.726693 0.110648
H3    H     H_    0.620323 0.759021 0.357016 0.109015
H4    H     H_    0.350814 0.230006 0.572710 0.104017
H5    H     H_    0.241008 0.619874 0.357404 0.108882
H6    H     H_    0.680866 0.449753 0.726456 0.111969
H7    H     H_    0.355764 0.229304 0.422702 0.102691
H8    H     H_    0.620168 0.755090 0.650304 0.108692
H9    H     H_    0.240353 0.109248 0.178110 0.107257
H10   H     H_    0.820283 0.949834 0.773002 0.111973
H11   H     H_    0.059628 0.819925 0.219246 0.116699
H12   H     H_    0.240502 0.379486 0.358487 0.108431
H13   H     H_    0.880758 0.253354 0.846174 0.108394
H14   H     H_    0.820533 0.942538 0.221365 0.116488
H15   H     H_    0.223958 0.084819 0.804238 0.106683
H16   H     H_    0.940666 0.180168 0.219681 0.105320
H17   H     H_    0.119657 0.745336 0.848690 0.109202
H18   H     H_    0.269771 0.851754 0.925872 0.107412
H19   H     H_    0.757835 0.111227 0.175669 0.108555
H20   H     H_    0.050229 0.179736 0.773004 0.110447
H21   H     H_    0.892650 0.760360 0.179574 0.108331
H22   H     H_    0.730798 0.148457 0.925534 0.108112
H23   H     H_    0.583452 0.276773 0.696298 0.106308
H24   H     H_    0.242990 0.886980 0.174279 0.107312
H25   H     H_    0.914836 0.775835 0.804405 0.105876
H26   H     H_    0.057945 0.179429 0.221292 0.105382
H27   H     H_    0.466791 0.675587 0.621655 0.092420
H28   H     H_    0.561838 0.298535 0.419825 0.085300
H29   H     H_    0.702150 0.563599 0.577908 0.084343
H30   H     H_    0.298553 0.439549 0.422125 0.086405
H31   H     H_    0.532543 0.324994 0.621923 0.094689
H32   H     H_    0.438119 0.701481 0.419928 0.085065
H33   H     H_    0.298103 0.438744 0.577266 0.088982
H34   H     H_    0.357268 0.770417 0.420129 0.106551
H35   H     H_    0.701655 0.562663 0.420833 0.083615
H36   H     H_    0.437443 0.298252 0.420948 0.083722
H37   H     H_    0.561709 0.702100 0.576725 0.086668
H38   H     H_    0.701259 0.439931 0.421084 0.087411
H39   H     H_    0.324439 0.535020 0.623055 0.092487
H40   H     H_    0.560297 0.701498 0.421822 0.086650
H41   H     H_    0.436009 0.297683 0.577531 0.082154
H42   H     H_    0.298726 0.560105 0.421252 0.087276
H43   H     H_    0.675032 0.465608 0.623243 0.094546
H44   H     H_    0.950651 0.188656 0.111272 0.087099
H45   H     H_    0.245106 0.379998 0.650660 0.108013
H46   H     H_    0.061376 0.797973 0.922744 0.088772
H47   H     H_    0.188023 0.047539 0.110893 0.084386
H48   H     H_    0.824853 0.965248 0.876761 0.095051
H49   H     H_    0.050196 0.810617 0.110376 0.087505
H50   H     H_    0.939006 0.201797 0.921604 0.091050
H51   H     H_    0.812976 0.951714 0.113445 0.087703
H52   H     H_    0.175156 0.032857 0.878149 0.095288
H53   H     H_    0.966715 0.824586 0.878159 0.092865
H54   H     H_    0.048108 0.187273 0.113076 0.087775
H55   H     H_    0.202132 0.936486 0.921932 0.084533
H56   H     H_    0.770225 0.644873 0.423439 0.103067
H57   H     H_    0.810485 0.048703 0.108859 0.082342
H58   H     H_    0.035086 0.175308 0.876692 0.092772
H59   H     H_    0.953198 0.812353 0.111336 0.083422
H60   H     H_    0.798092 0.063123 0.920943 0.086514
H61   H     H_    0.189911 0.950730 0.108408 0.083046
H62   H     H_    0.844431 0.725007 0.610727 0.112641
H63   H     H_    0.167160 0.305562 0.319756 0.114330
H64   H     H_    0.629580 0.233667 0.784722 0.113585
H65   H     H_    0.283492 0.844957 0.379600 0.114165
H66   H     H_    0.170101 0.306481 0.688234 0.113985
H67   H     H_    0.414907 0.724365 0.695258 0.105646
H68   H     H_    0.845039 0.719206 0.383580 0.112335
H69   H     H_    0.369486 0.767075 0.784264 0.113681
H70   H     H_    0.716867 0.155020 0.380517 0.113330
H71   H     H_    0.831959 0.306092 0.318035 0.114993
H72   H     H_    0.274070 0.593838 0.817282 0.114043
H73   H     H_    0.694267 0.832572 0.318517 0.114344
H74   H     H_    0.274684 0.155572 0.610523 0.112498
H75   H     H_    0.168020 0.693693 0.318230 0.114917
H76   H     H_    0.727194 0.405926 0.816453 0.114437
H77   H     H_    0.281625 0.154518 0.382533 0.112889
H78   H     H_    0.642895 0.229703 0.420568 0.106112
H79   H     H_    0.693650 0.830081 0.687922 0.114110
H80   H     H_    0.279017 0.146403 0.272889 0.115162
H81   H     H_    0.774906 0.906593 0.682169 0.114217
H82   H     H_    0.098536 0.783439 0.315463 0.115962
H83   H     H_    0.807410 0.328575 0.808863 0.114405
H84   H     H_    0.782559 0.903453 0.317053 0.115648
H85   H     H_    0.266506 0.130137 0.714980 0.113496
H86   H     H_    0.901754 0.216822 0.315835 0.113510
H87   H     H_    0.193046 0.670367 0.811080 0.114439
H88   H     H_    0.343964 0.775573 0.888323 0.113385
H89   H     H_    0.758787 0.380031 0.356805 0.109493
H90   H     H_    0.719249 0.147787 0.270720 0.116116
H91   H     H_    0.093464 0.225243 0.682221 0.114166
H92   H     H_    0.854932 0.721748 0.274158 0.115541
H93   H     H_    0.656675 0.224875 0.888354 0.113652
H94   H     H_    0.281502 0.850695 0.269469 0.115543
H95   H     H_    0.869643 0.733287 0.715135 0.113357
H96   H     H_    0.096980 0.216740 0.317219 0.113580
N1    N     N_R   0.440580 0.604630 0.559510 -0.039811
N2    N     N_R   0.559420 0.604630 0.559510 -0.035575
N3    N     N_R   0.604630 0.440580 0.440490 -0.039104
N4    N     N_R   0.395370 0.559420 0.559510 -0.039355
N5    N     N_R   0.559420 0.604630 0.440490 -0.038019
N6    N     N_R   0.440580 0.395370 0.559510 -0.036000
N7    N     N_R   0.395370 0.559420 0.440490 -0.039064
N8    N     N_R   0.604630 0.440580 0.559510 -0.039495
N9    N     N_R   0.940580 0.104630 0.059510 -0.035922
N10   N     N_R   0.059420 0.895370 0.940490 -0.036594
N11   N     N_R   0.104630 0.059420 0.059510 -0.039538
N12   N     N_R   0.559420 0.395370 0.440490 -0.039570
N13   N     N_R   0.895370 0.940580 0.940490 -0.040738
N14   N     N_R   0.059420 0.895370 0.059510 -0.036471
N15   N     N_R   0.940580 0.104630 0.940490 -0.036352
N16   N     N_R   0.895370 0.940580 0.059510 -0.038503
N17   N     N_R   0.104630 0.059420 0.940490 -0.041209
N18   N     N_R   0.940580 0.895370 0.940490 -0.040865
N19   N     N_R   0.059420 0.104630 0.059510 -0.037909
N20   N     N_R   0.104630 0.940580 0.940490 -0.037335
N21   N     N_R   0.895370 0.059420 0.059510 -0.036646
N22   N     N_R   0.059420 0.104630 0.940490 -0.040434
N23   N     N_R   0.604630 0.559420 0.559510 -0.035750
N24   N     N_R   0.940580 0.895370 0.059510 -0.038567
N25   N     N_R   0.895370 0.059420 0.940490 -0.036923
N26   N     N_R   0.104630 0.940580 0.059510 -0.037829
N27   N     N_R   0.395370 0.440580 0.440490 -0.037858
N28   N     N_R   0.559420 0.395370 0.559510 -0.039962
N29   N     N_R   0.440580 0.604630 0.440490 -0.039506
N30   N     N_R   0.395370 0.440580 0.559510 -0.035339
N31   N     N_R   0.604630 0.559420 0.440490 -0.038077
N32   N     N_R   0.440580 0.395370 0.440490 -0.038273
Ni1   Ni    Ni4+2 0.500000 0.603690 0.500000 0.207776
Ni2   Ni    Ni4+2 0.500000 0.396310 0.500000 0.205856
Ni3   Ni    Ni4+2 0.603690 0.500000 0.500000 0.207453
Ni4   Ni    Ni4+2 0.396310 0.500000 0.500000 0.209376
Ni5   Ni    Ni4+2 0.000000 0.103690 0.000000 0.214945
Ni6   Ni    Ni4+2 0.000000 0.896310 0.000000 0.213434
Ni7   Ni    Ni4+2 0.103690 0.000000 0.000000 0.210930
Ni8   Ni    Ni4+2 0.896310 0.000000 0.000000 0.212631

loop_
_geom_bond_atom_site_label_1
_geom_bond_atom_site_label_2
_ccdc_geom_bond_type
C20   C93   A    
C31   C92   A    
C2    C109  A    
C59   C120  A    
C30   C138  A    
C37   C144  A    
C64   H54   S    
C131  H69   S    
C8    H88   S    
C22   C95   A    
C37   H11   S    
C105  C116  S    
C11   C47   A    
C8    C43   A    
C62   H52   S    
C12   C48   A    
C74   C139  A    
C67   C124  A    
C29   H4    S    
C112  C114  A    
C94   C114  S    
C42   H17   S    
C36   H10   S    
N10   N20   A    
C7    H87   S    
C44   C105  A    
C59   H49   S    
N31   Ni3   S    
C32   H7    S    
C10   H91   S    
C66   C116  A    
C71   C120  A    
C28   C95   A    
C80   C132  A    
C18   C91   A    
N10   Ni6   S    
C91   C110  S    
C22   H56   S    
N13   Ni8   S    
C45   H20   S    
C32   C140  A    
C30   C93   A    
C83   C144  A    
N7    N29   A    
C140  H77   S    
C15   C50   A    
C47   C103  A    
C21   C94   A    
C134  N32   A    
C73   C126  A    
C56   N11   A    
C15   H95   S    
C125  H62   S    
C64   C118  A    
C23   C96   A    
C12   C84   A    
C58   N13   A    
N5    Ni1   S    
C75   C128  A    
C76   C129  A    
C7    C42   A    
N1    Ni1   S    
C58   C119  A    
N8    N28   A    
C19   C92   A    
C40   H15   S    
N11   N19   A    
C65   H55   S    
C97   C108  S    
C130  H68   S    
N13   N18   A    
C75   C83   S    
N14   N26   A    
C7    C88   A    
C3    C38   A    
C95   C115  S    
C28   H3    S    
C6    C41   A    
C54   C116  A    
C137  H74   S    
N18   Ni6   S    
C79   N27   A    
N2    N23   A    
C16   C51   A    
C35   C115  A    
C100  C120  S    
C44   H19   S    
C32   C91   A    
C15   C82   A    
C66   N21   A    
C78   C135  A    
C61   H51   S    
C13   N3    A    
N24   Ni6   S    
C64   N19   A    
C68   C109  A    
C57   H28   S    
C71   N26   A    
C53   C111  A    
C51   C98   A    
C56   H47   S    
C77   C85   S    
C54   H44   S    
C22   C130  A    
C24   H39   S    
C66   H57   S    
C79   H30   S    
C144  H82   S    
C27   C96   A    
C52   H42   S    
C14   C83   A    
C143  H81   S    
C13   C108  A    
C139  H76   S    
C73   C81   S    
C34   C142  A    
C98   C118  S    
C69   N24   A    
C19   H23   S    
N32   Ni2   S    
C70   H60   S    
C72   C141  A    
C78   C88   S    
N27   Ni4   S    
C35   N5    A    
C25   C132  A    
C115  C123  A    
C46   C114  A    
C60   H50   S    
N17   N22   A    
C133  H71   S    
C55   H46   S    
N30   Ni4   S    
N6    Ni2   S    
C65   N20   A    
C17   C89   A    
C46   N6    A    
N8    Ni3   S    
C123  H35   S    
C63   N18   A    
C112  N30   A    
C14   H94   S    
C31   H6    S    
C89   C109  S    
C20   H34   S    
C136  H73   S    
N15   N25   A    
C33   C141  A    
C35   H40   S    
C76   C137  A    
N22   Ni5   S    
C101  N29   A    
C90   H31   S    
C1    H27   S    
C60   N15   A    
C80   C133  A    
C63   H53   S    
C61   C122  A    
C8    C88   A    
C2    H37   S    
C33   H8    S    
C90   N28   A    
C127  H64   S    
C45   C104  A    
C33   C89   A    
C128  H65   S    
C40   C104  A    
C41   H16   S    
C2    N2    A    
N27   N32   A    
C21   H45   S    
C74   C127  A    
C4    C39   A    
C126  H63   S    
C48   C102  A    
C57   C108  A    
C10   C45   A    
C50   C99   A    
C55   N10   A    
C23   C131  A    
C25   H78   S    
N25   Ni8   S    
C24   C107  A    
C93   C113  S    
C57   N12   A    
C39   C103  A    
C42   C106  A    
C62   N17   A    
C21   C129  A    
C1    N1    A    
C49   H24   S    
C135  H72   S    
N6    N30   A    
C5    C86   A    
C26   H89   S    
C25   C97   A    
C81   C142  A    
C77   C136  A    
C96   C107  S    
C1    C107  A    
C138  H75   S    
N17   Ni7   S    
C61   N16   A    
N23   Ni3   S    
C6    H86   S    
C106  C117  S    
C58   H48   S    
C17   H1    S    
C72   C82   S    
C5    H85   S    
N19   Ni5   S    
C132  H70   S    
N3    Ni3   S    
C31   C139  A    
C102  C121  S    
C52   N7    A    
C76   C86   S    
C68   N23   A    
C67   N22   A    
C18   H12   S    
C70   N25   A    
N4    Ni4   S    
C55   C117  A    
C34   H9    S    
C123  N31   A    
C11   H92   S    
C142  H80   S    
C10   C86   A    
C9    C44   A    
N3    N12   A    
C79   C110  A    
N5    N31   A    
C9    H90   S    
C28   C136  A    
C56   C118  A    
N16   Ni8   S    
C51   H26   S    
C12   H93   S    
C62   C124  A    
N2    Ni1   S    
C74   C84   S    
C82   C143  A    
C30   H5    S    
C75   C138  A    
C67   H58   S    
C90   C111  A    
C68   H29   S    
C92   C111  S    
C20   C128  A    
C104  C124  S    
C73   C140  A    
N26   Ni7   S    
C80   C87   S    
C29   C137  A    
C3    H83   S    
C129  H66   S    
C141  H79   S    
C47   H21   S    
N29   Ni1   S    
C72   C125  A    
N1    N4    A    
C27   C135  A    
C38   H13   S    
N20   Ni7   S    
N16   N24   A    
C53   H43   S    
C53   N8    A    
C39   H14   S    
C26   C133  A    
C18   C126  A    
C49   C100  A    
N14   Ni6   S    
C70   C121  A    
C17   C125  A    
C29   C94   A    
N21   Ni8   S    
C23   H67   S    
C69   C122  A    
C11   C85   A    
C27   H2    S    
C52   C113  A    
C19   C127  A    
C16   C81   A    
C34   C98   A    
C54   N9    A    
N9    Ni5   S    
C24   N4    A    
C36   C99   A    
C77   C130  A    
C4    H84   S    
C46   H41   S    
N9    N21   A    
C60   C121  A    
C101  C113  A    
N11   Ni7   S    
C78   C131  A    
C110  C134  A    
C50   H25   S    
C6    C87   A    
C26   C97   A    
C99   C119  S    
C9    C87   A    
C14   C49   A    
C43   H18   S    
C71   H61   S    
C36   C143  A    
C48   H22   S    
C41   C105  A    
C16   H96   S    
C69   H59   S    
C38   C102  A    
C13   H38   S    
C5    C40   A    
N28   Ni2   S    
C3    C84   A    
C4    C85   A    
C63   C119  A    
C65   C117  A    
C101  H32   S    
C134  H36   S    
N7    Ni4   S    
C103  C122  S    
N12   Ni2   S    
C43   C106  A    
C37   C100  A    
N15   Ni5   S    
C112  H33   S    
C59   N14   A    
