data_mof_unit_60768.cif
_audit_creation_date              2012-12-10T20:23:05-0500
_audit_creation_method            fapswitch 2.2
_symmetry_space_group_name_H-M    P1
_symmetry_Int_Tables_number       1
_space_group_crystal_system       triclinic
_cell_length_a                    18.990145
_cell_length_b                    18.438796
_cell_length_c                    17.503024
_cell_angle_alpha                 90.106013
_cell_angle_beta                  90.601962
_cell_angle_gamma                 90.792584
_cell_volume                      6127.84173547

loop_
_atom_site_label
_atom_site_type_symbol
_atom_type_description
_atom_site_fract_x
_atom_site_fract_y
_atom_site_fract_z
_atom_type_partial_charge
C1    C     C_R   0.365246 0.499495 0.498342 0.960656
C2    C     C_R   0.634623 0.500472 0.498716 1.028975
C3    C     C_R   0.850271 0.496841 0.443618 0.017425
C4    C     C_R   0.148159 0.502019 0.442761 0.030750
C5    C     C_R   0.708950 0.501425 0.482486 -0.321030
C6    C     C_R   0.290315 0.498313 0.482381 -0.319655
C7    C     C_R   0.962324 0.564337 0.422000 0.332821
C8    C     C_R   0.035470 0.432886 0.429516 0.334763
C9    C     C_R   0.035678 0.564883 0.417458 0.304343
C10   C     C_R   0.962093 0.431818 0.424606 0.305479
C11   C     C_R   0.072355 0.499667 0.426941 -0.218349
C12   C     C_R   0.925532 0.497676 0.426812 -0.216635
C13   C     C_R   0.545689 0.726550 0.546817 0.664700
C14   C     C_R   0.455666 0.272894 0.452221 0.623369
C15   C     C_R   0.454559 0.725696 0.453470 0.661165
C16   C     C_R   0.545317 0.274863 0.547221 0.650671
C17   C     C_R   0.546538 0.802664 0.548187 -0.285681
C18   C     C_R   0.455067 0.196794 0.451622 -0.281325
C19   C     C_R   0.453795 0.801783 0.453133 -0.262843
C20   C     C_R   0.546413 0.198792 0.548239 -0.291684
C21   C     C_R   0.500193 0.841474 0.500911 0.107351
C22   C     C_R   0.500709 0.158578 0.500206 0.108089
C23   C     C_R   0.437024 0.961198 0.507200 0.487622
C24   C     C_R   0.564032 0.038943 0.494860 0.488812
C25   C     C_R   0.563909 0.962731 0.495060 0.499274
C26   C     C_R   0.437153 0.037401 0.506928 0.491898
C27   C     C_R   0.500648 0.077333 0.500697 -0.293811
C28   C     C_R   0.500391 0.922768 0.501167 -0.293229
C29   C     C_R   0.501048 0.499934 0.353567 0.990973
C30   C     C_R   0.500047 0.500099 0.647259 0.925557
C31   C     C_R   0.523038 0.567774 0.849280 -0.256771
C32   C     C_R   0.572673 0.459412 0.160590 -0.249801
C33   C     C_R   0.479990 0.548267 0.147878 -0.253970
C34   C     C_R   0.526082 0.436549 0.849997 -0.263780
C35   C     C_R   0.508412 0.567471 0.771242 0.439147
C36   C     C_R   0.561485 0.455810 0.239087 0.430918
C37   C     C_R   0.468070 0.545393 0.226073 0.416639
C38   C     C_R   0.511298 0.434675 0.771890 0.453744
C39   C     C_R   0.505780 0.500657 0.731007 -0.281796
C40   C     C_R   0.509731 0.499932 0.271705 -0.228678
C41   C     C_R   0.532222 0.502724 0.887731 0.014534
C42   C     C_R   0.531679 0.505124 0.115839 0.020129
C43   C     C_1   0.538696 0.503642 0.967978 0.007590
C44   C     C_1   0.538509 0.504443 0.035792 0.004759
C45   C     C_R   0.755314 0.460584 0.526891 0.562971
C46   C     C_R   0.245700 0.545109 0.521314 0.533702
C47   C     C_R   0.263927 0.454123 0.422940 0.536606
C48   C     C_R   0.732940 0.539264 0.418101 0.559739
C49   C     C_R   0.826098 0.459320 0.508155 -0.215678
C50   C     C_R   0.174539 0.546008 0.502320 -0.204587
C51   C     C_R   0.193304 0.456911 0.402522 -0.227180
C52   C     C_R   0.803364 0.536217 0.398283 -0.197432
H1    H     H_    0.525920 0.618870 0.880007 0.170084
H2    H     H_    0.613313 0.427056 0.134774 0.160827
H3    H     H_    0.448341 0.583410 0.112183 0.163067
H4    H     H_    0.531521 0.386237 0.881344 0.165085
H5    H     H_    0.862257 0.429716 0.544367 0.200249
H6    H     H_    0.139773 0.580159 0.534793 0.198122
H7    H     H_    0.173669 0.423514 0.355766 0.208422
H8    H     H_    0.821401 0.564631 0.347875 0.207506
H9    H     H_    0.582602 0.831007 0.586562 0.222845
H10   H     H_    0.419770 0.167966 0.412812 0.222203
H11   H     H_    0.417797 0.829451 0.415080 0.220106
H12   H     H_    0.582054 0.171549 0.587030 0.226540
N1    N     N_R   0.500000 0.689440 0.500000 -0.208831
N2    N     N_R   0.500000 0.310560 0.500000 -0.222978
O1    O     O_R   0.398180 0.560840 0.499980 -0.568706
O2    O     O_R   0.601820 0.439160 0.500020 -0.567965
O3    O     O_R   0.601820 0.560840 0.500020 -0.559285
O4    O     O_R   0.398180 0.439160 0.499980 -0.568482
O5    O     O_R   0.500000 0.560840 0.389110 -0.543788
O6    O     O_R   0.500000 0.439160 0.610890 -0.550562
O7    O     O_R   0.500000 0.560840 0.610890 -0.553278
O8    O     O_R   0.500000 0.439160 0.389110 -0.587361
Zn1   Zn    Zn3+2 0.500000 0.581210 0.500000 1.123027
Zn2   Zn    Zn3+2 0.500000 0.418790 0.500000 1.092366
O9    O     O_3   0.499311 0.632935 0.734217 -0.542200
C53   C     C_3   0.429643 0.656053 0.746092 0.086178
H13   H     H_    0.423010 0.673763 0.806396 0.131711
H14   H     H_    0.390350 0.612232 0.732379 0.143950
C54   C     C_3   0.414334 0.720060 0.694099 -0.656934
H15   H     H_    0.415903 0.702576 0.633440 0.250223
H16   H     H_    0.361097 0.741174 0.706104 0.216169
H17   H     H_    0.453935 0.764086 0.703882 0.244598
O10   O     O_3   0.606184 0.416075 0.285307 -0.589737
C55   C     C_3   0.590075 0.341520 0.276621 0.085871
H18   H     H_    0.605354 0.322080 0.218976 0.137560
H19   H     H_    0.532872 0.330203 0.285378 0.174192
C56   C     C_3   0.631278 0.299055 0.336171 -0.735930
H20   H     H_    0.617704 0.317846 0.394417 0.263739
H21   H     H_    0.618132 0.240358 0.331117 0.216970
H22   H     H_    0.688698 0.307120 0.327472 0.248655
O11   O     O_3   0.417508 0.588802 0.258383 -0.547962
C57   C     C_3   0.350994 0.554900 0.247826 0.088066
H23   H     H_    0.350523 0.498949 0.271819 0.175644
H24   H     H_    0.336453 0.552486 0.186053 0.128848
C58   C     C_3   0.295479 0.598477 0.288949 -0.703693
H25   H     H_    0.294018 0.654540 0.265970 0.262748
H26   H     H_    0.242990 0.572332 0.280419 0.174794
H27   H     H_    0.307562 0.600720 0.351087 0.286208
O12   O     O_3   0.505035 0.368286 0.735285 -0.528171
C59   C     C_3   0.438323 0.337581 0.751798 0.089000
H28   H     H_    0.395174 0.377064 0.741804 0.115224
H29   H     H_    0.436836 0.318676 0.812117 0.135647
C60   C     C_3   0.424583 0.272577 0.699873 -0.707421
H30   H     H_    0.467762 0.232920 0.706021 0.260001
H31   H     H_    0.374041 0.245712 0.715363 0.205249
H32   H     H_    0.421016 0.290615 0.639508 0.241003
F1    F     F_    0.732282 0.423329 0.588851 -0.597954
F2    F     F_    0.270706 0.588465 0.578531 -0.659530
F3    F     F_    0.306954 0.410479 0.382644 -0.610653
F4    F     F_    0.687736 0.576914 0.373045 -0.631463
O13   O     O_3   0.926645 0.629240 0.421638 -0.581644
C61   C     C_3   0.923982 0.656015 0.497185 0.118213
H33   H     H_    0.977465 0.672894 0.517604 0.179868
H34   H     H_    0.901795 0.614756 0.537098 0.131980
C62   C     C_3   0.876650 0.721813 0.498846 -0.710197
H35   H     H_    0.822589 0.706198 0.479616 0.270319
H36   H     H_    0.874282 0.743635 0.557924 0.212204
H37   H     H_    0.897732 0.764678 0.460528 0.265092
O14   O     O_3   0.071075 0.368267 0.436712 -0.576718
C63   C     C_3   0.075735 0.350126 0.514943 0.127880
H38   H     H_    0.022809 0.335571 0.537502 0.180195
H39   H     H_    0.098786 0.395581 0.549559 0.123774
C64   C     C_3   0.123329 0.285033 0.524215 -0.733603
H40   H     H_    0.176854 0.298486 0.502961 0.269285
H41   H     H_    0.127254 0.269961 0.585492 0.203773
H42   H     H_    0.101433 0.238142 0.491397 0.270000
O15   O     O_3   0.071572 0.630407 0.412434 -0.581555
C65   C     C_3   0.088469 0.642620 0.335192 0.134191
H43   H     H_    0.039712 0.651812 0.300831 0.163515
H44   H     H_    0.117527 0.596159 0.310449 0.121771
C66   C     C_3   0.135446 0.709818 0.329856 -0.758399
H45   H     H_    0.184493 0.701946 0.363808 0.270529
H46   H     H_    0.149570 0.719787 0.269337 0.200815
H47   H     H_    0.107442 0.757763 0.352208 0.270345
O16   O     O_3   0.926401 0.365998 0.427345 -0.580666
C67   C     C_3   0.903704 0.347501 0.352721 0.133389
H48   H     H_    0.949785 0.338590 0.315124 0.155985
H49   H     H_    0.869908 0.390399 0.327464 0.137560
C68   C     C_3   0.860341 0.277648 0.355774 -0.746289
H50   H     H_    0.813922 0.285177 0.392920 0.263936
H51   H     H_    0.841740 0.262631 0.297424 0.201068
H52   H     H_    0.892882 0.233065 0.379045 0.270352
F5    F     F_    0.590345 0.689756 0.592976 -0.599177
F6    F     F_    0.412127 0.309062 0.404383 -0.586428
F7    F     F_    0.409880 0.688130 0.406824 -0.616446
F8    F     F_    0.589388 0.312998 0.594106 -0.558543
F9    F     F_    0.374864 0.924958 0.515532 -0.596149
F10   F     F_    0.626171 0.075238 0.486596 -0.595378
F11   F     F_    0.625950 0.927980 0.486890 -0.589158
F12   F     F_    0.375121 0.072213 0.514930 -0.596759

loop_
_geom_bond_atom_site_label_1
_geom_bond_atom_site_label_2
_ccdc_geom_bond_type
C33   H3    S    
C15   F7    S    
C34   H4    S    
O11   C57   S    
O7    Zn1   S    
C14   C18   A    
C65   H44   S    
C24   C27   A    
C13   F5    S    
O6    Zn2   S    
C54   H17   S    
C54   H15   S    
C3    C49   A    
C13   N1    A    
O9    C53   S    
C25   C28   A    
C15   C19   A    
C60   H31   S    
C26   C27   A    
O12   C59   S    
O8    Zn2   S    
C33   C42   A    
C32   C36   A    
C19   C21   A    
O15   C65   S    
C37   C40   A    
C2    O2    A    
C68   H51   S    
C38   C39   A    
C59   H29   S    
C53   H14   S    
C8    O14   S    
C15   N1    A    
C49   H5    S    
C59   C60   S    
C23   C26   A    
C3    C12   S    
C52   H8    S    
C17   H9    S    
C19   H11   S    
C64   H42   S    
O2    Zn2   S    
C10   O16   S    
C56   H21   S    
C2    O3    A    
C6    C46   A    
C45   F1    S    
C23   F9    S    
C5    C48   A    
C34   C38   A    
C41   C43   S    
C57   H23   S    
C34   C41   A    
C42   C44   S    
C32   H2    S    
C58   H26   S    
C58   H25   S    
C7    C12   A    
C60   H32   S    
C6    C47   A    
C4    C51   A    
C1    C6    S    
C50   H6    S    
C36   C40   A    
C24   C25   A    
C62   H37   S    
C30   O7    A    
C55   H18   S    
C18   H10   S    
C47   C51   A    
C29   O8    A    
C57   C58   S    
O10   C55   S    
C5    C45   A    
C55   C56   S    
C33   C37   A    
C4    C50   A    
C56   H22   S    
C20   H12   S    
C35   C39   A    
C43   C44   T    
C66   H47   S    
C61   H34   S    
C45   C49   A    
C16   C20   A    
N2    Zn2   S    
C14   N2    A    
C37   O11   S    
C23   C28   A    
C31   H1    S    
C4    C11   S    
C57   H24   S    
C9    C11   A    
O14   C63   S    
C16   N2    A    
C10   C12   A    
C48   F4    S    
C21   C28   S    
C20   C22   A    
C22   C27   S    
C46   F2    S    
O4    Zn2   S    
C66   H45   S    
C31   C35   A    
C68   H52   S    
C2    C5    S    
C51   H7    S    
C63   H39   S    
C58   H27   S    
C66   H46   S    
O13   C61   S    
O16   C67   S    
C7    C9    A    
C14   F6    S    
C24   F10   S    
C31   C41   A    
C18   C22   A    
C67   C68   S    
C54   H16   S    
C30   O6    A    
C3    C52   A    
C61   H33   S    
C67   H49   S    
C9    O15   S    
C36   O10   S    
C38   O12   S    
C60   H30   S    
C46   C50   A    
C1    O4    A    
N1    Zn1   S    
C16   F8    S    
C25   F11   S    
C7    O13   S    
C63   C64   S    
C62   H36   S    
C65   H43   S    
C56   H20   S    
C62   H35   S    
O5    Zn1   S    
C53   H13   S    
C53   C54   S    
C64   H40   S    
C8    C11   A    
C47   F3    S    
C29   C40   S    
C26   F12   S    
C1    O1    A    
C35   O9    S    
C30   C39   S    
O3    Zn1   S    
C55   H19   S    
C59   H28   S    
C17   C21   A    
C61   C62   S    
C67   H48   S    
C13   C17   A    
C65   C66   S    
C48   C52   A    
O1    Zn1   S    
C8    C10   A    
C64   H41   S    
C32   C42   A    
C63   H38   S    
C68   H50   S    
C29   O5    A    
