data_mof_unit_49023.cif
_audit_creation_date              2012-12-11T14:42:06-0500
_audit_creation_method            fapswitch 2.2
_symmetry_space_group_name_H-M    P1
_symmetry_Int_Tables_number       1
_space_group_crystal_system       triclinic
_cell_length_a                    19.021454
_cell_length_b                    10.920602
_cell_length_c                    18.867638
_cell_angle_alpha                 89.986427
_cell_angle_beta                  90.236542
_cell_angle_gamma                 90.077061
_cell_volume                      3919.25680054

loop_
_atom_site_label
_atom_site_type_symbol
_atom_type_description
_atom_site_fract_x
_atom_site_fract_y
_atom_site_fract_z
_atom_type_partial_charge
C1    C     C_R   0.727266 0.955405 0.854019 0.532274
C2    C     C_R   0.273013 0.956023 0.145744 0.527034
C3    C     C_R   0.227240 0.455443 0.854043 0.532055
C4    C     C_R   0.772984 0.455968 0.145769 0.527151
C5    C     C_R   0.694306 0.460592 0.037494 0.274666
C6    C     C_R   0.305468 0.462891 0.962589 0.272986
C7    C     C_R   0.194287 0.960295 0.037506 0.274634
C8    C     C_R   0.805437 0.963156 0.962596 0.272966
C9    C     C_R   0.756661 0.422035 0.072164 -0.104375
C10   C     C_R   0.244362 0.419769 0.927256 -0.111823
C11   C     C_R   0.256783 0.922274 0.072096 -0.104080
C12   C     C_R   0.744483 0.919580 0.927183 -0.112013
C13   C     C_R   0.813338 0.380880 0.031719 -0.093997
C14   C     C_R   0.188808 0.372429 0.967065 -0.079370
C15   C     C_R   0.313575 0.881815 0.031571 -0.094181
C16   C     C_R   0.689067 0.871613 0.966908 -0.078948
C17   C     C_R   0.812820 0.389525 0.958994 0.204224
C18   C     C_R   0.188019 0.382555 0.039735 0.213227
C19   C     C_R   0.312926 0.890343 0.958839 0.203988
C20   C     C_R   0.688160 0.881731 0.039570 0.213784
C21   C     C_R   0.749771 0.419692 0.923398 -0.072652
C22   C     C_R   0.249880 0.418109 0.076141 -0.082239
C23   C     C_R   0.249739 0.919883 0.923341 -0.072353
C24   C     C_R   0.749862 0.917866 0.076075 -0.082346
C25   C     C_R   0.460280 0.266955 0.550745 0.215782
C26   C     C_R   0.455105 0.276217 0.477208 0.244699
C27   C     C_R   0.960283 0.766952 0.550743 0.215796
C28   C     C_R   0.955099 0.776212 0.477207 0.244701
C29   C     C_R   0.474785 0.174141 0.435022 0.036357
C30   C     C_R   0.491245 0.162672 0.580068 0.029678
C31   C     C_R   0.974781 0.674140 0.435021 0.036339
C32   C     C_R   0.991252 0.662673 0.580066 0.029684
C33   C     C_R   0.496847 0.064948 0.466111 -0.215262
C34   C     C_R   0.505401 0.059208 0.538539 -0.203614
C35   C     C_R   0.996855 0.564952 0.466108 -0.215263
C36   C     C_R   0.005414 0.559215 0.538535 -0.203614
C37   C     C_R   0.814418 0.406132 0.544640 -0.139209
C38   C     C_R   0.216218 0.306200 0.471978 -0.146938
C39   C     C_R   0.314418 0.906129 0.544640 -0.139209
C40   C     C_R   0.716226 0.806190 0.471980 -0.146934
C41   C     C_R   0.821007 0.416803 0.472282 -0.185166
C42   C     C_R   0.213379 0.323592 0.544126 -0.183680
C43   C     C_R   0.321006 0.916799 0.472282 -0.185172
C44   C     C_R   0.713387 0.823581 0.544129 -0.183667
C45   C     C_R   0.529955 0.176839 0.851069 0.561261
C46   C     C_R   0.470173 0.177424 0.149076 0.570912
C47   C     C_R   0.029918 0.676842 0.851044 0.561081
C48   C     C_R   0.970150 0.677415 0.149056 0.570765
C49   C     C_R   0.761491 0.434741 0.428986 0.069989
C50   C     C_R   0.246657 0.424675 0.574567 0.092418
C51   C     C_R   0.261491 0.934741 0.428986 0.069985
C52   C     C_R   0.746660 0.924670 0.574569 0.092434
C53   C     C_R   0.694584 0.446366 0.459363 0.210409
C54   C     C_R   0.286343 0.506435 0.531920 0.252767
C55   C     C_R   0.194585 0.946372 0.459364 0.210410
C56   C     C_R   0.786345 0.006432 0.531922 0.252827
C57   C     C_R   0.688298 0.433963 0.532969 -0.136290
C58   C     C_R   0.287624 0.488793 0.458493 -0.107968
C59   C     C_R   0.188300 0.933971 0.532970 -0.136291
C60   C     C_R   0.787627 0.988790 0.458495 -0.107868
C61   C     C_R   0.747982 0.410084 0.575122 0.010056
C62   C     C_R   0.252572 0.389473 0.428786 0.018276
C63   C     C_R   0.247983 0.910087 0.575123 0.010057
C64   C     C_R   0.752576 0.889468 0.428788 0.018290
C65   C     C_R   0.738700 0.366693 0.852322 0.525923
C66   C     C_R   0.261207 0.366616 0.147600 0.521635
C67   C     C_R   0.238693 0.866715 0.852310 0.526038
C68   C     C_R   0.761203 0.866576 0.147584 0.521567
C69   C     C_R   0.727553 0.957456 0.646673 0.570035
C70   C     C_R   0.273908 0.959228 0.354317 0.574482
C71   C     C_R   0.227552 0.457458 0.646672 0.570085
C72   C     C_R   0.773909 0.459230 0.354317 0.574455
C73   C     C_R   0.527167 0.175186 0.646909 0.575626
C74   C     C_R   0.462429 0.177934 0.359531 0.577311
C75   C     C_R   0.027167 0.675186 0.646909 0.575613
C76   C     C_R   0.962422 0.677934 0.359533 0.577305
C77   C     C_R   0.739004 0.362603 0.646334 0.548284
C78   C     C_R   0.261259 0.358569 0.354863 0.543831
C79   C     C_R   0.239004 0.862604 0.646334 0.548294
C80   C     C_R   0.761259 0.858568 0.354864 0.543850
C81   C     C_2   0.498039 0.164245 0.921586 -0.133983
C82   C     C_2   0.501557 0.167525 0.078328 -0.089771
C83   C     C_2   0.997920 0.664291 0.921525 -0.134588
C84   C     C_2   0.001453 0.667453 0.078266 -0.089905
C85   C     C_2   0.496743 0.063298 0.040019 0.254470
C86   C     C_2   0.508958 0.063042 0.962317 0.206193
C87   C     C_2   0.996444 0.563256 0.039930 0.255134
C88   C     C_2   0.008585 0.562945 0.962205 0.205872
C89   C     C_R   0.692045 0.464659 0.963314 0.247223
C90   C     C_R   0.307012 0.466841 0.036802 0.247898
C91   C     C_R   0.191943 0.964385 0.963333 0.247230
C92   C     C_R   0.806901 0.967054 0.036811 0.247846
Cr1   Cr    Cr6+3 0.769270 0.163730 0.750710 1.105555
Cr2   Cr    Cr6+3 0.230730 0.163730 0.249290 1.095738
Cr3   Cr    Cr6+3 0.269270 0.663730 0.750710 1.105645
Cr4   Cr    Cr6+3 0.730730 0.663730 0.249290 1.095640
Cr5   Cr    Cr6+3 0.612620 0.009790 0.748780 1.033152
Cr6   Cr    Cr6+3 0.387380 0.009790 0.251220 1.060801
Cr7   Cr    Cr6+3 0.112620 0.509790 0.748780 1.033060
Cr8   Cr    Cr6+3 0.887380 0.509790 0.251220 1.060937
Cr9   Cr    Cr6+3 0.614160 0.322500 0.747710 1.056919
Cr10  Cr    Cr6+3 0.385840 0.322500 0.252290 1.087161
Cr11  Cr    Cr6+3 0.114160 0.822500 0.747710 1.056760
Cr12  Cr    Cr6+3 0.885840 0.822500 0.252290 1.087329
H1    H     H_    0.873416 0.411859 0.450321 0.146314
H2    H     H_    0.183203 0.259894 0.575933 0.134176
H3    H     H_    0.373414 0.911849 0.450319 0.146316
H4    H     H_    0.683214 0.759879 0.575936 0.134171
H5    H     H_    0.636453 0.435897 0.556527 0.121132
H6    H     H_    0.316835 0.550868 0.424755 0.119242
H7    H     H_    0.136457 0.935913 0.556530 0.121125
H8    H     H_    0.816834 0.050870 0.424756 0.119237
H9    H     H_    0.861350 0.350190 0.056675 0.217006
H10   H     H_    0.142147 0.336461 0.941605 0.242930
H11   H     H_    0.361718 0.851670 0.056468 0.217027
H12   H     H_    0.642543 0.835256 0.941379 0.242568
O1    O     O_R   0.784320 0.290430 0.830510 -0.468062
O2    O     O_R   0.215680 0.290430 0.169490 -0.467467
O3    O     O_R   0.284320 0.790430 0.830510 -0.468021
O4    O     O_R   0.715680 0.790430 0.169490 -0.467562
O5    O     O_R   0.554640 0.080370 0.673500 -0.524571
O6    O     O_R   0.445360 0.080370 0.326500 -0.530141
O7    O     O_R   0.054640 0.580370 0.673500 -0.524580
O8    O     O_R   0.945360 0.580370 0.326500 -0.530161
O9    O     O_R   0.543920 0.282180 0.666790 -0.488374
O10   O     O_R   0.456080 0.282180 0.333210 -0.439483
O11   O     O_R   0.043920 0.782180 0.666790 -0.488404
O12   O     O_R   0.956080 0.782180 0.333210 -0.439494
O13   O     O_R   0.679040 0.374160 0.674430 -0.522728
O14   O     O_R   0.320960 0.374160 0.325570 -0.477108
O15   O     O_R   0.179040 0.874160 0.674430 -0.522725
O16   O     O_R   0.820960 0.874160 0.325570 -0.477084
O17   O     O_3   0.665350 0.165340 0.749070 -0.267305
O18   O     O_3   0.334650 0.165340 0.250930 -0.285949
O19   O     O_3   0.165350 0.665340 0.749070 -0.267299
O20   O     O_3   0.834650 0.665340 0.250930 -0.285954
O21   O     O_R   0.762640 0.040960 0.825200 -0.476272
O22   O     O_R   0.237360 0.040960 0.174800 -0.473708
O23   O     O_R   0.262640 0.540960 0.825200 -0.476254
O24   O     O_R   0.737360 0.540960 0.174800 -0.473725
O25   O     O_R   0.667400 0.923970 0.829950 -0.504305
O26   O     O_R   0.332600 0.923970 0.170050 -0.500253
O27   O     O_R   0.167400 0.423970 0.829950 -0.504494
O28   O     O_R   0.832600 0.423970 0.170050 -0.500039
O29   O     O_R   0.553960 0.081340 0.821780 -0.485406
O30   O     O_R   0.446040 0.081340 0.178220 -0.433645
O31   O     O_R   0.053960 0.581340 0.821780 -0.485584
O32   O     O_R   0.946040 0.581340 0.178220 -0.433530
O33   O     O_R   0.543180 0.283240 0.826740 -0.474953
O34   O     O_R   0.456820 0.283240 0.173260 -0.493082
O35   O     O_R   0.043180 0.783240 0.826740 -0.474895
O36   O     O_R   0.956820 0.783240 0.173260 -0.493022
O37   O     O_R   0.678360 0.375140 0.822710 -0.494071
O38   O     O_R   0.321640 0.375140 0.177290 -0.494863
O39   O     O_R   0.178360 0.875140 0.822710 -0.494198
O40   O     O_R   0.821640 0.875140 0.177290 -0.494761
O41   O     O_R   0.785050 0.289380 0.670560 -0.482087
O42   O     O_R   0.214950 0.289380 0.329440 -0.523448
O43   O     O_R   0.285050 0.789380 0.670560 -0.482065
O44   O     O_R   0.714950 0.789380 0.329440 -0.523448
O45   O     O_R   0.763320 0.039990 0.676930 -0.430803
O46   O     O_R   0.236680 0.039990 0.323070 -0.453165
O47   O     O_R   0.263320 0.539990 0.676930 -0.430763
O48   O     O_R   0.736680 0.539990 0.323070 -0.453202
O49   O     O_R   0.668130 0.922920 0.670000 -0.546041
O50   O     O_R   0.331870 0.922920 0.330000 -0.544084
O51   O     O_R   0.168130 0.422920 0.670000 -0.546003
O52   O     O_R   0.831870 0.422920 0.330000 -0.544105
O53   O     O_3   0.481762 0.954241 0.074328 -0.643396
H13   H     H_    0.480510 0.886479 0.039539 0.400210
O54   O     O_3   0.532794 0.954542 0.933815 -0.657108
H14   H     H_    0.501978 0.934128 0.893044 0.357437
O55   O     O_3   0.981298 0.454258 0.074232 -0.642509
H15   H     H_    0.979998 0.386476 0.039463 0.400474
O56   O     O_3   0.032035 0.454226 0.933634 -0.657143
H16   H     H_    0.001368 0.434452 0.892651 0.356877
O57   O     O_3   0.636583 0.465982 0.416537 -0.683782
H17   H     H_    0.594005 0.471164 0.446557 0.323998
O58   O     O_3   0.321777 0.603860 0.562227 -0.665900
H18   H     H_    0.348153 0.648453 0.525037 0.306505
O59   O     O_3   0.136585 0.965988 0.416538 -0.683784
H19   H     H_    0.094007 0.971169 0.446559 0.323961
O60   O     O_3   0.821775 0.103861 0.562228 -0.665911
H20   H     H_    0.848152 0.148452 0.525038 0.306501
H21   H     H_    0.519708 0.251875 0.053991 0.101783
H22   H     H_    0.474851 0.245966 0.944341 0.104672
H23   H     H_    0.019704 0.751748 0.053943 0.101901
H24   H     H_    0.974922 0.746148 0.944318 0.104736
O61   O     O_3   0.631988 0.510321 0.931868 -0.593832
H25   H     H_    0.646042 0.552315 0.887549 0.322391
O62   O     O_3   0.365736 0.516661 0.068843 -0.595073
H26   H     H_    0.350591 0.556102 0.113540 0.324954
O63   O     O_3   0.131723 0.009540 0.931964 -0.593722
H27   H     H_    0.145630 0.051834 0.887694 0.322675
O64   O     O_3   0.865449 0.017344 0.068928 -0.595127
H28   H     H_    0.850165 0.056490 0.113664 0.324744
O65   O     O_3   0.634982 0.496180 0.073944 -0.581393
H29   H     H_    0.634476 0.453058 0.120146 0.323539
O66   O     O_3   0.364196 0.503201 0.926713 -0.582194
H30   H     H_    0.366369 0.459623 0.880720 0.322446
O67   O     O_3   0.134896 0.995314 0.074028 -0.581934
H31   H     H_    0.134598 0.952260 0.120253 0.323473
O68   O     O_3   0.864080 0.004015 0.926793 -0.581607
H32   H     H_    0.866453 0.960393 0.880825 0.322493
O69   O     O_3   0.874801 0.364874 0.924280 -0.649579
H33   H     H_    0.875383 0.414260 0.880158 0.317510
O70   O     O_3   0.125991 0.354074 0.073557 -0.592631
H34   H     H_    0.122968 0.405680 0.116693 0.345943
O71   O     O_3   0.374917 0.866174 0.924026 -0.650987
H35   H     H_    0.375242 0.915298 0.879802 0.317707
O72   O     O_3   0.626162 0.852718 0.073288 -0.592132
H36   H     H_    0.622848 0.904548 0.116313 0.346367
O73   O     O_3   0.437209 0.359360 0.594670 -0.676488
H37   H     H_    0.466560 0.432323 0.584431 0.320754
O74   O     O_3   0.429788 0.381506 0.445307 -0.676780
H38   H     H_    0.428082 0.449981 0.479328 0.324498
O75   O     O_3   0.937190 0.859334 0.594671 -0.676477
H39   H     H_    0.966526 0.932315 0.584439 0.320738
O76   O     O_3   0.929761 0.881486 0.445309 -0.676742
H40   H     H_    0.928149 0.950010 0.479304 0.324417
H41   H     H_    0.509766 0.985681 0.434192 0.144038
H42   H     H_    0.528434 0.977250 0.561129 0.155508
H43   H     H_    0.009777 0.485689 0.434188 0.144038
H44   H     H_    0.028453 0.477261 0.561124 0.155508
H45   H     H_    0.860965 0.388341 0.576313 0.148341
H46   H     H_    0.190579 0.225902 0.450150 0.171079
H47   H     H_    0.360965 0.888334 0.576312 0.148354
H48   H     H_    0.690591 0.725888 0.450154 0.171074

loop_
_geom_bond_atom_site_label_1
_geom_bond_atom_site_label_2
_ccdc_geom_bond_type
Cr4   O24   S    
C58   C62   A    
C76   O12   A    
O54   H14   S    
C49   C53   A    
C40   H48   S    
C80   O16   A    
C23   C91   A    
C55   C59   A    
Cr9   O13   S    
C64   C80   S    
O67   H31   S    
C14   C18   A    
C19   C23   A    
C35   C36   A    
C84   C87   D    
Cr5   O17   S    
C87   C88   S    
C92   O64   S    
C32   C75   S    
Cr5   O5    S    
Cr4   O20   S    
C21   C89   A    
O55   H15   S    
C7    C11   A    
O63   H27   S    
C5    C9    A    
C50   C54   A    
C88   O56   S    
C71   O47   A    
Cr3   O43   S    
C32   C36   A    
Cr7   O27   S    
C69   O45   A    
C38   C42   A    
Cr1   O17   S    
C70   O50   A    
Cr1   O21   S    
C79   O43   A    
C6    O66   S    
C91   O63   S    
Cr5   O49   S    
C80   O44   A    
C29   C33   A    
C54   O58   S    
C67   O39   A    
O53   H13   S    
C20   O72   S    
C23   C67   S    
Cr11  O19   S    
C22   C66   S    
C9    C13   A    
C52   C69   S    
Cr9   O33   S    
C46   C82   S    
C11   C15   A    
C78   O42   A    
C57   H5    S    
C12   C16   A    
C61   C77   S    
C49   C72   S    
C59   H7    S    
Cr10  O10   S    
C26   C29   A    
C8    C92   A    
C51   C70   S    
C47   C83   S    
C17   C21   A    
C18   C22   A    
Cr11  O11   S    
C36   H44   S    
C39   H47   S    
C81   C86   D    
Cr2   O2    S    
C8    C12   A    
C38   H46   S    
C21   C65   S    
C44   C52   A    
C37   H45   S    
C83   C88   D    
C79   O15   A    
O66   H30   S    
Cr2   O42   S    
C19   O71   S    
Cr6   O26   S    
C37   C41   A    
C72   O52   A    
O61   H25   S    
C1    C12   S    
Cr1   O1    S    
C2    C11   S    
C70   O46   A    
C41   C49   A    
C62   C78   S    
C60   C64   A    
O71   H35   S    
Cr7   O51   S    
C90   O62   S    
C44   H4    S    
C22   C90   A    
C87   O55   S    
C47   O31   A    
C60   H8    S    
C43   H3    S    
C28   C31   A    
C30   C34   A    
C82   H21   S    
C52   C56   A    
O70   H34   S    
C76   O8    A    
C20   C24   A    
Cr8   O52   S    
C3    O27   A    
C45   O33   A    
Cr8   O28   S    
C66   O2    A    
O76   H40   S    
C66   O38   A    
C30   C73   S    
C53   C57   A    
C39   C43   A    
C29   C74   S    
Cr6   O30   S    
C51   C55   A    
Cr3   O3    S    
C25   C26   A    
C14   H10   S    
C85   O53   S    
Cr4   O48   S    
C18   O70   S    
Cr8   O8    S    
C2    O22   A    
O59   H19   S    
C15   C19   A    
O60   H20   S    
Cr10  O18   S    
O72   H36   S    
C6    C10   A    
C45   O29   A    
C35   H43   S    
C4    O24   A    
Cr9   O9    S    
O56   H16   S    
Cr12  O12   S    
O73   H37   S    
C16   C20   A    
C7    C91   A    
Cr9   O17   S    
Cr3   O19   S    
C33   C34   A    
C55   O59   S    
Cr7   O19   S    
C74   O10   A    
C50   C71   S    
C77   O13   A    
Cr12  O40   S    
Cr1   O41   S    
C42   H2    S    
C2    O26   A    
Cr5   O25   S    
C85   C86   S    
Cr6   O50   S    
C41   H1    S    
C42   C50   A    
O69   H33   S    
Cr11  O39   S    
C46   O34   A    
Cr10  O34   S    
Cr1   O45   S    
C27   O75   S    
C28   O76   S    
C73   O5    A    
C48   O36   A    
C10   C14   A    
Cr2   O22   S    
C24   C92   A    
C75   O7    A    
C83   H24   S    
C3    O23   A    
Cr9   O37   S    
C81   H22   S    
C1    O21   A    
Cr7   O7    S    
C54   C58   A    
C65   O37   A    
C25   C30   A    
Cr6   O6    S    
Cr2   O46   S    
C65   O1    A    
Cr12  O20   S    
Cr4   O44   S    
C27   C32   A    
C58   H6    S    
Cr5   O29   S    
Cr4   O4    S    
C8    O68   S    
C45   C81   S    
Cr10  O14   S    
C47   O35   A    
C68   O40   A    
C53   O57   S    
C4    O28   A    
C37   C61   A    
C57   C61   A    
C72   O48   A    
C63   C79   S    
C56   O60   S    
Cr11  O35   S    
O58   H18   S    
O64   H28   S    
C82   C85   D    
C39   C63   A    
Cr6   O18   S    
Cr3   O23   S    
C40   C64   A    
C13   C17   A    
Cr3   O47   S    
C16   H12   S    
Cr12  O36   S    
C25   O73   S    
O75   H39   S    
Cr7   O31   S    
C7    O67   S    
C3    C10   S    
C6    C90   A    
Cr10  O38   S    
C74   O6    A    
C5    O65   S    
C43   C51   A    
C31   C76   S    
C46   O30   A    
C67   O3    A    
Cr8   O32   S    
C73   O9    A    
C48   O32   A    
C31   C35   A    
C17   O69   S    
Cr2   O18   S    
C59   C63   A    
C15   H11   S    
O74   H38   S    
C78   O14   A    
O65   H29   S    
O62   H26   S    
C69   O49   A    
C1    O25   A    
C24   C68   S    
Cr8   O20   S    
C86   O54   S    
C48   C84   S    
C13   H9    S    
C40   C44   A    
C56   C60   A    
C68   O4    A    
O57   H17   S    
Cr12  O16   S    
C27   C28   A    
C89   O61   S    
C26   O74   S    
C84   H23   S    
C71   O51   A    
O68   H32   S    
C4    C9    S    
Cr11  O15   S    
C5    C89   A    
C34   H42   S    
C77   O41   A    
C38   C62   A    
C75   O11   A    
C33   H41   S    
