data_mof_unit_11543.cif
_audit_creation_date              2012-10-26T19:22:37-0400
_audit_creation_method            fapswitch 2.2
_symmetry_space_group_name_H-M    P1
_symmetry_Int_Tables_number       1
_space_group_crystal_system       triclinic
_cell_length_a                    11.829991
_cell_length_b                    12.961146
_cell_length_c                    13.867541
_cell_angle_alpha                 87.337505
_cell_angle_beta                  92.041239
_cell_angle_gamma                 100.513781
_cell_volume                      2087.56036303

loop_
_atom_site_label
_atom_site_type_symbol
_atom_type_description
_atom_site_fract_x
_atom_site_fract_y
_atom_site_fract_z
_atom_type_partial_charge
C1    C     C_R   0.478490 0.299834 0.501482 0.571251
C2    C     C_R   0.846670 0.452704 0.535936 0.395615
C3    C     C_R   0.030582 0.536077 0.464861 -0.068714
C4    C     C_R   0.967566 0.455502 0.523273 -0.104153
C5    C     C_R   0.519151 0.500338 0.681554 0.567925
C6    C     C_R   0.480889 0.499686 0.318444 0.554399
C7    C     C_1   0.469635 0.505518 0.215954 0.044990
C8    C     C_1   0.531552 0.499847 0.783980 0.068624
C9    C     C_2   0.461015 0.523063 0.025565 0.027923
C10   C     C_2   0.548866 0.499983 0.974288 0.027544
C11   C     C_1   0.540231 0.499740 0.870432 0.035143
C12   C     C_R   0.521606 0.700443 0.499674 0.549709
C13   C     C_1   0.464080 0.512736 0.129431 0.025024
C14   C     C_R   0.533465 0.814326 0.496769 -0.028323
C15   C     C_R   0.469310 0.187178 0.512999 -0.017135
C16   C     C_R   0.454605 0.038125 0.626702 0.073061
C17   C     C_R   0.592842 0.976477 0.403708 0.058609
C18   C     C_R   0.445149 0.142117 0.604591 -0.109154
C19   C     C_R   0.591215 0.869733 0.419627 -0.133636
C20   C     C_R   0.506956 0.130140 0.440904 0.057763
C21   C     C_R   0.481164 0.866463 0.565042 0.062619
C22   C     C_2   0.655392 0.469711 0.019738 0.574982
C23   C     C_R   0.529854 0.028499 0.465103 -0.025400
C24   C     C_2   0.356862 0.557652 0.980015 0.587143
C25   C     C_2   0.408839 0.803411 0.640162 0.636779
C26   C     C_2   0.504024 0.170176 0.338434 0.601701
C27   C     C_2   0.447537 0.003761 0.730227 0.605799
C28   C     C_2   0.671771 0.032305 0.329399 0.625657
C29   C     C_3   0.815600 0.427631 0.697043 -0.026729
C30   C     C_3   0.251749 0.645164 0.337348 0.005904
C31   C     C_2   0.795418 0.678028 0.373225 0.650029
C32   C     C_2   0.204850 0.323744 0.629094 0.669935
C33   C     C_3   0.926995 0.216072 0.544220 -0.021354
C34   C     C_R   0.488360 0.976947 0.553785 -0.019651
C35   C     C_3   0.999117 0.621607 0.247231 -0.110300
C36   C     C_R   0.027098 0.380316 0.568004 0.190540
C37   C     C_R   0.967570 0.600727 0.408135 0.242322
C38   C     C_R   0.148625 0.397030 0.568319 0.161123
C39   C     C_R   0.848571 0.594157 0.421053 0.157263
C40   C     C_R   0.154209 0.550281 0.465368 0.409787
Cu1   Cu    Cu3+1 0.615220 0.507680 0.492970 1.075963
Cu2   Cu    Cu3+1 0.384780 0.492320 0.507030 1.053593
H1    H     H_    0.632304 0.828426 0.369217 0.171794
H2    H     H_    0.813157 0.513133 0.697877 0.121238
H3    H     H_    0.901631 0.414592 0.723603 0.171594
H4    H     H_    0.223027 0.709883 0.293842 0.172116
H5    H     H_    0.221115 0.569839 0.301020 0.102917
H6    H     H_    0.346615 0.665761 0.335541 0.130573
H7    H     H_    0.705420 0.725807 0.258453 0.338723
H8    H     H_    0.284483 0.295541 0.755941 0.339470
H9    H     H_    0.998507 0.196198 0.502855 0.148007
H10   H     H_    0.862728 0.243940 0.493797 0.171544
H11   H     H_    0.883365 0.142835 0.581577 0.182578
H12   H     H_    0.424910 0.190690 0.660960 0.148660
H13   H     H_    0.907676 0.613480 0.223454 0.177093
H14   H     H_    0.025124 0.543175 0.248792 0.099572
H15   H     H_    0.050258 0.672154 0.191697 0.166321
H16   H     H_    0.763921 0.470466 0.135596 0.345369
H17   H     H_    0.283010 0.623699 0.865108 0.357875
H18   H     H_    0.254773 0.769818 0.703277 0.350961
H19   H     H_    0.550346 0.288930 0.240357 0.347476
H20   H     H_    0.517470 0.932632 0.843909 0.366761
H21   H     H_    0.788197 0.160816 0.291991 0.352512
H22   H     H_    0.751805 0.386469 0.749071 0.165848
N1    N     N_R   0.788370 0.519230 0.482390 -0.284716
N2    N     N_R   0.211630 0.480770 0.517610 -0.288975
O1    O     O_R   0.581500 0.354430 0.495010 -0.427554
O2    O     O_R   0.690596 0.496044 0.114188 -0.672486
O3    O     O_2   0.269103 0.548634 0.026194 -0.511187
O4    O     O_R   0.359087 0.603370 0.886560 -0.648110
O5    O     O_2   0.448028 0.739012 0.692319 -0.467102
O6    O     O_R   0.295460 0.817328 0.650188 -0.642167
O7    O     O_2   0.454263 0.112713 0.276751 -0.478229
O8    O     O_R   0.558049 0.272186 0.312176 -0.658069
O9    O     O_2   0.371527 0.025168 0.779085 -0.465735
O10   O     O_R   0.530970 0.951165 0.772910 -0.660504
O11   O     O_2   0.682883 0.990355 0.253938 -0.473077
O12   O     O_R   0.418500 0.645570 0.504990 -0.453381
O13   O     O_R   0.736934 0.131204 0.347464 -0.700553
O14   O     O_3   0.787310 0.385743 0.604984 -0.507056
O15   O     O_3   0.215519 0.646828 0.433326 -0.480212
O16   O     O_2   0.818717 0.766442 0.404082 -0.482938
O17   O     O_R   0.730212 0.660105 0.287709 -0.681943
O18   O     O_2   0.202024 0.234289 0.603479 -0.500255
O19   O     O_R   0.250854 0.353313 0.719946 -0.659873
O20   O     O_3   0.968076 0.290494 0.614276 -0.535007
O21   O     O_3   0.020314 0.669718 0.337362 -0.527392
O22   O     O_R   0.386890 0.341450 0.506880 -0.499316
O23   O     O_R   0.613110 0.658550 0.493120 -0.494340
O24   O     O_R   0.611060 0.507430 0.631070 -0.509827
O25   O     O_R   0.388940 0.492570 0.368930 -0.543742
O26   O     O_R   0.416450 0.494450 0.642940 -0.441153
O27   O     O_R   0.583550 0.505550 0.357060 -0.428884
O28   O     O_2   0.714521 0.423368 0.972699 -0.509387

loop_
_geom_bond_atom_site_label_1
_geom_bond_atom_site_label_2
_ccdc_geom_bond_type
C15   C18   A    
Cu1   O23   S    
C4    C36   A    
C39   N1    A    
Cu1   Cu2   S    
C2    N1    A    
C24   O4    S    
Cu1   O1    S    
H21   O13   S    
C10   C22   S    
C33   H10   S    
C17   C23   A    
C31   O16   D    
C14   C21   A    
C30   H6    S    
H18   O6    S    
C6    O25   A    
C26   O7    D    
C31   O17   S    
Cu2   O25   S    
C28   O13   S    
C9    C13   S    
H8    O19   S    
C16   C34   A    
C35   O21   S    
Cu1   O27   S    
C38   N2    A    
C12   O12   A    
C25   O5    D    
C32   C38   S    
C9    C10   D    
C5    O24   A    
C6    O27   A    
C1    O22   A    
Cu1   O24   S    
C29   H22   S    
C40   N2    A    
C22   O28   D    
H20   O10   S    
C27   O9    D    
C14   C19   A    
C19   H1    S    
C24   O3    D    
C33   H11   S    
C15   C20   A    
C32   O18   D    
C35   H13   S    
C12   O23   A    
C17   C19   A    
Cu1   N1    S    
C21   C34   A    
C36   O20   S    
C29   H3    S    
C2    C4    A    
C33   O20   S    
C30   H5    S    
C20   C23   A    
C23   C34   A    
C25   O6    S    
C28   O11   D    
C22   O2    S    
C1    C15   S    
H16   O2    S    
C12   C14   S    
C3    C40   A    
Cu2   O12   S    
C29   H2    S    
Cu2   O22   S    
C27   O10   S    
C21   C25   S    
C35   H14   S    
C17   C28   S    
C40   O15   S    
C30   H4    S    
C37   O21   S    
C5    C8    S    
C9    C24   S    
C6    C7    S    
C1    O1    A    
H19   O8    S    
C33   H9    S    
C35   H15   S    
H7    O17   S    
C30   O15   S    
C36   C38   A    
C37   C39   A    
C29   O14   S    
C20   C26   S    
C16   C27   S    
C8    C11   T    
C32   O19   S    
C26   O8    S    
C31   C39   S    
Cu2   O26   S    
C5    O26   A    
C2    O14   S    
C10   C11   S    
C18   H12   S    
H17   O4    S    
C7    C13   T    
C3    C37   A    
C16   C18   A    
Cu2   N2    S    
C3    C4    A    
