data_mof_unit_13599.cif
_audit_creation_date              2012-12-10T19:45:39-0500
_audit_creation_method            fapswitch 2.2
_symmetry_space_group_name_H-M    P1
_symmetry_Int_Tables_number       1
_space_group_crystal_system       triclinic
_cell_length_a                    10.913572
_cell_length_b                    14.736872
_cell_length_c                    14.958435
_cell_angle_alpha                 63.88349
_cell_angle_beta                  103.833539
_cell_angle_gamma                 102.92294
_cell_volume                      2078.07989566

loop_
_atom_site_label
_atom_site_type_symbol
_atom_type_description
_atom_site_fract_x
_atom_site_fract_y
_atom_site_fract_z
_atom_type_partial_charge
C1    C     C_R   0.473839 0.120513 0.312329 0.793941
C2    C     C_R   0.518183 0.879035 0.687377 0.775654
C3    C     C_R   0.870859 0.998311 0.498535 -0.090784
C4    C     C_R   0.131130 0.999033 0.507966 -0.095934
C5    C     C_R   0.909555 0.940095 0.458589 0.042264
C6    C     C_R   0.093158 0.056808 0.549473 0.049960
C7    C     C_R   0.437954 0.188205 0.204966 -0.080363
C8    C     C_R   0.506520 0.808541 0.792852 -0.069500
C9    C     C_R   0.338566 0.210362 0.034262 -0.189672
C10   C     C_R   0.486617 0.781415 0.960630 -0.193970
C11   C     C_R   0.381536 0.147098 0.133691 -0.187002
C12   C     C_R   0.518585 0.845881 0.866053 -0.207383
C13   C     C_R   0.449141 0.293801 0.174896 -0.192759
C14   C     C_R   0.469587 0.703521 0.817951 -0.189505
C15   C     C_R   0.399779 0.358345 0.075972 0.107185
C16   C     C_R   0.435010 0.636722 0.912859 0.096655
C17   C     C_R   0.350678 0.316042 0.004215 0.112331
C18   C     C_R   0.446996 0.677249 0.984980 0.124217
C19   C     C_R   0.402768 0.464668 0.045194 0.009342
C20   C     C_R   0.394850 0.530079 0.940584 0.006006
C21   C     C_R   0.340257 0.486011 0.869872 0.145163
C22   C     C_R   0.403501 0.507564 0.113500 0.148503
C23   C     C_R   0.263548 0.998890 0.503659 0.795561
C24   C     C_R   0.737121 0.999994 0.498618 0.778990
C25   C     C_R   0.313730 0.379815 0.903511 -0.269595
C26   C     C_R   0.420100 0.613099 0.081172 -0.268975
C27   C     C_R   0.722633 0.293489 0.656513 -0.280811
C28   C     C_R   0.270569 0.708783 0.345366 -0.360588
C29   C     C_R   0.689593 0.209722 0.632444 0.359838
C30   C     C_R   0.312343 0.794633 0.366942 0.399101
C31   C     C_R   0.511736 0.282466 0.513922 -0.022954
C32   C     C_R   0.481515 0.714534 0.490026 -0.031313
C33   C     C_R   0.541604 0.369446 0.537988 -0.024813
C34   C     C_R   0.443952 0.625343 0.470628 -0.025607
C35   C     C_R   0.650466 0.372808 0.610410 0.093833
C36   C     C_R   0.335307 0.623931 0.397230 0.132125
C37   C     C_R   0.469308 0.453117 0.493226 0.087634
C38   C     C_R   0.510676 0.538775 0.520170 0.077929
C39   C     C_R   0.617965 0.535469 0.595241 -0.231192
C40   C     C_R   0.356545 0.453725 0.423680 -0.261434
C41   C     C_R   0.686484 0.454191 0.638940 -0.221338
C42   C     C_R   0.291644 0.538000 0.376001 -0.218774
C43   C     C_R   0.351902 0.135465 0.734147 0.110669
C44   C     C_R   0.660010 0.865233 0.268942 0.123834
C45   C     C_R   0.277201 0.077710 0.681800 -0.161403
C46   C     C_R   0.734565 0.922686 0.321488 -0.149269
C47   C     C_R   0.181102 0.119614 0.600722 0.066077
C48   C     C_R   0.822123 0.877775 0.408064 0.064336
C49   C     C_R   0.157092 0.218604 0.576534 -0.282434
C50   C     C_R   0.839044 0.775852 0.439313 -0.286050
C51   C     C_R   0.226003 0.274315 0.632737 0.188847
C52   C     C_R   0.770551 0.719183 0.384455 0.193286
C53   C     C_R   0.326139 0.233527 0.709904 0.213757
C54   C     C_R   0.678816 0.763182 0.300718 0.202808
C55   C     C_R   0.963194 0.054466 0.543869 -0.240804
C56   C     C_R   0.038755 0.941720 0.464254 -0.234544
Cu1   Cu    Cu3+1 0.466270 0.918260 0.475690 0.965785
Cu2   Cu    Cu3+1 0.533730 0.081740 0.524310 0.932921
N1    N     N_R   0.584450 0.204570 0.560790 -0.194609
N2    N     N_R   0.415550 0.795430 0.439210 -0.171709
O1    O     O_R   0.455540 0.022090 0.338120 -0.556687
O2    O     O_R   0.544460 0.977910 0.661880 -0.606414
O3    O     O_R   0.512510 0.160150 0.379180 -0.582798
O4    O     O_R   0.487490 0.839850 0.620820 -0.584785
O5    O     O_R   0.291160 0.930970 0.479480 -0.559535
O6    O     O_R   0.708840 0.069030 0.520520 -0.601869
O7    O     O_R   0.348130 0.069020 0.520540 -0.583614
O8    O     O_R   0.651870 0.930980 0.479460 -0.577128
N3    N     N_3   0.402017 0.292461 0.763282 -0.595195
H1    H     H_    0.495873 0.304351 0.751710 0.246851
H2    H     H_    0.401742 0.248605 0.840226 0.227712
N4    N     N_3   0.604434 0.702837 0.248876 -0.590922
H3    H     H_    0.508857 0.703050 0.249044 0.230505
H4    H     H_    0.621829 0.737828 0.174586 0.218509
H5    H     H_    0.296133 0.176414 0.980904 0.136333
H6    H     H_    0.494458 0.812986 0.015161 0.132161
N5    N     N_3   0.297186 0.547397 0.766083 -0.603832
H7    H     H_    0.198775 0.527550 0.750373 0.229859
H8    H     H_    0.340170 0.529457 0.721518 0.230831
N6    N     N_3   0.372891 0.445164 0.212343 -0.615616
H9    H     H_    0.289917 0.465751 0.217306 0.224232
H10   H     H_    0.447395 0.461510 0.264049 0.232135
H11   H     H_    0.769289 0.455303 0.695705 0.147538
H12   H     H_    0.206308 0.535904 0.321718 0.145884
H13   H     H_    0.562324 0.722455 0.544735 0.134210
H14   H     H_    0.431717 0.275055 0.458232 0.144588
N7    N     N_3   0.245733 0.881381 0.313396 -0.528413
H15   H     H_    0.247160 0.905951 0.236554 0.187658
H16   H     H_    0.150607 0.857456 0.323895 0.187597
N8    N     N_3   0.769688 0.131033 0.688086 -0.612906
H17   H     H_    0.737785 0.065294 0.676692 0.276257
H18   H     H_    0.859394 0.159719 0.666117 0.196404
H19   H     H_    0.805461 0.295567 0.713085 0.154609
H20   H     H_    0.187724 0.708709 0.288366 0.145299
H21   H     H_    0.652904 0.594873 0.621924 0.138137
H22   H     H_    0.315161 0.389353 0.405235 0.152093
N9    N     N_3   0.453800 0.094888 0.813232 -0.619138
H23   H     H_    0.522398 0.086052 0.780640 0.243255
H24   H     H_    0.418327 0.023590 0.864572 0.214845
N10   N     N_3   0.566292 0.909799 0.182791 -0.611487
H25   H     H_    0.600167 0.919877 0.118872 0.206889
H26   H     H_    0.557434 0.982488 0.174211 0.221148
H27   H     H_    0.294091 0.000265 0.704597 0.140741
H28   H     H_    0.724763 0.002389 0.295036 0.125974
H29   H     H_    0.081124 0.251006 0.515922 0.148248
H30   H     H_    0.909670 0.741971 0.504277 0.149449
N11   N     N_3   0.190917 0.369818 0.615443 -0.589507
H31   H     H_    0.269403 0.426035 0.597380 0.245366
H32   H     H_    0.118354 0.391596 0.553290 0.214629
N12   N     N_3   0.798757 0.619263 0.409318 -0.567764
H33   H     H_    0.715502 0.567756 0.423395 0.249999
H34   H     H_    0.864771 0.595651 0.475776 0.210543
H35   H     H_    0.933861 0.095965 0.577543 0.156524
H36   H     H_    0.067046 0.899057 0.431088 0.167407
H37   H     H_    0.266120 0.347473 0.849718 0.182178
H38   H     H_    0.413924 0.644572 0.132478 0.153325
H39   H     H_    0.473004 0.674631 0.763870 0.181242
H40   H     H_    0.500221 0.325126 0.228564 0.179055
H41   H     H_    0.552612 0.924891 0.850163 0.154623
H42   H     H_    0.370178 0.065899 0.154568 0.159305

loop_
_geom_bond_atom_site_label_1
_geom_bond_atom_site_label_2
_ccdc_geom_bond_type
Cu2   O2    S    
N7    H15   S    
C27   C29   A    
C5    C56   A    
C36   C42   A    
C19   C20   A    
C18   C26   A    
C6    C55   A    
C53   N3    S    
C13   H40   S    
Cu1   Cu2   S    
C39   C41   A    
N5    H7    S    
C7    C11   A    
Cu2   O6    S    
C16   C20   A    
C37   C40   A    
C25   H37   S    
C38   C39   A    
C31   N1    A    
C41   H11   S    
C28   H20   S    
C45   C47   A    
C23   O7    A    
N3    H2    S    
N12   H33   S    
C45   H27   S    
C3    C55   A    
C43   C53   A    
C29   N1    A    
C2    O4    A    
C49   C51   A    
C30   N2    A    
C50   C52   A    
N11   H31   S    
C31   C33   A    
C24   O6    A    
C40   C42   A    
C31   H14   S    
C1    C7    S    
C4    C56   A    
N11   H32   S    
C3    C24   S    
C10   H6    S    
C40   H22   S    
C51   N11   S    
C11   H42   S    
C1    O3    A    
C29   N8    S    
N9    H24   S    
C52   C54   A    
N9    H23   S    
N12   H34   S    
N5    H8    S    
C5    C48   S    
C46   C48   A    
C6    C47   S    
C19   C22   A    
C42   H12   S    
N4    H4    S    
C4    C23   S    
N6    H9    S    
Cu1   N2    S    
C49   H29   S    
C55   H35   S    
C27   C35   A    
Cu2   N1    S    
C46   H28   S    
C33   C37   A    
C51   C53   A    
C32   C34   A    
C15   C19   A    
C37   C38   A    
C12   H41   S    
C43   C45   A    
N8    H18   S    
C52   N12   S    
C8    C12   A    
C14   H39   S    
N10   H26   S    
C9    C11   A    
C39   H21   S    
C10   C12   A    
C9    C17   A    
C13   C15   A    
C14   C16   A    
C27   H19   S    
C4    C6    A    
C32   N2    A    
Cu1   O8    S    
Cu1   O4    S    
Cu2   O3    S    
C15   C17   A    
C21   C25   A    
C8    C14   A    
C34   C38   A    
C2    C8    S    
C43   N9    S    
Cu1   O5    S    
N4    H3    S    
C3    C5    A    
C1    O1    A    
Cu1   O1    S    
C47   C49   A    
C17   C25   A    
C23   O5    A    
N7    H16   S    
C22   N6    S    
C28   C30   A    
C44   N10   S    
N8    H17   S    
C10   C18   A    
C32   H13   S    
C48   C50   A    
N10   H25   S    
C33   C35   A    
N6    H10   S    
C34   C36   A    
N3    H1    S    
C35   C41   A    
C26   H38   S    
C24   O8    A    
C44   C54   A    
Cu2   O7    S    
C7    C13   A    
C54   N4    S    
C20   C21   A    
C28   C36   A    
C16   C18   A    
C22   C26   A    
C21   N5    S    
C50   H30   S    
C56   H36   S    
C9    H5    S    
C30   N7    S    
C44   C46   A    
C2    O2    A    
