data_mof_unit_13337.cif
_audit_creation_date              2012-12-10T17:18:56-0500
_audit_creation_method            fapswitch 2.2
_symmetry_space_group_name_H-M    P1
_symmetry_Int_Tables_number       1
_space_group_crystal_system       triclinic
_cell_length_a                    9.634616
_cell_length_b                    10.858046
_cell_length_c                    13.339035
_cell_angle_alpha                 93.834172
_cell_angle_beta                  73.023166
_cell_angle_gamma                 88.746643
_cell_volume                      1330.38785469

loop_
_atom_site_label
_atom_site_type_symbol
_atom_type_description
_atom_site_fract_x
_atom_site_fract_y
_atom_site_fract_z
_atom_type_partial_charge
C1    C     C_R   0.498390 0.737931 0.497370 0.777162
C2    C     C_R   0.449016 0.420890 0.969383 -0.108911
C3    C     C_R   0.493799 0.420339 0.858191 -0.097307
C4    C     C_R   0.554264 0.442406 0.023657 0.078325
C5    C     C_R   0.703108 0.442955 0.965778 0.066067
C6    C     C_R   0.746414 0.411787 0.857945 -0.286711
C7    C     C_R   0.643147 0.395329 0.805015 0.622776
C8    C     C_R   0.515925 0.471100 0.132627 -0.102401
C9    C     C_R   0.768326 0.490940 0.125649 -0.140986
C10   C     C_R   0.386692 0.441199 0.805739 -0.086076
C11   C     C_R   0.223624 0.896687 0.515563 -0.063282
C12   C     C_R   0.424689 0.482553 0.697436 0.815488
C13   C     C_R   0.093079 0.965445 0.557886 -0.107467
C14   C     C_R   0.092960 0.083357 0.604876 -0.165434
C15   C     C_R   0.224309 0.136880 0.600351 -0.171504
C16   C     C_R   0.358185 0.072207 0.548617 0.108130
C17   C     C_R   0.357720 0.944753 0.520324 0.094897
C18   C     C_R   0.491518 0.873351 0.497092 -0.118637
C19   C     C_R   0.622027 0.933681 0.484607 -0.209919
C20   C     C_R   0.622787 0.061060 0.492731 -0.137295
C21   C     C_R   0.492218 0.131353 0.521660 -0.090977
C22   C     C_R   0.910858 0.307619 0.379946 0.647217
C23   C     C_R   0.497354 0.263874 0.508829 0.888909
C24   C     C_R   0.996799 0.200776 0.345725 -0.400753
C25   C     C_R   0.139355 0.197391 0.346308 -0.162233
C26   C     C_R   0.194098 0.305271 0.380270 0.664188
C27   C     C_R   0.100677 0.405785 0.440916 -0.119742
C28   C     C_R   0.951097 0.406296 0.440934 0.021078
C29   C     C_R   0.900494 0.585738 0.558459 -0.109889
C30   C     C_R   0.047568 0.585075 0.559310 0.643285
C31   C     C_R   0.577694 0.499848 0.299769 0.889912
C32   C     C_R   0.807633 0.471248 0.016650 -0.153733
C33   C     C_R   0.622086 0.488944 0.184397 -0.090617
C34   C     C_R   0.240738 0.423651 0.859443 -0.291824
C35   C     C_R   0.201816 0.392748 0.963370 -0.194213
C36   C     C_R   0.302472 0.395835 0.019766 0.636296
Cu1   Cu    Cu3+1 0.359340 0.500010 0.500010 1.048278
Cu2   Cu    Cu3+1 0.640660 0.499990 0.499990 1.049731
H1    H     H_    0.851925 0.508065 0.163670 0.177334
H2    H     H_    0.216025 0.809821 0.474305 0.180225
H3    H     H_    0.991684 0.926543 0.554903 0.146109
H4    H     H_    0.991381 0.135145 0.641451 0.170421
H5    H     H_    0.219751 0.228800 0.638103 0.146390
H6    H     H_    0.726330 0.104423 0.475190 0.172258
H7    H     H_    0.824335 0.655963 0.606909 0.154409
H8    H     H_    0.955544 0.124701 0.307588 0.232805
H9    H     H_    0.860599 0.398366 0.814593 0.159078
H10   H     H_    0.919369 0.478803 0.971299 0.134924
H11   H     H_    0.403659 0.483121 0.178421 0.224669
H12   H     H_    0.157315 0.429850 0.820185 0.179016
H13   H     H_    0.092586 0.367257 0.001828 0.171359
H14   H     H_    0.725281 0.882334 0.465603 0.166070
N1    N     N_R   0.852480 0.498790 0.499000 -0.183970
N2    N     N_R   0.148360 0.498710 0.498970 -0.223414
O1    O     O_R   0.381190 0.680360 0.500010 -0.561374
O2    O     O_R   0.618760 0.680340 0.500000 -0.598903
O3    O     O_R   0.323240 0.499990 0.650990 -0.562712
O4    O     O_R   0.560820 0.499960 0.650980 -0.534249
O5    O     O_R   0.381240 0.319660 0.500000 -0.562759
O6    O     O_R   0.618810 0.319640 0.499990 -0.505224
O7    O     O_R   0.439180 0.500040 0.349020 -0.531404
O8    O     O_R   0.676760 0.500010 0.349010 -0.522753
F1    F     F_    0.800609 0.312908 0.338215 -0.632899
C37   C     C_2   0.235102 0.085553 0.299647 0.966319
O9    O     O_2   0.187371 0.997310 0.260315 -0.615596
O10   O     O_R   0.379121 0.079325 0.302414 -0.699045
H15   H     H_    0.431544 0.997753 0.270056 0.323952
F2    F     F_    0.336803 0.313723 0.335815 -0.592868
F3    F     F_    0.087437 0.670015 0.623526 -0.669850
F4    F     F_    0.257550 0.360938 0.119504 -0.677455
F5    F     F_    0.689222 0.339363 0.706208 -0.672692

loop_
_geom_bond_atom_site_label_1
_geom_bond_atom_site_label_2
_ccdc_geom_bond_type
C2    C4    A    
C28   N1    A    
C31   C33   S    
Cu1   O3    S    
C16   C21   A    
C30   N2    A    
C31   O7    A    
Cu1   O7    S    
C19   C20   A    
C4    C8    A    
C14   H4    S    
C5    C32   A    
C12   O4    A    
C37   O9    D    
Cu1   O5    S    
C13   H3    S    
C17   C18   A    
C1    C18   S    
C27   N2    A    
C26   F2    S    
C10   C34   A    
C3    C10   A    
C22   C28   A    
C13   C14   A    
C24   C25   A    
C23   O5    A    
C5    C6    A    
C32   H10   S    
C31   O8    A    
C26   C27   A    
C29   C30   A    
Cu2   N1    S    
C29   N1    A    
C9    C33   A    
Cu2   O6    S    
Cu1   N2    S    
C10   C12   S    
C25   C37   S    
C20   H6    S    
Cu1   Cu2   S    
C36   F4    S    
O10   H15   S    
C6    C7    A    
C3    C7    A    
C8    C33   A    
C21   C23   S    
C7    F5    S    
C23   O6    A    
C22   C24   A    
C1    O1    A    
C34   H12   S    
C16   C17   A    
C6    H9    S    
C12   O3    A    
C15   H5    S    
C11   H2    S    
Cu1   O1    S    
C11   C13   A    
C30   F3    S    
Cu2   O2    S    
C20   C21   A    
C35   H13   S    
C22   F1    S    
C34   C35   A    
C2    C36   A    
C27   C28   A    
C18   C19   A    
C14   C15   A    
C4    C5    A    
C2    C3    A    
C9    C32   A    
C8    H11   S    
C25   C26   A    
Cu2   O4    S    
C19   H14   S    
C1    O2    A    
C9    H1    S    
C11   C17   A    
C15   C16   A    
C29   H7    S    
C24   H8    S    
Cu2   O8    S    
C35   C36   A    
C37   O10   S    
