data_mof_unit_52853.cif
_audit_creation_date              2012-12-11T15:46:57-0500
_audit_creation_method            fapswitch 2.2
_symmetry_space_group_name_H-M    P1
_symmetry_Int_Tables_number       1
_space_group_crystal_system       triclinic
_cell_length_a                    11.535955
_cell_length_b                    11.516459
_cell_length_c                    19.571713
_cell_angle_alpha                 90.447111
_cell_angle_beta                  90.055057
_cell_angle_gamma                 59.976416
_cell_volume                      2251.19438882

loop_
_atom_site_label
_atom_site_type_symbol
_atom_type_description
_atom_site_fract_x
_atom_site_fract_y
_atom_site_fract_z
_atom_type_partial_charge
C1    C     C_R   0.640425 0.117341 0.599312 0.546516
C2    C     C_1   0.652934 0.149641 0.668685 0.003634
C3    C     C_R   0.678071 0.633062 0.199678 0.018197
C4    C     C_R   0.612453 0.745997 0.598687 0.544758
C5    C     C_R   0.579918 0.622876 0.235949 0.032690
C6    C     C_R   0.571723 0.634935 0.305235 0.011816
C7    C     C_R   0.777577 0.642094 0.307220 -0.164995
C8    C     C_R   0.785129 0.629567 0.236016 -0.161607
C9    C     C_3   0.432170 0.694689 0.225733 -0.267476
C10   C     C_3   0.420984 0.709769 0.302422 -0.239642
C11   C     C_R   0.662187 0.659859 0.341059 0.016838
C12   C     C_1   0.641197 0.703944 0.668049 0.004430
C13   C     C_R   0.118536 0.208887 0.197418 -0.033367
C14   C     C_R   0.120499 0.308884 0.236301 0.020420
C15   C     C_R   0.144827 0.293230 0.304891 0.000112
C16   C     C_R   0.240972 0.145271 0.598239 0.544635
C17   C     C_R   0.133693 0.088991 0.302863 0.192078
C18   C     C_R   0.114693 0.103389 0.231869 -0.098864
C19   C     C_3   0.197628 0.379325 0.225821 -0.272918
C20   C     C_3   0.226691 0.361499 0.301543 -0.260366
C21   C     C_R   0.165394 0.177131 0.338600 0.001790
C22   C     C_R   0.688506 0.195992 0.199619 0.008790
C23   C     C_1   0.126621 0.198826 0.859243 0.003176
C24   C     C_R   0.792026 0.086914 0.233362 0.048558
C25   C     C_R   0.786070 0.068242 0.301820 0.053835
C26   C     C_R   0.580766 0.280607 0.309746 -0.168013
C27   C     C_R   0.587281 0.299061 0.239317 -0.165133
C28   C     C_R   0.646031 0.113801 0.403448 0.542118
C29   C     C_3   0.857590 0.940703 0.217046 -0.273105
C30   C     C_3   0.850007 0.919375 0.292695 -0.261759
C31   C     C_R   0.674844 0.158459 0.340010 0.010931
C32   C     C_R   0.081789 0.231140 0.928542 0.546827
C33   C     C_R   0.683964 0.604402 0.929454 0.545916
C34   C     C_1   0.171541 0.170214 0.727727 -0.030507
C35   C     C_R   0.708444 0.206679 0.930075 0.546347
C36   C     C_R   0.079508 0.237495 0.126478 0.544098
C37   C     C_R   0.685858 0.605620 0.127569 0.543006
C38   C     C_R   0.710684 0.213062 0.128371 0.543339
C39   C     C_R   0.618795 0.734762 0.404106 0.542791
C40   C     C_R   0.240462 0.142498 0.402430 0.533822
C41   C     C_1   0.670476 0.646384 0.860079 0.003660
C42   C     C_1   0.654753 0.683690 0.728450 -0.030860
C43   C     C_1   0.663494 0.666606 0.799672 -0.031068
C44   C     C_1   0.150093 0.182295 0.798924 -0.030782
C45   C     C_1   0.195356 0.160805 0.667430 0.004020
C46   C     C_1   0.678700 0.191310 0.860718 0.003337
C47   C     C_1   0.658557 0.167195 0.729041 -0.030598
C48   C     C_1   0.665766 0.180918 0.800312 -0.030604
Cr1   Cr    Cr6+3 0.404720 0.198220 0.499960 1.022668
Cr2   Cr    Cr6+3 0.698290 0.897110 0.500380 1.025911
Cr3   Cr    Cr6+3 0.396970 0.904720 0.499610 1.030337
Cr4   Cr    Cr6+3 0.926290 0.152010 0.028150 1.023908
Cr5   Cr    Cr6+3 0.921440 0.451830 0.027490 1.026429
Cr6   Cr    Cr6+3 0.626370 0.446880 0.028730 1.025356
H1    H     H_    0.854106 0.651918 0.334376 0.126977
H2    H     H_    0.395934 0.628443 0.205151 0.138070
H3    H     H_    0.394519 0.791606 0.198712 0.139381
H4    H     H_    0.374973 0.816437 0.318457 0.212304
H5    H     H_    0.377248 0.652996 0.326318 0.141113
H6    H     H_    0.096091 0.032606 0.204124 0.154784
H7    H     H_    0.132227 0.485837 0.211139 0.137638
H8    H     H_    0.497118 0.356607 0.338963 0.125689
H9    H     H_    0.511569 0.390508 0.215890 0.129924
H10   H     H_    0.103022 0.010744 0.382989 0.337504
H11   H     H_    0.288093 0.321113 0.193324 0.138152
H12   H     H_    0.334198 0.292102 0.312250 0.162180
H13   H     H_    0.180051 0.457882 0.330515 0.136746
H14   H     H_    0.961883 0.899542 0.198197 0.150026
H15   H     H_    0.793456 0.914614 0.185503 0.131908
H16   H     H_    0.780212 0.882286 0.304658 0.149355
H17   H     H_    0.949841 0.864225 0.317429 0.169257
H18   H     H_    0.870814 0.622835 0.209677 0.133765
O1    O     O_R   0.267750 0.231960 0.575440 -0.504606
O2    O     O_R   0.596230 0.579400 0.952760 -0.504721
O3    O     O_R   0.639160 0.321170 0.958690 -0.493359
O4    O     O_R   0.527290 0.186640 0.570530 -0.493787
O5    O     O_R   0.821370 0.124220 0.104400 -0.519547
O6    O     O_R   0.037020 0.167050 0.097880 -0.512295
O7    O     O_R   0.056310 0.349620 0.102920 -0.510982
O8    O     O_R   0.797790 0.564880 0.097980 -0.508128
O9    O     O_R   0.596000 0.584270 0.104310 -0.518546
O10   O     O_R   0.638950 0.325690 0.099180 -0.505443
O11   O     O_3   0.824700 0.350240 0.028120 -0.253923
O12   O     O_R   0.685950 0.784660 0.430010 -0.509827
O13   O     O_R   0.728110 0.003450 0.576380 -0.504155
O14   O     O_R   0.682980 0.789190 0.570500 -0.494266
O15   O     O_R   0.499300 0.771880 0.575540 -0.504615
O16   O     O_R   0.285350 0.030870 0.569740 -0.495417
O17   O     O_R   0.270960 0.227070 0.423890 -0.521591
O18   O     O_R   0.530270 0.182120 0.430040 -0.510530
O19   O     O_R   0.731320 0.998570 0.424830 -0.516568
O20   O     O_3   0.124168 0.987198 0.334061 -0.730019
O21   O     O_R   0.502510 0.767000 0.423980 -0.519643
O22   O     O_R   0.288320 0.026340 0.429250 -0.498702
O23   O     O_3   0.499990 0.000020 0.499980 -0.251817
O24   O     O_R   0.821590 0.119350 0.952850 -0.505227
O25   O     O_R   0.037230 0.162540 0.957390 -0.493757
O26   O     O_R   0.056530 0.344750 0.951370 -0.504993
O27   O     O_R   0.798000 0.560370 0.957490 -0.493738

loop_
_geom_bond_atom_site_label_1
_geom_bond_atom_site_label_2
_ccdc_geom_bond_type
C25   C31   A    
C20   H13   S    
C19   C20   S    
C7    H1    S    
Cr1   O18   S    
C30   H17   S    
Cr2   O12   S    
C7    C8    A    
C4    O15   A    
C35   O24   A    
Cr5   O27   S    
C7    C11   A    
C35   O3    A    
C26   C27   A    
C13   C18   A    
C20   H12   S    
Cr5   O7    S    
C39   O12   A    
C5    C6    A    
Cr2   O23   S    
C4    O14   A    
C22   C38   S    
Cr4   O25   S    
C32   O25   A    
C1    C2    S    
C24   C29   S    
C39   O21   A    
C12   C42   T    
Cr2   O13   S    
Cr6   O2    S    
C19   H11   S    
C40   O17   A    
C4    C12   S    
C9    C10   S    
C9    H3    S    
C26   C31   A    
C13   C14   A    
C38   O10   A    
C41   C43   T    
C37   O9    A    
C17   O20   S    
Cr4   O6    S    
Cr6   O11   S    
C30   H16   S    
C29   H15   S    
C1    O13   A    
C15   C20   S    
C37   O8    A    
C46   C48   T    
C8    H18   S    
C16   O1    A    
Cr5   O8    S    
C34   C44   S    
C24   C25   A    
C13   C36   S    
C3    C8    A    
Cr3   O15   S    
C6    C11   A    
C34   C45   T    
C17   C21   A    
C23   C44   T    
C33   O27   A    
Cr3   O16   S    
Cr4   O11   S    
C5    C9    S    
C29   C30   S    
C29   H14   S    
Cr2   O19   S    
C47   C48   S    
C17   C18   A    
Cr1   O4    S    
C9    H2    S    
Cr1   O23   S    
C11   C39   S    
C27   H9    S    
Cr3   O21   S    
C18   H6    S    
C22   C27   A    
Cr5   O26   S    
Cr1   O1    S    
C42   C43   S    
H10   O20   S    
Cr4   O5    S    
Cr6   O10   S    
C25   C30   S    
Cr1   O17   S    
C10   H4    S    
C1    O4    A    
C14   C19   S    
C28   C31   S    
C40   O22   A    
C3    C5    A    
C36   O7    A    
C16   C45   S    
C6    C10   S    
C38   O5    A    
C2    C47   T    
Cr5   O11   S    
C33   C41   S    
C23   C32   S    
C10   H5    S    
C26   H8    S    
C36   O6    A    
C21   C40   S    
C19   H7    S    
C32   O26   A    
Cr4   O24   S    
C28   O19   A    
C22   C24   A    
Cr2   O14   S    
Cr3   O22   S    
Cr6   O3    S    
C33   O2    A    
C15   C21   A    
C3    C37   S    
C16   O16   A    
C14   C15   A    
C28   O18   A    
C35   C46   S    
Cr6   O9    S    
Cr3   O23   S    
