data_mof_unit_40092.cif
_audit_creation_date              2012-12-10T20:36:40-0500
_audit_creation_method            fapswitch 2.2
_symmetry_space_group_name_H-M    P1
_symmetry_Int_Tables_number       1
_space_group_crystal_system       triclinic
_cell_length_a                    10.544246
_cell_length_b                    10.799236
_cell_length_c                    9.939367
_cell_angle_alpha                 87.972074
_cell_angle_beta                  90.168979
_cell_angle_gamma                 91.109572
_cell_volume                      1130.86990637

loop_
_atom_site_label
_atom_site_type_symbol
_atom_type_description
_atom_site_fract_x
_atom_site_fract_y
_atom_site_fract_z
_atom_type_partial_charge
Br1   Br    Br    0.733401 0.645047 0.843966 -0.428561
Br2   Br    Br    0.881163 0.765779 0.370407 -0.400473
Br3   Br    Br    0.087994 0.563284 0.187518 -0.385382
Br4   Br    Br    0.360676 0.800300 0.844692 -0.342772
C1    C     C_R   0.505008 0.260059 0.501931 0.907023
C2    C     C_R   0.453296 0.929692 0.603675 0.077388
C3    C     C_3   0.483123 0.910766 0.749708 0.018541
C4    C     C_R   0.257793 0.507078 0.499155 0.936487
C5    C     C_3   0.466821 0.050690 0.757930 -0.248325
C6    C     C_R   0.393712 0.468864 0.071666 0.246805
C7    C     C_R   0.599577 0.547794 0.071547 -0.109927
C8    C     C_R   0.599169 0.550295 0.928372 0.303684
C9    C     C_R   0.390799 0.477017 0.930233 0.208763
C10   C     C_3   0.304353 0.367863 0.923405 -0.260875
C11   C     C_3   0.322822 0.348222 0.075239 -0.469136
C12   C     C_3   0.954249 0.614285 0.445196 0.207951
C13   C     C_R   0.502205 0.739172 0.498077 0.939888
C14   C     C_R   0.742179 0.499306 0.500113 0.975240
C15   C     C_3   0.043257 0.402209 0.551248 -0.188703
C16   C     C_3   0.958473 0.413062 0.424255 -0.215250
C17   C     C_3   0.876751 0.503208 0.499551 -0.123190
C18   C     C_3   0.958826 0.492911 0.626488 -0.140499
C19   C     C_3   0.039194 0.603936 0.570365 -0.128509
C20   C     C_2   0.345284 0.078892 0.830193 0.982168
C21   C     C_2   0.583850 0.120562 0.806499 0.955790
C22   C     C_2   0.170397 0.403635 0.890620 0.977069
C23   C     C_3   0.038487 0.525025 0.371011 0.299059
C24   C     C_2   0.083345 0.719124 0.637360 1.067899
C25   C     C_2   0.649704 0.129123 0.288925 0.978344
C26   C     C_3   0.122444 0.513850 0.496757 -0.174005
C27   C     C_R   0.450484 0.056453 0.605833 -0.006866
C28   C     C_R   0.512957 0.127041 0.503493 -0.147163
C29   C     C_R   0.566272 0.066448 0.391960 -0.042046
C30   C     C_R   0.552137 0.938344 0.385643 -0.170637
C31   C     C_R   0.501297 0.870315 0.494735 -0.098560
H1    H     H_    0.924397 0.334816 0.363822 0.231008
H2    H     H_    0.157613 0.109475 0.815886 0.393445
H3    H     H_    0.655561 0.258763 0.917041 0.345122
H4    H     H_    0.044539 0.541041 0.888828 0.380188
H5    H     H_    0.180786 0.881070 0.618270 0.379468
H6    H     H_    0.725930 0.125243 0.103407 0.367159
H7    H     H_    0.582318 0.880094 0.765305 0.202561
H8    H     H_    0.679628 0.586523 0.125146 0.205619
H9    H     H_    0.344655 0.300836 0.856488 0.183605
H10   H     H_    0.234774 0.349499 0.136058 0.231928
H11   H     H_    0.385759 0.269698 0.102227 0.255883
H12   H     H_    0.083166 0.315097 0.594587 0.214887
H13   H     H_    0.918018 0.474584 0.727810 0.216088
H14   H     H_    0.592511 0.890391 0.302321 0.222054
N1    N     N_R   0.499140 0.499140 0.142800 -0.136159
N2    N     N_R   0.499140 0.499180 0.857150 -0.142018
O1    O     O_R   0.500020 0.316790 0.614690 -0.630778
O2    O     O_R   0.235178 0.105307 0.756496 -0.808092
O3    O     O_2   0.688554 0.097153 0.762229 -0.588009
O4    O     O_R   0.572000 0.214468 0.898622 -0.802484
O5    O     O_2   0.087797 0.323372 0.882401 -0.624044
O6    O     O_R   0.138992 0.528579 0.880903 -0.723373
O7    O     O_2   0.043451 0.743101 0.748484 -0.516518
O8    O     O_R   0.164205 0.802616 0.567555 -0.776981
O9    O     O_2   0.715697 0.218627 0.317722 -0.639370
O10   O     O_R   0.659367 0.080198 0.161048 -0.751516
O11   O     O_R   0.500000 0.316760 0.385350 -0.607921
O12   O     O_R   0.313960 0.499990 0.614650 -0.618147
O13   O     O_R   0.313940 0.499950 0.385310 -0.595279
O14   O     O_R   0.500000 0.683240 0.614650 -0.581739
O15   O     O_R   0.499980 0.683210 0.385310 -0.608722
O16   O     O_R   0.686060 0.500050 0.614690 -0.598866
O17   O     O_R   0.686040 0.500010 0.385350 -0.601407
O18   O     O_2   0.341465 0.071148 0.953253 -0.544936
Zn1   Zn    Zn3+2 0.500010 0.500020 0.653130 1.032048
Zn2   Zn    Zn3+2 0.499990 0.499980 0.346870 1.034075

loop_
_geom_bond_atom_site_label_1
_geom_bond_atom_site_label_2
_ccdc_geom_bond_type
C20   O18   D    
C18   H13   S    
N1    Zn2   S    
C25   O9    D    
C5    C20   S    
C7    H8    S    
C12   C17   S    
N2    Zn1   S    
C24   O7    D    
C14   C17   S    
Br2   C12   S    
C10   H9    S    
C13   O14   A    
O15   Zn2   S    
C10   C11   S    
O12   Zn1   S    
H6    O10   S    
C7    C8    A    
O16   Zn1   S    
C4    C26   S    
C28   C29   A    
C1    C28   S    
C12   C23   S    
Br3   C23   S    
C29   C30   A    
C20   O2    S    
C5    C21   S    
O11   Zn2   S    
C1    O1    A    
C7    N1    A    
C9    C10   S    
C21   O3    D    
C23   C26   S    
H2    O2    S    
C13   O15   A    
C2    C3    S    
Br1   C8    S    
C24   O8    S    
C6    N1    A    
C4    O13   A    
O17   Zn2   S    
C17   C18   S    
C16   C23   S    
C21   O4    S    
C1    O11   A    
C2    C27   A    
C12   C19   S    
C15   H12   S    
C6    C11   S    
Br4   C3    S    
C22   O6    S    
C25   O10   S    
O13   Zn2   S    
O1    Zn1   S    
C19   C24   S    
C11   H10   S    
C4    O12   A    
C14   O17   A    
O14   Zn1   S    
C16   H1    S    
C19   C26   S    
C25   C29   S    
C15   C18   S    
C2    C31   A    
C8    N2    A    
C16   C17   S    
C30   C31   A    
C3    H7    S    
C3    C5    S    
C5    C27   S    
C18   C19   S    
C30   H14   S    
C13   C31   S    
C11   H11   S    
H5    O8    S    
C14   O16   A    
C9    N2    A    
C15   C26   S    
C27   C28   A    
C10   C22   S    
H3    O4    S    
C15   C16   S    
C22   O5    D    
C6    C9    A    
H4    O6    S    
