data_mof_unit_43591.cif
_audit_creation_date              2012-12-10T19:47:22-0500
_audit_creation_method            fapswitch 2.2
_symmetry_space_group_name_H-M    P1
_symmetry_Int_Tables_number       1
_space_group_crystal_system       triclinic
_cell_length_a                    10.825291
_cell_length_b                    10.87116
_cell_length_c                    12.716164
_cell_angle_alpha                 93.116675
_cell_angle_beta                  93.273548
_cell_angle_gamma                 90.075605
_cell_volume                      1491.81593714

loop_
_atom_site_label
_atom_site_type_symbol
_atom_type_description
_atom_site_fract_x
_atom_site_fract_y
_atom_site_fract_z
_atom_type_partial_charge
C1    C     C_R   0.261940 0.495975 0.500353 0.787254
C2    C     C_R   0.738060 0.504024 0.499647 0.787264
C3    C     C_R   0.493778 0.871761 0.497776 -0.092830
C4    C     C_R   0.506234 0.128238 0.502222 -0.092838
C5    C     C_R   0.450596 0.934045 0.407966 0.009975
C6    C     C_R   0.549416 0.065954 0.592032 0.009967
C7    C     C_R   0.245506 0.177021 0.699952 -0.128395
C8    C     C_R   0.754513 0.822947 0.299991 -0.128366
C9    C     C_R   0.193103 0.254368 0.625561 -0.120162
C10   C     C_R   0.806940 0.745639 0.374401 -0.120230
C11   C     C_R   0.129782 0.361006 0.658574 0.123891
C12   C     C_R   0.870215 0.638963 0.341413 0.123870
C13   C     C_R   0.120369 0.389562 0.766871 -0.155445
C14   C     C_R   0.879561 0.610331 0.233122 -0.155373
C15   C     C_R   0.174104 0.312580 0.841085 -0.147529
C16   C     C_R   0.825799 0.687274 0.158888 -0.147557
C17   C     C_R   0.236269 0.206182 0.807675 -0.090275
C18   C     C_R   0.763680 0.793709 0.192273 -0.090297
C19   C     C_R   0.938129 0.446144 0.578785 -0.240677
C20   C     C_R   0.061871 0.553853 0.421216 -0.240683
C21   C     C_R   0.871762 0.506266 0.499513 -0.073956
C22   C     C_R   0.128238 0.493731 0.500488 -0.073963
C23   C     C_R   0.504048 0.261864 0.500820 0.790665
C24   C     C_R   0.495955 0.738136 0.499180 0.790685
C25   C     C_R   0.933894 0.562390 0.420315 0.006179
C26   C     C_R   0.066107 0.437602 0.579685 0.006202
C27   C     C_2   0.461091 0.470879 0.030452 -0.215285
C28   C     C_2   0.538906 0.529123 0.969548 -0.215305
C29   C     C_1   0.526562 0.523075 0.853025 0.259414
C30   C     C_1   0.473437 0.476926 0.146975 0.259403
C31   C     C_R   0.771751 0.248565 0.782766 -0.205009
C32   C     C_R   0.228202 0.751477 0.217254 -0.205022
C33   C     C_R   0.716931 0.194831 0.688865 -0.100587
C34   C     C_R   0.283049 0.805197 0.311152 -0.100635
C35   C     C_R   0.605659 0.128394 0.690190 0.064147
C36   C     C_R   0.394336 0.871607 0.309816 0.064162
C37   C     C_R   0.552130 0.114459 0.787098 -0.178409
C38   C     C_R   0.447857 0.885525 0.212902 -0.178396
C39   C     C_R   0.605630 0.170989 0.880251 0.451263
C40   C     C_R   0.394331 0.829005 0.119753 0.451253
C41   C     C_R   0.715434 0.238053 0.877921 -0.172173
C42   C     C_R   0.284510 0.761972 0.122093 -0.172143
C43   C     C_R   0.541577 0.938392 0.588394 -0.239993
C44   C     C_R   0.458438 0.061607 0.411603 -0.239983
Cu1   Cu    Cu3+1 0.492140 0.492110 0.395880 0.995814
Cu2   Cu    Cu3+1 0.507860 0.507890 0.604120 0.995812
H1    H     H_    0.757931 0.280906 0.949936 0.157650
H2    H     H_    0.241992 0.719131 0.050082 0.157658
H3    H     H_    0.070826 0.470828 0.793613 0.128110
H4    H     H_    0.929064 0.529031 0.206399 0.128121
H5    H     H_    0.166350 0.334681 0.924460 0.131541
H6    H     H_    0.833495 0.665110 0.075517 0.131506
H7    H     H_    0.889352 0.401498 0.637877 0.145170
H8    H     H_    0.110647 0.598496 0.362122 0.145187
H9    H     H_    0.614637 0.583594 0.007466 0.171089
H10   H     H_    0.385360 0.416407 0.992533 0.171120
H11   H     H_    0.858570 0.297586 0.782666 0.146226
H12   H     H_    0.141367 0.702484 0.217361 0.146249
H13   H     H_    0.761693 0.203432 0.615580 0.117272
H14   H     H_    0.238293 0.796610 0.384440 0.117282
H15   H     H_    0.469391 0.059256 0.790323 0.164913
H16   H     H_    0.530606 0.940707 0.209667 0.164907
H17   H     H_    0.576748 0.890599 0.656509 0.181268
H18   H     H_    0.423265 0.109399 0.343489 0.181273
H19   H     H_    0.276313 0.145917 0.865298 0.176695
H20   H     H_    0.723613 0.853941 0.134632 0.176704
H21   H     H_    0.291915 0.093768 0.673778 0.135976
H22   H     H_    0.708138 0.906227 0.326145 0.135971
H23   H     H_    0.199620 0.229896 0.542339 0.107299
H24   H     H_    0.800474 0.770166 0.457619 0.107331
N1    N     N_1   0.480320 0.480250 0.239400 -0.152651
N2    N     N_1   0.519680 0.519750 0.760600 -0.152652
O1    O     O_R   0.313000 0.493330 0.412070 -0.584615
O2    O     O_R   0.687000 0.506670 0.587930 -0.584621
O3    O     O_R   0.326280 0.506660 0.587930 -0.563824
O4    O     O_R   0.673720 0.493340 0.412070 -0.563824
O5    O     O_R   0.493370 0.312980 0.412070 -0.576612
O6    O     O_R   0.506630 0.687020 0.587930 -0.576611
O7    O     O_R   0.506650 0.326310 0.587930 -0.567384
O8    O     O_R   0.493350 0.673690 0.412070 -0.567381
Cl1   Cl    Cl    0.536225 0.156586 0.000306 -0.646015
Cl2   Cl    Cl    0.463722 0.843391 0.999690 -0.646028

loop_
_geom_bond_atom_site_label_1
_geom_bond_atom_site_label_2
_ccdc_geom_bond_type
Cu1   N1    S    
C32   H12   S    
C30   N1    T    
C43   H17   S    
C39   C41   A    
Cu1   Cu2   S    
C44   H18   S    
C3    C43   A    
Cu1   O4    S    
C28   C29   S    
C19   C21   A    
C9    H23   S    
Cu2   O7    S    
C20   C25   A    
C5    C36   S    
C6    C35   S    
Cu1   O1    S    
C19   C26   A    
C24   O8    A    
C7    C17   A    
C31   C33   A    
C15   H5    S    
Cu2   N2    S    
C2    O2    A    
C29   N2    T    
C19   H7    S    
C40   C42   A    
C1    C22   S    
C33   H13   S    
C27   C30   S    
C34   H14   S    
C3    C24   S    
Cu2   O3    S    
C28   H9    S    
C1    O3    A    
C40   Cl2   S    
C39   Cl1   S    
C20   H8    S    
Cu2   O6    S    
C4    C23   S    
C27   H10   S    
C4    C44   A    
C11   C26   S    
C8    C18   A    
C32   C34   A    
C2    C21   S    
C41   H1    S    
C16   C18   A    
C42   H2    S    
C23   O5    A    
C9    C11   A    
C10   C12   A    
C13   H3    S    
C10   H24   S    
C4    C6    A    
C5    C44   A    
C20   C22   A    
C8    H22   S    
C6    C43   A    
C13   C15   A    
C14   C16   A    
Cu2   O2    S    
C2    O4    A    
C24   O6    A    
C15   C17   A    
C21   C25   A    
C31   C41   A    
C35   C37   A    
C16   H6    S    
C12   C14   A    
C3    C5    A    
C37   H15   S    
C18   H20   S    
C17   H19   S    
C12   C25   S    
C1    O1    A    
C31   H11   S    
C36   C38   A    
C37   C39   A    
C38   C40   A    
C11   C13   A    
C14   H4    S    
C33   C35   A    
Cu1   O8    S    
C34   C36   A    
C7    H21   S    
C7    C9    A    
C8    C10   A    
C22   C26   A    
C27   C28   D    
C32   C42   A    
Cu1   O5    S    
C23   O7    A    
C38   H16   S    
