data_mof_unit_49756.cif
_audit_creation_date              2012-12-10T18:58:36-0500
_audit_creation_method            fapswitch 2.2
_symmetry_space_group_name_H-M    P1
_symmetry_Int_Tables_number       1
_space_group_crystal_system       triclinic
_cell_length_a                    10.682331
_cell_length_b                    9.8404
_cell_length_c                    17.508074
_cell_angle_alpha                 89.989512
_cell_angle_beta                  89.889063
_cell_angle_gamma                 89.938931
_cell_volume                      1840.41637521

loop_
_atom_site_label
_atom_site_type_symbol
_atom_type_description
_atom_site_fract_x
_atom_site_fract_y
_atom_site_fract_z
_atom_type_partial_charge
C1    C     C_R   0.259931 0.500014 0.500026 0.850924
C2    C     C_R   0.740071 0.499894 0.500488 0.873652
C3    C     C_1   0.479387 0.497263 0.965942 -0.042597
C4    C     C_1   0.478627 0.498479 0.033714 -0.046990
C5    C     C_R   0.064281 0.383723 0.476129 -0.201898
C6    C     C_R   0.935709 0.615251 0.526235 -0.196083
C7    C     C_R   0.936115 0.383423 0.476636 -0.214419
C8    C     C_R   0.063955 0.615410 0.525943 -0.203630
C9    C     C_R   0.500159 0.499990 0.353922 0.871359
C10   C     C_R   0.499816 0.499984 0.645944 0.889987
C11   C     C_R   0.872474 0.499481 0.501244 -0.003766
C12   C     C_R   0.127539 0.499826 0.500621 -0.006346
C13   C     C_R   0.599838 0.509168 0.849470 -0.195911
C14   C     C_R   0.378394 0.457918 0.155646 -0.153753
C15   C     C_R   0.591232 0.543875 0.149801 -0.195260
C16   C     C_R   0.373491 0.487525 0.844236 -0.195921
C17   C     C_R   0.606776 0.511018 0.770085 0.122229
C18   C     C_R   0.382086 0.457007 0.235529 0.108283
C19   C     C_R   0.598967 0.543965 0.229017 0.138202
C20   C     C_R   0.376995 0.489613 0.764781 0.121730
C21   C     C_R   0.494589 0.499950 0.727945 -0.081962
C22   C     C_R   0.494047 0.499804 0.271657 -0.115430
C23   C     C_R   0.582115 0.071843 0.544558 -0.073421
C24   C     C_R   0.417865 0.928167 0.455460 -0.072669
C25   C     C_R   0.417844 0.072072 0.455471 -0.071016
C26   C     C_R   0.582116 0.927934 0.544560 -0.070622
C27   C     C_R   0.484153 0.497065 0.885570 0.081040
C28   C     C_R   0.482259 0.500680 0.114116 0.063455
H1    H     H_    0.684491 0.517216 0.883293 0.138727
H2    H     H_    0.295990 0.425584 0.124806 0.153525
H3    H     H_    0.670800 0.575768 0.115639 0.138099
H4    H     H_    0.284593 0.479376 0.873938 0.140379
H5    H     H_    0.647750 0.126285 0.580180 0.124096
H6    H     H_    0.352224 0.873720 0.419839 0.129327
H7    H     H_    0.352156 0.126694 0.419885 0.117473
H8    H     H_    0.647745 0.873294 0.580191 0.119699
N1    N     N_R   0.500000 0.857200 0.500000 -0.079820
N2    N     N_R   0.500000 0.142800 0.500000 -0.080309
O1    O     O_R   0.316770 0.614620 0.500000 -0.628842
O2    O     O_R   0.683230 0.385380 0.500000 -0.630412
O3    O     O_R   0.683230 0.614620 0.500000 -0.627260
O4    O     O_R   0.316770 0.385380 0.500000 -0.626808
O5    O     O_R   0.500010 0.614710 0.389120 -0.618444
O6    O     O_R   0.499990 0.385290 0.610880 -0.613243
O7    O     O_R   0.499990 0.614710 0.610880 -0.628349
O8    O     O_R   0.500010 0.385290 0.389120 -0.620867
Zn1   Zn    Zn3+2 0.500000 0.653120 0.500000 0.934485
Zn2   Zn    Zn3+2 0.500000 0.346880 0.500000 0.931821
C29   C     C_3   0.733753 0.526944 0.732170 -0.432321
C30   C     C_3   0.787989 0.389740 0.708430 -0.857995
H9    H     H_    0.799271 0.323172 0.759200 0.258927
H10   H     H_    0.726303 0.338673 0.666458 0.267608
H11   H     H_    0.881200 0.405108 0.681598 0.250837
H12   H     H_    0.727184 0.594728 0.681590 0.201843
H13   H     H_    0.800635 0.576399 0.772010 0.203734
C31   C     C_3   0.269460 0.413352 0.283602 -0.380639
C32   C     C_3   0.150219 0.378208 0.239660 -0.915111
H14   H     H_    0.117527 0.467121 0.206042 0.264691
H15   H     H_    0.166521 0.289838 0.201456 0.259803
H16   H     H_    0.075406 0.350201 0.280861 0.256763
H17   H     H_    0.295801 0.322738 0.317843 0.214807
H18   H     H_    0.245832 0.496816 0.323930 0.197447
C33   C     C_3   0.720535 0.588397 0.266035 -0.419048
C34   C     C_3   0.798418 0.466300 0.291193 -0.871312
H19   H     H_    0.746735 0.403991 0.333577 0.263727
H20   H     H_    0.822400 0.402043 0.241090 0.262393
H21   H     H_    0.886549 0.502380 0.317856 0.257026
H22   H     H_    0.777543 0.649110 0.225244 0.202202
H23   H     H_    0.702073 0.655912 0.315555 0.225069
C35   C     C_3   0.254445 0.484514 0.721278 -0.424639
C36   C     C_3   0.217234 0.338542 0.702866 -0.831320
H24   H     H_    0.289779 0.288548 0.667158 0.280455
H25   H     H_    0.204516 0.279550 0.756414 0.252698
H26   H     H_    0.127592 0.338458 0.670840 0.246153
H27   H     H_    0.178526 0.532047 0.755684 0.202353
H28   H     H_    0.260343 0.544473 0.667690 0.201255
H29   H     H_    0.113584 0.294381 0.455845 0.152346
H30   H     H_    0.886308 0.704659 0.546328 0.145983
H31   H     H_    0.887105 0.293871 0.456684 0.158740
H32   H     H_    0.113083 0.704884 0.545900 0.153081

loop_
_geom_bond_atom_site_label_1
_geom_bond_atom_site_label_2
_ccdc_geom_bond_type
C14   C18   A    
C15   C28   A    
C7    C11   A    
C7    H31   S    
C13   H1    S    
C16   C20   A    
C9    C22   S    
C32   H15   S    
C2    O3    A    
C29   H12   S    
C31   C32   S    
C23   C26   A    
C33   H23   S    
C19   C33   S    
C23   H5    S    
C30   H10   S    
C35   C36   S    
N1    Zn1   S    
N2    Zn2   S    
C18   C31   S    
C16   C27   A    
C9    O8    A    
C20   C35   S    
C1    C12   S    
C14   H2    S    
C2    C11   S    
C4    C28   S    
C24   N1    A    
O7    Zn1   S    
C10   C21   S    
O8    Zn2   S    
C9    O5    A    
C30   H11   S    
C10   O6    A    
C34   H21   S    
C19   C22   A    
C24   C25   A    
C5    C12   A    
C17   C29   S    
C6    C11   A    
C5    C7    A    
C32   H16   S    
C6    C8    A    
C29   H13   S    
C24   H6    S    
C34   H20   S    
C15   C19   A    
C25   N2    A    
C8    C12   A    
C10   O7    A    
C30   H9    S    
O3    Zn1   S    
O4    Zn2   S    
C25   H7    S    
C26   H8    S    
C35   H28   S    
C31   H18   S    
C5    H29   S    
C3    C4    T    
O1    Zn1   S    
O2    Zn2   S    
C33   H22   S    
C18   C22   A    
C36   H26   S    
C26   N1    A    
C15   H3    S    
C16   H4    S    
C23   N2    A    
C13   C17   A    
C34   H19   S    
C3    C27   S    
C36   H24   S    
C32   H14   S    
C17   C21   A    
C6    H30   S    
C1    O1    A    
C33   C34   S    
C2    O2    A    
C1    O4    A    
C20   C21   A    
C29   C30   S    
C36   H25   S    
C35   H27   S    
C8    H32   S    
C31   H17   S    
C13   C27   A    
C14   C28   A    
O5    Zn1   S    
O6    Zn2   S    
