data_mof_unit_47367.cif
_audit_creation_date              2012-10-26T19:58:11-0400
_audit_creation_method            fapswitch 2.2
_symmetry_space_group_name_H-M    P1
_symmetry_Int_Tables_number       1
_space_group_crystal_system       triclinic
_cell_length_a                    7.441979
_cell_length_b                    8.692964
_cell_length_c                    13.403026
_cell_angle_alpha                 94.265452
_cell_angle_beta                  77.405414
_cell_angle_gamma                 103.239212
_cell_volume                      823.452776756

loop_
_atom_site_label
_atom_site_type_symbol
_atom_type_description
_atom_site_fract_x
_atom_site_fract_y
_atom_site_fract_z
_atom_type_partial_charge
C1    C     C_R   0.545337 0.800209 0.503143 0.532428
C2    C     C_R   0.336304 0.493341 0.807087 -0.001599
C3    C     C_2   0.570752 0.968183 0.504721 -0.149764
C4    C     C_R   0.399266 0.497092 0.694590 0.554303
C5    C     C_2   0.429027 0.031805 0.495673 -0.137809
C6    C     C_R   0.454559 0.199791 0.497044 0.536390
C7    C     C_R   0.601595 0.511096 0.305943 0.521497
C8    C     C_R   0.878770 0.677872 0.053677 -0.134659
C9    C     C_R   0.662521 0.536742 0.195861 -0.005819
C10   C     C_R   0.151107 0.413886 0.849738 0.378497
C11   C     C_R   0.098364 0.384581 0.953557 -0.098805
C12   C     C_R   0.417683 0.506146 0.975931 0.016995
C13   C     C_R   0.229654 0.426688 0.015780 -0.188910
C14   C     C_R   0.465400 0.552350 0.872454 -0.031187
C15   C     C_R   0.559185 0.543475 0.035788 0.045301
C16   C     C_R   0.738822 0.638956 0.995001 0.049218
C17   C     C_R   0.775121 0.698240 0.897252 -0.081674
C18   C     C_R   0.639799 0.657841 0.837537 -0.067019
C19   C     C_R   0.527795 0.488619 0.135215 -0.126886
C20   C     C_R   0.840368 0.627895 0.154056 -0.145319
Cu1   Cu    Cu3+1 0.321300 0.483160 0.488710 1.091817
Cu2   Cu    Cu3+1 0.678700 0.516840 0.511290 1.070502
F1    F     F_    0.023311 0.635953 0.598735 -0.503099
F2    F     F_    0.021537 0.359636 0.790840 -0.595924
H1    H     H_    0.946162 0.666236 0.200111 0.130872
H2    H     H_    0.707229 0.039827 0.513270 0.143896
H3    H     H_    0.292535 0.960156 0.487152 0.160368
H4    H     H_    0.990588 0.384697 0.418917 0.175046
H5    H     H_    0.908810 0.776740 0.866755 0.137079
H6    H     H_    0.016146 0.750697 0.022803 0.117248
H7    H     H_    0.397425 0.410280 0.168713 0.115607
H8    H     H_    0.177525 0.398965 0.095299 0.110864
H9    H     H_    0.955136 0.324612 0.985861 0.149664
H10   H     H_    0.672600 0.714245 0.764647 0.167992
N1    N     N_2   0.947230 0.542220 0.528320 0.154210
N2    N     N_2   0.052770 0.457780 0.471680 -0.180696
O1    O     O_R   0.383920 0.714220 0.492660 -0.455444
O2    O     O_R   0.685730 0.742660 0.511730 -0.497069
O3    O     O_R   0.275440 0.478800 0.636790 -0.370178
O4    O     O_R   0.577250 0.507240 0.655860 -0.491986
O5    O     O_R   0.314270 0.257340 0.488270 -0.503574
O6    O     O_R   0.616080 0.285780 0.507340 -0.524303
O7    O     O_R   0.422750 0.492760 0.344140 -0.527656
O8    O     O_R   0.724560 0.521200 0.363210 -0.540416

loop_
_geom_bond_atom_site_label_1
_geom_bond_atom_site_label_2
_ccdc_geom_bond_type
C2    C4    S    
C4    O3    A    
C7    O7    A    
C11   C13   A    
C14   C18   A    
C13   H8    S    
N1    N2    D    
Cu1   O3    S    
C12   C15   A    
C1    O1    A    
Cu2   O4    S    
C8    H6    S    
C17   C18   A    
C19   H7    S    
C8    C16   A    
Cu1   N2    S    
C5    H3    S    
C7    O8    A    
C15   C19   A    
Cu2   N1    S    
C18   H10   S    
Cu2   O6    S    
C1    O2    A    
C8    C20   A    
Cu1   O5    S    
Cu1   Cu2   S    
C12   C14   A    
F1    N1    S    
C6    O6    A    
C5    C6    S    
C2    C14   A    
C20   H1    S    
C15   C16   A    
C2    C10   A    
C3    C5    D    
C11   H9    S    
C17   H5    S    
C12   C13   A    
H4    N2    S    
Cu1   O1    S    
C10   C11   A    
C7    C9    S    
C9    C20   A    
C10   F2    S    
Cu1   O7    S    
C9    C19   A    
C3    H2    S    
Cu2   O8    S    
C4    O4    A    
C16   C17   A    
C1    C3    S    
C6    O5    A    
Cu2   O2    S    
