data_mof_unit_58996.cif
_audit_creation_date              2012-12-10T17:32:18-0500
_audit_creation_method            fapswitch 2.2
_symmetry_space_group_name_H-M    P1
_symmetry_Int_Tables_number       1
_space_group_crystal_system       triclinic
_cell_length_a                    12.346751
_cell_length_b                    13.265072
_cell_length_c                    15.072623
_cell_angle_alpha                 76.312153
_cell_angle_beta                  101.906617
_cell_angle_gamma                 117.581381
_cell_volume                      2112.45346678

loop_
_atom_site_label
_atom_site_type_symbol
_atom_type_description
_atom_site_fract_x
_atom_site_fract_y
_atom_site_fract_z
_atom_type_partial_charge
C1    C     C_R   0.855124 0.286585 0.507878 0.830940
C2    C     C_R   0.933554 0.548822 0.071570 0.109808
C3    C     C_R   0.113228 0.381613 0.092160 -0.236726
C4    C     C_R   0.110441 0.377754 0.000204 -0.180290
C5    C     C_R   0.050172 0.431637 0.930758 0.013102
C6    C     C_R   0.992080 0.489925 0.954679 -0.006348
C7    C     C_R   0.932662 0.545925 0.886032 0.109874
C8    C     C_R   0.873269 0.601736 0.910532 -0.186356
C9    C     C_R   0.873299 0.602789 0.002826 -0.213555
C10   C     C_R   0.046764 0.428148 0.837863 0.445715
C11   C     C_R   0.994258 0.490871 0.769216 -0.148123
C12   C     C_R   0.998610 0.497420 0.671494 0.882936
C13   C     C_R   0.935220 0.546890 0.793931 -0.307079
C14   C     C_R   0.289976 0.009719 0.348153 -0.195643
C15   C     C_R   0.230568 0.834070 0.459210 -0.043067
C16   C     C_R   0.812147 0.088604 0.585250 -0.172324
C17   C     C_R   0.731867 0.973265 0.606720 -0.139715
C18   C     C_R   0.611534 0.931884 0.564752 -0.175467
C19   C     C_R   0.570939 0.005172 0.497011 0.098684
C20   C     C_R   0.658494 0.117665 0.465765 0.126461
C21   C     C_R   0.446165 0.971232 0.460195 0.088651
C22   C     C_R   0.413717 0.042614 0.384289 0.158635
C23   C     C_R   0.145677 0.713466 0.484555 0.783666
C24   C     C_R   0.505220 0.145508 0.345373 -0.218689
C25   C     C_R   0.626431 0.182974 0.385688 -0.144716
C26   C     C_R   0.352135 0.869725 0.498601 -0.226443
C27   C     C_R   0.198682 0.905255 0.385066 -0.192084
C28   C     C_R   0.775230 0.162454 0.516861 -0.060281
C29   C     C_R   0.393167 0.421617 0.679249 -0.225290
C30   C     C_R   0.747460 0.622963 0.362099 0.084450
C31   C     C_R   0.644018 0.642098 0.325859 -0.256242
C32   C     C_R   0.545799 0.599359 0.377302 -0.160029
C33   C     C_R   0.551930 0.539965 0.467204 -0.043662
C34   C     C_R   0.999681 0.500073 0.328877 0.781917
C35   C     C_R   0.659138 0.520273 0.502150 0.172098
C36   C     C_R   0.456200 0.499128 0.525009 -0.052091
C37   C     C_R   0.484947 0.470235 0.620404 0.122531
C38   C     C_R   0.602607 0.478994 0.654323 -0.335554
C39   C     C_R   0.664102 0.463014 0.594998 0.374476
C40   C     C_R   0.334325 0.485938 0.493654 0.033771
C41   C     C_R   0.273387 0.402550 0.643469 0.073932
C42   C     C_R   0.935315 0.550576 0.164025 -0.252322
C43   C     C_R   0.997636 0.498004 0.232250 -0.064157
C44   C     C_R   0.057479 0.442421 0.208173 -0.254693
C45   C     C_R   0.055060 0.438504 0.116280 0.115924
C46   C     C_R   0.993468 0.492331 0.047518 0.093115
Cu1   Cu    Cu3+1 0.098270 0.475420 0.521130 0.947453
Cu2   Cu    Cu3+1 0.901730 0.524580 0.478870 0.978090
H1    H     H_    0.889484 0.593984 0.182759 0.144739
H2    H     H_    0.482394 0.199229 0.285689 0.140925
H3    H     H_    0.264345 0.063350 0.289952 0.131809
H4    H     H_    0.370833 0.814961 0.558852 0.145889
H5    H     H_    0.902369 0.120753 0.624029 0.143038
H6    H     H_    0.553354 0.841781 0.585339 0.131046
H7    H     H_    0.761549 0.916611 0.658795 0.138523
H8    H     H_    0.694195 0.264713 0.355053 0.144303
H9    H     H_    0.203560 0.365887 0.689306 0.185175
H10   H     H_    0.621799 0.453709 0.727599 0.184498
H11   H     H_    0.413157 0.395643 0.752146 0.153081
H12   H     H_    0.104737 0.400902 0.261019 0.154213
H13   H     H_    0.309193 0.515141 0.422945 0.121322
H14   H     H_    0.822296 0.656614 0.320674 0.119078
H15   H     H_    0.468461 0.618048 0.347215 0.134993
H16   H     H_    0.640062 0.690357 0.257422 0.140565
H17   H     H_    0.160742 0.339910 0.144451 0.143128
H18   H     H_    0.156400 0.333103 0.983769 0.185545
H19   H     H_    0.892565 0.592955 0.741297 0.166472
H20   H     H_    0.827033 0.644737 0.858295 0.138044
H21   H     H_    0.826937 0.646390 0.020427 0.140247
H22   H     H_    0.104703 0.877597 0.352952 0.144056
N1    N     N_R   0.246280 0.438190 0.553160 -0.195040
N2    N     N_R   0.754320 0.561190 0.447410 -0.203206
O1    O     O_R   0.972510 0.318130 0.526570 -0.602634
O2    O     O_R   0.806530 0.359650 0.490890 -0.491199
O3    O     O_R   0.082980 0.479210 0.647590 -0.559211
O4    O     O_R   0.917000 0.520730 0.611900 -0.579186
O5    O     O_R   0.193470 0.640350 0.509110 -0.580560
O6    O     O_R   0.027490 0.681870 0.473430 -0.592890
O7    O     O_R   0.083000 0.479270 0.388100 -0.596382
O8    O     O_R   0.917020 0.520790 0.352410 -0.611788
S1    S     S_3+6 0.630241 0.314210 0.617493 0.019838
O9    O     O_2   0.743171 0.296524 0.656946 -0.303793
O10   O     O_2   0.537950 0.247802 0.686060 -0.296238
O11   O     O_3   0.567371 0.260036 0.519760 -0.518637
H23   H     H_    0.486451 0.262329 0.505661 0.341408
O12   O     O_3   0.097744 0.365870 0.814553 -0.602729
C47   C     C_3   0.004671 0.253575 0.807237 -0.340462
H24   H     H_    0.961971 0.209663 0.872366 0.170440
H25   H     H_    0.046456 0.201755 0.792895 0.173543
H26   H     H_    0.933040 0.254849 0.749204 0.202761

loop_
_geom_bond_atom_site_label_1
_geom_bond_atom_site_label_2
_ccdc_geom_bond_type
C16   C28   A    
C21   C26   A    
C40   N1    A    
Cu2   O4    S    
C19   C20   A    
C25   H8    S    
Cu1   O7    S    
C47   H24   S    
S1    O9    D    
C7    C8    A    
C45   C46   A    
C2    C46   A    
C1    O2    A    
C36   C37   A    
C19   C21   A    
C9    H21   S    
C5    C6    A    
C20   C25   A    
C33   C36   A    
C18   C19   A    
Cu2   O6    S    
C16   H5    S    
C34   O8    A    
C38   H10   S    
Cu1   Cu2   S    
C8    C9    A    
C1    C28   S    
C14   C27   A    
C17   H7    S    
Cu1   O1    S    
C41   N1    A    
C15   C23   S    
C21   C22   A    
C3    H17   S    
Cu2   N2    S    
S1    O10   D    
C24   H2    S    
C38   C39   A    
C44   H12   S    
Cu2   O2    S    
C36   C40   A    
C24   C25   A    
C39   S1    S    
O12   C47   S    
C16   C17   A    
C15   C26   A    
C20   C28   A    
C3    C45   A    
C23   O5    A    
C40   H13   S    
C35   C39   A    
C43   C44   A    
C37   C38   A    
C26   H4    S    
C34   O7    A    
C15   C27   A    
C14   H3    S    
C17   C18   A    
O11   H23   S    
Cu1   N1    S    
C27   H22   S    
C35   N2    A    
C8    H20   S    
C12   O4    A    
C22   C24   A    
C47   H26   S    
C42   C43   A    
Cu1   O5    S    
C3    C4    A    
S1    O11   S    
C44   C45   A    
C13   H19   S    
C10   O12   S    
C6    C46   A    
C29   C41   A    
C31   H16   S    
C31   C32   A    
C34   C43   S    
C32   H15   S    
C4    C5    A    
C30   N2    A    
C11   C12   S    
C6    C7    A    
C1    O1    A    
C32   C33   A    
C14   C22   A    
C30   H14   S    
C41   H9    S    
C5    C10   A    
C4    H18   S    
C11   C13   A    
Cu2   O8    S    
C30   C31   A    
C2    C42   A    
C33   C35   A    
C23   O6    A    
C10   C11   A    
C18   H6    S    
C42   H1    S    
Cu1   O3    S    
C7    C13   A    
C12   O3    A    
C29   C37   A    
C47   H25   S    
C29   H11   S    
C2    C9    A    
