data_mof_unit_8018.cif
_audit_creation_date              2012-12-10T17:07:52-0500
_audit_creation_method            fapswitch 2.2
_symmetry_space_group_name_H-M    P1
_symmetry_Int_Tables_number       1
_space_group_crystal_system       triclinic
_cell_length_a                    10.715545
_cell_length_b                    10.606633
_cell_length_c                    10.111285
_cell_angle_alpha                 88.48541
_cell_angle_beta                  89.581153
_cell_angle_gamma                 90.026996
_cell_volume                      1148.77427206

loop_
_atom_site_label
_atom_site_type_symbol
_atom_type_description
_atom_site_fract_x
_atom_site_fract_y
_atom_site_fract_z
_atom_type_partial_charge
C1    C     C_R   0.515355 0.263972 0.501803 1.021909
C2    C     C_2   0.527067 0.594898 0.067164 0.256360
C3    C     C_R   0.258020 0.499095 0.500163 0.973503
C4    C     C_R   0.498306 0.737548 0.497870 0.873147
C5    C     C_R   0.741643 0.499329 0.499779 1.033772
C6    C     C_3   0.072267 0.374909 0.582564 0.155374
C7    C     C_3   0.924535 0.384046 0.592481 0.648740
C8    C     C_3   0.070885 0.622956 0.561166 -0.339510
C9    C     C_3   0.071182 0.491893 0.352234 0.720798
C10   C     C_3   0.120999 0.495985 0.500509 -0.135332
C11   C     C_2   0.644605 0.120656 0.282710 0.475773
C12   C     C_3   0.877895 0.497889 0.501370 -0.128087
C13   C     C_2   0.402610 0.702303 0.880192 0.365735
C14   C     C_2   0.610469 0.697972 0.106355 0.359496
C15   C     C_2   0.115305 0.253726 0.516463 0.484222
C16   C     C_2   0.113417 0.652300 0.700029 0.409312
C17   C     C_2   0.858058 0.690386 0.659990 0.569101
C18   C     C_3   0.927061 0.629803 0.545221 -0.357843
C19   C     C_3   0.927994 0.477204 0.357825 -0.584375
C20   C     C_2   0.597134 0.929836 0.430612 0.354437
C21   C     C_2   0.497644 0.872137 0.488434 0.255363
C22   C     C_2   0.596603 0.067094 0.410570 -0.134130
C23   C     C_2   0.552261 0.134324 0.511050 -0.191277
C24   C     C_2   0.480767 0.596167 0.927584 0.088757
H1    H     H_    0.884825 0.544248 0.285132 0.243996
H2    H     H_    0.354685 0.696517 0.787373 0.152553
H3    H     H_    0.603635 0.361395 0.826742 0.396259
H4    H     H_    0.611536 0.786664 0.050503 0.092509
H5    H     H_    0.061642 0.212794 0.437751 0.130730
H6    H     H_    0.391014 0.367221 0.179644 0.395310
H7    H     H_    0.882212 0.205183 0.615375 0.362744
H8    H     H_    0.934602 0.462716 0.767401 0.329378
H9    H     H_    0.116898 0.581528 0.778537 0.152289
H10   H     H_    0.854791 0.646845 0.757774 0.069753
H11   H     H_    0.046410 0.670811 0.291415 0.326724
H12   H     H_    0.110683 0.702062 0.499581 0.198359
H13   H     H_    0.095172 0.395605 0.191884 0.379315
H14   H     H_    0.909243 0.696102 0.460049 0.217773
H15   H     H_    0.538534 0.088840 0.607898 0.187087
H16   H     H_    0.900491 0.381747 0.325280 0.264282
H17   H     H_    0.093905 0.295295 0.758760 0.381026
H18   H     H_    0.766770 0.917352 0.362151 0.345828
H19   H     H_    0.327747 0.876464 0.557305 0.357048
H20   H     H_    0.639095 0.064831 0.194510 0.084120
N1    N     N_2   0.501360 0.501330 0.852150 0.035447
N2    N     N_2   0.501390 0.501360 0.147810 0.077939
O1    O     O_R   0.499980 0.319060 0.613040 -0.617906
O2    O     O_3   0.699040 0.859238 0.391646 -0.729303
O3    O     O_3   0.390272 0.937470 0.521106 -0.755937
O4    O     O_2   0.697826 0.222431 0.276159 -0.526093
O5    O     O_2   0.387005 0.795420 0.946817 -0.548945
O6    O     O_3   0.580922 0.414605 0.901960 -0.609105
O7    O     O_2   0.684737 0.682401 0.195839 -0.515848
O8    O     O_2   0.212365 0.201819 0.549551 -0.502077
O9    O     O_3   0.418140 0.418587 0.101769 -0.611578
O10   O     O_3   0.868359 0.272831 0.547228 -0.798155
O11   O     O_3   0.883208 0.398642 0.724539 -0.739106
O12   O     O_R   0.500020 0.319100 0.386900 -0.603272
O13   O     O_2   0.138494 0.760910 0.727118 -0.548336
O14   O     O_2   0.805561 0.791656 0.643623 -0.543699
O15   O     O_3   0.107779 0.602239 0.279336 -0.720704
O16   O     O_3   0.121732 0.388325 0.285723 -0.762679
O17   O     O_R   0.314770 0.499960 0.613070 -0.604110
O18   O     O_R   0.314820 0.500000 0.386930 -0.567498
O19   O     O_R   0.499980 0.680900 0.613100 -0.679414
O20   O     O_R   0.500020 0.680940 0.386960 -0.585271
O21   O     O_R   0.685180 0.500000 0.613070 -0.617800
O22   O     O_R   0.685230 0.500040 0.386930 -0.564069
O23   O     O_3   0.124680 0.372167 0.710405 -0.743926
Zn1   Zn    Zn3+2 0.499970 0.499970 0.650990 1.031208
Zn2   Zn    Zn3+2 0.500030 0.500030 0.349010 1.107905

loop_
_geom_bond_atom_site_label_1
_geom_bond_atom_site_label_2
_ccdc_geom_bond_type
N2    O9    S    
C6    C10   S    
C6    O23   S    
O1    Zn1   S    
C15   H5    S    
C6    C7    S    
C3    O17   A    
C16   H9    S    
C2    N2    D    
C9    C10   S    
C11   C22   S    
N1    Zn1   S    
O20   Zn2   S    
O17   Zn1   S    
C5    O21   A    
O21   Zn1   S    
C21   O3    S    
C17   C18   S    
C18   H14   S    
C2    C14   S    
C11   H20   S    
C8    C16   S    
C11   O4    D    
H18   O2    S    
C3    O18   A    
C20   C21   D    
C4    O20   A    
C4    C21   S    
N2    Zn2   S    
C4    O19   A    
H8    O11   S    
O22   Zn2   S    
C23   H15   S    
C24   N1    D    
C7    O10   S    
C12   C19   S    
H17   O23   S    
C9    C19   S    
C1    C23   S    
H7    O10   S    
C19   H16   S    
C5    O22   A    
C2    C24   S    
C7    C12   S    
C19   H1    S    
C9    O15   S    
O12   Zn2   S    
C17   H10   S    
C13   H2    S    
C17   O14   D    
H19   O3    S    
C9    O16   S    
C15   O8    D    
C13   O5    D    
C14   O7    D    
H3    O6    S    
C5    C12   S    
H11   O15   S    
C8    H12   S    
O18   Zn2   S    
C12   C18   S    
C3    C10   S    
H13   O16   S    
C22   C23   D    
C1    O1    A    
C20   O2    S    
N1    O6    S    
C14   H4    S    
C6    C15   S    
C1    O12   A    
H6    O9    S    
C7    O11   S    
C8    C10   S    
C8    C18   S    
O19   Zn1   S    
C13   C24   S    
C20   C22   S    
C16   O13   D    
