data_mof_unit_59954.cif
_audit_creation_date              2012-12-11T15:41:26-0500
_audit_creation_method            fapswitch 2.2
_symmetry_space_group_name_H-M    P1
_symmetry_Int_Tables_number       1
_space_group_crystal_system       triclinic
_cell_length_a                    15.066639
_cell_length_b                    15.101702
_cell_length_c                    14.894636
_cell_angle_alpha                 108.835839
_cell_angle_beta                  109.711781
_cell_angle_gamma                 110.482588
_cell_volume                      2588.4156782

loop_
_atom_site_label
_atom_site_type_symbol
_atom_type_description
_atom_site_fract_x
_atom_site_fract_y
_atom_site_fract_z
_atom_type_partial_charge
C1    C     C_R   0.249633 0.062295 0.972037 -0.098364
C2    C     C_R   0.675949 0.783950 0.331729 -0.109657
C3    C     C_R   0.389319 0.220484 0.680902 -0.125625
C4    C     C_R   0.608663 0.701954 0.221228 -0.111027
C5    C     C_R   0.353234 0.285981 0.729804 0.114283
C6    C     C_R   0.655573 0.676958 0.157004 0.098153
C7    C     C_R   0.241010 0.252111 0.675783 -0.161033
C8    C     C_R   0.770453 0.734977 0.204629 -0.176856
C9    C     C_R   0.166398 0.154087 0.575710 -0.104060
C10   C     C_R   0.837226 0.818861 0.314548 -0.115289
C11   C     C_R   0.202997 0.089213 0.528534 -0.095502
C12   C     C_R   0.796578 0.991963 0.083374 -0.100685
C13   C     C_R   0.789980 0.843190 0.378175 -0.103621
C14   C     C_R   0.431021 0.484018 0.852923 -0.212800
C15   C     C_R   0.589137 0.491866 0.025669 -0.201714
C16   C     C_R   0.748069 0.222021 0.314636 -0.122385
C17   C     C_R   0.195611 0.789916 0.699237 -0.136410
C18   C     C_R   0.505189 0.580139 0.955006 0.074197
C19   C     C_R   0.510592 0.393856 0.927472 0.059491
C20   C     C_R   0.584982 0.584149 0.042422 0.022397
C21   C     C_R   0.432371 0.388582 0.837790 0.021126
C22   C     C_R   0.869942 0.525969 0.428767 -0.151187
C23   C     C_R   0.773245 0.324161 0.325495 0.046455
C24   C     C_R   0.964184 0.521298 0.622305 -0.158859
C25   C     C_R   0.962562 0.619444 0.521926 -0.161854
C26   C     C_R   0.871754 0.427846 0.529051 -0.156908
C27   C     C_R   0.016515 0.614124 0.615569 0.138449
C28   C     C_R   0.832438 0.426925 0.428852 0.140942
C29   C     C_R   0.598617 0.948121 0.573178 -0.149906
C30   C     C_R   0.399913 0.843228 0.377886 -0.165895
C31   C     C_R   0.599137 0.949451 0.481246 -0.207578
C32   C     C_R   0.399489 0.844489 0.471009 -0.164942
C33   C     C_R   0.499608 0.904939 0.385829 0.138370
C34   C     C_R   0.132135 0.696342 0.697049 0.047099
C35   C     C_R   0.498772 0.907303 0.571659 0.149494
C36   C     C_R   0.040986 0.949935 0.012346 -0.258967
C37   C     C_R   0.042008 0.145001 0.091801 -0.259848
C38   C     C_R   0.946786 0.945884 0.005267 0.215622
C39   C     C_R   0.136934 0.148619 0.097599 0.222045
C40   C     C_R   0.408470 0.906121 0.209367 -0.132753
C41   C     C_R   0.591108 0.027651 0.777385 -0.114325
C42   C     C_R   0.948222 0.044096 0.046021 0.015334
C43   C     C_R   0.135308 0.050191 0.057834 0.010694
C44   C     C_R   0.592760 0.296700 0.993421 -0.154769
C45   C     C_R   0.499764 0.936436 0.303190 0.050542
C46   C     C_R   0.407259 0.684579 0.946801 -0.145425
C47   C     C_R   0.591196 0.997131 0.300791 -0.134032
C48   C     C_R   0.406993 0.934484 0.685063 -0.129232
C49   C     C_R   0.410008 0.208952 0.905482 -0.093761
C50   C     C_R   0.591975 0.779340 0.034035 -0.077464
C51   C     C_R   0.747652 0.313410 0.222360 -0.116191
C52   C     C_R   0.196632 0.698846 0.790473 -0.128452
C53   C     C_R   0.253693 0.972961 0.066761 -0.138860
C54   C     C_R   0.797102 0.082588 0.990747 -0.134013
C55   C     C_R   0.224002 0.044644 0.047924 0.122953
C56   C     C_R   0.498619 0.950134 0.674325 0.040108
C57   C     C_R   0.851232 0.040232 0.040098 0.104713
C58   C     C_R   0.503074 0.299356 0.933976 0.051358
C59   C     C_R   0.500300 0.676414 0.970425 0.060464
C60   C     C_R   0.314371 0.122413 0.581055 -0.107709
H1    H     H_    0.230217 0.107900 0.933710 0.115776
H2    H     H_    0.925595 0.864121 0.350740 0.104854
H3    H     H_    0.372428 0.483784 0.785954 0.133930
H4    H     H_    0.646991 0.494568 0.095504 0.130157
H5    H     H_    0.836234 0.529913 0.354568 0.111333
H6    H     H_    0.999490 0.516211 0.695422 0.107899
H7    H     H_    0.996702 0.691779 0.515890 0.108188
H8    H     H_    0.839628 0.354422 0.533852 0.108705
H9    H     H_    0.677067 0.990032 0.647621 0.112703
H10   H     H_    0.321558 0.802624 0.303686 0.109831
H11   H     H_    0.677893 0.993026 0.488948 0.110231
H12   H     H_    0.825978 0.965029 0.140055 0.105244
H13   H     H_    0.321007 0.805694 0.465600 0.110171
H14   H     H_    0.038872 0.873656 0.977189 0.162624
H15   H     H_    0.041061 0.220015 0.122697 0.158769
H16   H     H_    0.758354 0.200133 0.377978 0.093000
H17   H     H_    0.167505 0.822029 0.647790 0.086435
H18   H     H_    0.324015 0.846181 0.176506 0.085293
H19   H     H_    0.675926 0.062201 0.799115 0.092866
H20   H     H_    0.677369 0.349377 0.018838 0.097160
H21   H     H_    0.322466 0.619232 0.901963 0.102091
H22   H     H_    0.675051 0.020483 0.351958 0.088233
H23   H     H_    0.342687 0.072130 0.544439 0.116965
H24   H     H_    0.321471 0.881615 0.621550 0.094614
H25   H     H_    0.325454 0.181892 0.851535 0.100749
H26   H     H_    0.676757 0.801355 0.067018 0.126623
H27   H     H_    0.757313 0.375875 0.199978 0.091755
H28   H     H_    0.170055 0.647287 0.823314 0.085256
H29   H     H_    0.237594 0.936426 0.115281 0.107934
H30   H     H_    0.827077 0.137824 0.962463 0.094997
H31   H     H_    0.145064 0.013246 0.451266 0.098346
H32   H     H_    0.841747 0.907064 0.463713 0.103369
H33   H     H_    0.639633 0.800106 0.381651 0.132539
H34   H     H_    0.475423 0.245168 0.720171 0.116874
H35   H     H_    0.520454 0.656303 0.186386 0.123598
H36   H     H_    0.210905 0.300514 0.711944 0.110007
H37   H     H_    0.807857 0.715527 0.156372 0.136205
H38   H     H_    0.080028 0.128113 0.534968 0.104602
I1    I     I_    0.804543 0.787528 0.921565 -0.470543
I2    I     I_    0.278334 0.302251 0.166473 -0.441673
N1    N     N_R   0.293810 0.002730 0.945950 -0.050064
N2    N     N_R   0.443210 0.997250 0.791090 -0.041283
N3    N     N_R   0.443180 0.152110 0.945950 -0.040144
N4    N     N_R   0.556820 0.847890 0.054050 -0.048105
N5    N     N_R   0.706170 0.208950 0.152090 -0.043527
N6    N     N_R   0.293830 0.791050 0.847910 -0.036647
N7    N     N_R   0.293800 0.945910 0.002760 -0.046341
N8    N     N_R   0.706200 0.054090 0.997240 -0.040028
N9    N     N_R   0.706190 0.997270 0.054050 -0.042188
N10   N     N_R   0.706160 0.152130 0.208910 -0.044009
N11   N     N_R   0.293840 0.847870 0.791090 -0.037626
N12   N     N_R   0.443140 0.945920 0.152090 -0.036356
N13   N     N_R   0.556860 0.054080 0.847910 -0.042566
N14   N     N_R   0.556830 0.208940 0.002760 -0.036270
N15   N     N_R   0.443170 0.791060 0.997240 -0.041399
N16   N     N_R   0.556790 0.002750 0.208910 -0.037750
Ni1   Ni    Ni4+2 0.369690 0.999990 0.869700 0.218913
Ni2   Ni    Ni4+2 0.630310 0.000010 0.130300 0.220213
Ni3   Ni    Ni4+2 0.369670 0.869670 0.000000 0.215619
Ni4   Ni    Ni4+2 0.630330 0.130330 0.000000 0.215521

loop_
_geom_bond_atom_site_label_1
_geom_bond_atom_site_label_2
_ccdc_geom_bond_type
N1    N7    A    
N5    N10   A    
C8    C10   A    
C50   N4    A    
C9    H38   S    
N6    Ni3   S    
C33   C45   S    
C14   C18   A    
C25   H7    S    
C24   C27   A    
N10   Ni2   S    
C16   N10   A    
C40   N12   A    
N3    Ni1   S    
C15   C19   A    
C7    H36   S    
C46   N15   A    
C50   C59   A    
C14   C21   A    
C19   C21   A    
C24   C26   A    
C54   H30   S    
C41   C56   A    
C46   C59   A    
C60   H23   S    
C47   H22   S    
N4    N15   A    
N8    N9    A    
C48   C56   A    
C45   C47   A    
C37   C42   A    
C2    C13   A    
N8    Ni4   S    
C44   C58   A    
C22   C25   A    
C15   H4    S    
C31   C33   A    
N5    Ni4   S    
C29   H9    S    
C24   H6    S    
C3    C60   A    
C31   H11   S    
C12   H12   S    
C44   N14   A    
C19   C58   S    
C22   C28   A    
C10   H2    S    
C17   N11   A    
C42   C57   S    
N7    Ni3   S    
C12   N9    A    
C30   H10   S    
N9    Ni2   S    
N4    Ni2   S    
N6    N11   A    
C53   C55   A    
C27   C34   S    
C47   N16   A    
C32   C35   A    
C49   H25   S    
C44   H20   S    
N3    N14   A    
C4    C6    A    
C51   H27   S    
C32   H13   S    
C5    C7    A    
C39   C43   A    
C49   C58   A    
C48   H24   S    
C15   C20   A    
C2    C4    A    
C8    H37   S    
C22   H5    S    
C49   N3    A    
C46   H21   S    
C53   N7    A    
C23   C51   A    
C52   H28   S    
C51   N5    A    
C48   N2    A    
C17   H17   S    
C23   C28   S    
C9    C11   A    
N2    Ni1   S    
C36   H14   S    
C12   C57   A    
C43   C55   S    
C16   C23   A    
N15   Ni3   S    
C13   H32   S    
C53   H29   S    
C40   H18   S    
C17   C34   A    
C4    H35   S    
C11   C60   A    
C1    N1    A    
N12   N16   A    
C7    C9    A    
C30   C33   A    
C35   C56   S    
C16   H16   S    
C34   C52   A    
C2    H33   S    
C41   N13   A    
C38   I1    S    
C3    C5    A    
C10   C13   A    
C1    H1    S    
C41   H19   S    
N12   Ni3   S    
C6    C8    A    
C38   C42   A    
C25   C27   A    
C6    C20   S    
C29   C35   A    
C26   C28   A    
C54   N8    A    
N11   Ni1   S    
C26   H8    S    
C36   C38   A    
C1    C55   A    
N1    Ni1   S    
C29   C31   A    
N2    N13   A    
C30   C32   A    
C39   I2    S    
N13   Ni4   S    
C14   H3    S    
N16   Ni2   S    
C3    H34   S    
C18   C20   A    
C37   H15   S    
C50   H26   S    
C52   N6    A    
C11   H31   S    
C18   C59   S    
C5    C21   S    
C40   C45   A    
C37   C39   A    
C36   C43   A    
N14   Ni4   S    
C54   C57   A    
