data_mof_unit_47984.cif
_audit_creation_date              2012-12-11T18:07:02-0500
_audit_creation_method            fapswitch 2.2
_symmetry_space_group_name_H-M    P1
_symmetry_Int_Tables_number       1
_space_group_crystal_system       triclinic
_cell_length_a                    8.341868
_cell_length_b                    12.710654
_cell_length_c                    27.103898
_cell_angle_alpha                 97.374322
_cell_angle_beta                  92.250082
_cell_angle_gamma                 81.487456
_cell_volume                      2818.07292407

loop_
_atom_site_label
_atom_site_type_symbol
_atom_type_description
_atom_site_fract_x
_atom_site_fract_y
_atom_site_fract_z
_atom_type_partial_charge
Ba1   Ba    Ba6+2 0.859560 0.448380 0.523550 1.836887
Ba2   Ba    Ba6+2 0.330270 0.551530 0.476440 1.778946
C1    C     C_3   0.648602 0.082025 0.671512 -0.394799
C2    C     C_3   0.683200 0.166219 0.639764 0.300943
C3    C     C_3   0.448331 0.744669 0.630585 0.644547
C4    C     C_3   0.343247 0.821089 0.668185 -0.310976
C5    C     C_3   0.053044 0.778716 0.337697 0.579741
C6    C     C_3   0.114113 0.794163 0.286935 0.349959
C7    C     C_3   0.480064 0.825544 0.367932 0.385196
C8    C     C_3   0.455140 0.937855 0.351917 0.625518
C9    C     C_R   0.036031 0.417570 0.179343 0.670215
C10   C     C_R   0.903915 0.598934 0.182306 0.704831
C11   C     C_2   0.741911 0.522382 0.269822 0.411023
C12   C     C_3   0.163678 0.212376 0.656995 0.311985
C13   C     C_3   0.698025 0.519062 0.323653 -0.069800
C14   C     C_1   0.986809 0.476605 0.342705 -0.009093
C15   C     C_2   0.028248 0.477433 0.295827 -0.151764
C16   C     C_2   0.900853 0.504302 0.256460 0.177413
C17   C     C_R   0.029064 0.509324 0.104675 -0.163238
C18   C     C_R   0.082854 0.417808 0.129363 -0.070517
C19   C     C_R   0.181306 0.329465 0.102992 0.437067
C20   C     C_R   0.938312 0.600916 0.131355 -0.092336
C21   C     C_2   0.843433 0.524188 0.358473 -0.256635
C22   C     C_2   0.348356 0.465972 0.641001 0.141151
C23   C     C_3   0.152953 0.179064 0.708487 -0.334769
C24   C     C_R   0.187179 0.414415 0.974901 0.037310
C25   C     C_R   0.051004 0.600920 0.977266 0.037589
C26   C     C_R   0.136379 0.507006 0.950555 0.060787
C27   C     C_R   0.265403 0.321302 0.946055 -0.095118
C28   C     C_R   0.297878 0.320581 0.896089 -0.052372
C29   C     C_R   0.253157 0.412156 0.872007 -0.024536
C30   C     C_R   0.171468 0.505427 0.898943 -0.083949
C31   C     C_R   0.125085 0.596853 0.874247 -0.042588
C32   C     C_R   0.163143 0.594164 0.823268 0.616627
C33   C     C_R   0.288544 0.411307 0.821381 0.574521
C34   C     C_3   0.055992 0.211971 0.385774 0.225933
C35   C     C_2   0.441692 0.456320 0.730304 -0.072407
C36   C     C_3   0.465735 0.412347 0.676631 -0.032497
C37   C     C_1   0.208499 0.522301 0.656945 -0.021131
C38   C     C_2   0.167006 0.532252 0.704937 -0.167149
C39   C     C_2   0.289990 0.499283 0.744994 0.208842
C40   C     C_R   0.156726 0.416963 0.026715 -0.019662
C41   C     C_R   0.066257 0.509146 0.053197 0.057892
C42   C     C_R   0.012639 0.600939 0.028522 -0.017856
C43   C     C_R   0.216586 0.330244 0.053256 -0.106969
C44   C     C_R   0.884344 0.691040 0.105908 0.437042
C45   C     C_3   0.008125 0.149612 0.336982 -0.304197
C46   C     C_R   0.007170 0.691707 0.951356 -0.086116
C47   C     C_R   0.043278 0.689481 0.901281 -0.048444
C48   C     C_R   0.920787 0.689870 0.056016 -0.104538
C49   C     C_R   0.761437 0.819630 0.480792 -0.285837
C50   C     C_R   0.408540 0.177395 0.504814 0.150061
C51   C     C_R   0.413408 0.009799 0.536742 -0.165961
C52   C     C_R   0.336427 0.112745 0.532277 0.002749
C53   C     C_R   0.568341 0.148829 0.489235 0.027124
C54   C     C_R   0.639448 0.039603 0.487715 -0.110632
C55   C     C_R   0.557219 0.968720 0.510795 -0.084110
C56   C     C_3   0.954064 0.773014 0.583786 0.289877
C57   C     C_R   0.619471 0.858559 0.506713 0.008338
C58   C     C_R   0.848104 0.888794 0.460579 0.079346
C59   C     C_R   0.785424 0.997684 0.462603 -0.015359
C60   C     C_3   0.942156 0.894408 0.593422 0.460114
C61   C     C_3   0.634606 0.307695 0.371055 0.331047
C62   C     C_3   0.558254 0.273430 0.320733 -0.243806
H1    H     H_    0.767592 0.127709 0.609820 0.076630
H2    H     H_    0.118959 0.106375 0.317777 0.172589
H3    H     H_    0.929672 0.089974 0.345108 0.178137
H4    H     H_    0.940278 0.205096 0.312055 0.118714
H5    H     H_    0.831611 0.750300 0.582814 -0.018853
H6    H     H_    0.013493 0.744984 0.547446 0.038442
H7    H     H_    0.929381 0.922016 0.633777 0.045156
H8    H     H_    0.836061 0.933694 0.573591 -0.067929
H9    H     H_    0.748237 0.337068 0.364217 -0.159802
H10   H     H_    0.554126 0.375007 0.390531 0.088996
H11   H     H_    0.599841 0.015673 0.647688 0.091200
H12   H     H_    0.639698 0.207097 0.300106 0.166693
H13   H     H_    0.536589 0.341439 0.298497 0.081944
H14   H     H_    0.441290 0.245597 0.325713 0.154066
H15   H     H_    0.566124 0.196958 0.621720 -0.039204
H16   H     H_    0.557511 0.118738 0.699894 0.134029
H17   H     H_    0.370928 0.694032 0.606726 0.008664
H18   H     H_    0.257953 0.877880 0.648892 0.150749
H19   H     H_    0.273397 0.775742 0.689803 0.112413
H20   H     H_    0.419423 0.868167 0.694328 0.131406
H21   H     H_    0.761214 0.049452 0.690759 0.136646
H22   H     H_    0.167779 0.247746 0.737164 0.129834
H23   H     H_    0.120743 0.703414 0.348301 -0.003056
H24   H     H_    0.243488 0.802063 0.289188 0.034998
H25   H     H_    0.101285 0.722344 0.259989 0.060561
H26   H     H_    0.586336 0.819256 0.393763 0.003404
H27   H     H_    0.371447 0.816750 0.388286 -0.048704
H28   H     H_    0.438652 0.998421 0.385436 -0.110015
H29   H     H_    0.075215 0.286313 0.654703 0.071519
H30   H     H_    0.345237 0.949939 0.327841 0.016520
H31   H     H_    0.154526 0.458438 0.285600 0.148704
H32   H     H_    0.535901 0.433677 0.757328 0.114551
H33   H     H_    0.358808 0.246849 0.876209 0.129160
H34   H     H_    0.301336 0.246016 0.960566 0.084685
H35   H     H_    0.295457 0.261071 0.036580 0.118558
H36   H     H_    0.945912 0.767162 0.968739 0.087096
H37   H     H_    0.288900 0.228985 0.651980 -0.044578
H38   H     H_    0.006659 0.761597 0.883720 0.129572
H39   H     H_    0.042574 0.561682 0.715315 0.156441
H40   H     H_    0.872077 0.760746 0.039484 0.116845
H41   H     H_    0.830048 0.567182 0.395737 0.073572
H42   H     H_    0.354807 0.961467 0.558224 0.175345
H43   H     H_    0.851030 0.047427 0.443885 0.089196
H44   H     H_    0.809151 0.735257 0.478506 0.043274
H45   H     H_    0.032368 0.154433 0.713129 0.150856
H46   H     H_    0.249330 0.110715 0.713751 0.116111
H47   H     H_    0.103739 0.153494 0.412078 0.079237
H48   H     H_    0.949043 0.261782 0.402395 0.070831
N1    N     N_R   0.947694 0.507052 0.205062 -0.442866
N2    N     N_R   0.245453 0.502059 0.797195 -0.420687
O1    O     O_2   0.907040 0.557650 0.617910 -0.404742
O2    O     O_3   0.669212 0.217951 0.397118 -0.632601
O3    O     O_3   0.125578 0.128795 0.621470 -0.567837
O4    O     O_2   0.282660 0.442310 0.382060 -0.456308
O5    O     O_3   0.050670 0.442340 0.442260 -0.430552
O6    O     O_3   0.504750 0.639360 0.411530 -0.507424
O7    O     O_3   0.180156 0.271139 0.377523 -0.589967
O8    O     O_3   0.618400 0.630290 0.524520 -0.453176
O9    O     O_3   0.090070 0.694820 0.435810 -0.493849
O10   O     O_2   0.181004 0.884838 0.465859 -0.466669
O11   O     O_3   0.073565 0.866578 0.373612 -0.641740
O12   O     O_3   0.139040 0.557570 0.557730 -0.413885
O13   O     O_3   0.571310 0.369620 0.475470 -0.408885
O14   O     O_2   0.348200 0.764910 0.523260 -0.436278
O15   O     O_3   0.535430 0.805053 0.604354 -0.663138
O16   O     O_2   0.360669 0.578235 0.326911 -0.501685
O17   O     O_3   0.504976 0.745982 0.326409 -0.521221
O18   O     O_2   0.070830 0.336953 0.199872 -0.499750
O19   O     O_2   0.357917 0.328780 0.798729 -0.621217
O20   O     O_2   0.835092 0.679078 0.206728 -0.418651
O21   O     O_2   0.125110 0.674387 0.802500 -0.579411
O22   O     O_3   0.684960 0.360550 0.588460 -0.415965
O23   O     O_2   0.799941 0.445878 0.676547 -0.446734
O24   O     O_3   0.042698 0.729330 0.622871 -0.661261
O25   O     O_3   0.757441 0.245275 0.669919 -0.607545
O26   O     O_2   0.841490 0.235060 0.476710 -0.491925
O27   O     O_3   0.099640 0.305100 0.564190 -0.408011
O28   O     O_2   0.001547 0.117191 0.532205 -0.444791
P1    P     P_3+3 0.072810 0.589830 0.610360 1.078025
P2    P     P_3+3 0.661990 0.251250 0.462170 1.056531
P3    P     P_3+3 0.140650 0.165235 0.561960 1.099783
P4    P     P_3+3 0.116900 0.410080 0.389630 1.070631
P5    P     P_3+3 0.047933 0.833976 0.433950 0.997035
P6    P     P_3+3 0.678202 0.371611 0.653643 1.068259
P7    P     P_3+3 0.531054 0.764676 0.539910 0.970798
P8    P     P_3+3 0.519395 0.618878 0.346870 1.039942
F1    F     F_    0.080289 0.924994 0.576928 -0.710575
Cl1   Cl    Cl    0.588761 0.661087 0.664305 -0.705846
Cl2   Cl    Cl    0.846980 0.763625 0.330356 -0.628501
Cl3   Cl    Cl    0.006857 0.909127 0.262778 -0.453348
F2    F     F_    0.587794 0.954429 0.326484 -0.589197
Cl4   Cl    Cl    0.271852 0.214491 0.129877 -0.494403
Cl5   Cl    Cl    0.584232 0.530348 0.224379 -0.596029
Cl6   Cl    Cl    0.764434 0.809115 0.133226 -0.436881
Cl7   Cl    Cl    0.368157 0.404980 0.579932 -0.637875
Cl8   Cl    Cl    0.285376 0.280398 0.479422 -0.596239

loop_
_geom_bond_atom_site_label_1
_geom_bond_atom_site_label_2
_ccdc_geom_bond_type
C25   C46   A    
C56   C60   S    
C53   C54   A    
C48   H40   S    
C4    H18   S    
C1    H21   S    
C62   H13   S    
O23   P6    D    
C17   C18   A    
C39   N2    S    
C9    O18   D    
C33   O19   D    
Ba2   O4    S    
C22   Cl7   S    
C5    C6    S    
C51   C52   A    
O5    P4    S    
O15   P7    S    
C28   H33   S    
C57   P7    S    
C35   C36   S    
C3    Cl1   S    
C11   C16   D    
C33   N2    Am   
O3    P3    S    
O24   P1    S    
C28   C29   A    
C55   C57   A    
C14   C15   D    
C8    H30   S    
C31   C47   A    
C21   H41   S    
C10   C20   A    
O12   P1    S    
C22   C37   D    
C54   C55   A    
C34   C45   S    
C14   P4    S    
Ba1   Ba2   S    
Ba1   O5    S    
C11   Cl5   S    
C2    H1    S    
O2    P2    S    
C51   H42   S    
C5    H23   S    
C50   C52   A    
C49   H44   S    
C34   H48   S    
C22   C36   S    
C15   H31   S    
C58   P5    S    
Ba1   O22   S    
C6    Cl3   S    
C7    C8    S    
C12   H29   S    
C50   C53   A    
O27   P3    S    
Ba2   O13   S    
C56   O24   S    
C7    O17   S    
C8    H28   S    
C10   O20   D    
O28   P3    D    
C7    H27   S    
C9    N1    Am   
C1    H16   S    
C25   C42   A    
C16   N1    S    
C45   H3    S    
C24   C26   A    
C17   C41   A    
C31   C32   A    
C19   C43   A    
Ba2   O8    S    
C32   N2    Am   
C46   H36   S    
O10   P5    D    
O1    P1    D    
O25   P6    S    
C4    H20   S    
C60   F1    S    
O8    P7    S    
O26   P2    D    
O4    P4    D    
C17   C20   A    
Ba1   O12   S    
C2    H15   S    
O11   P5    S    
C37   C38   D    
C51   C55   A    
C56   H6    S    
C12   H37   S    
C61   H9    S    
Ba2   O9    S    
C9    C18   A    
C4    H19   S    
C35   H32   S    
C58   C59   A    
C6    H24   S    
C40   C43   A    
C8    F2    S    
C41   C42   A    
O16   P8    D    
C27   C28   A    
Ba1   P1    S    
C3    H17   S    
C29   C30   A    
C5    Cl2   S    
C26   C30   A    
C12   O3    S    
C34   H47   S    
C15   C16   S    
C62   H12   S    
C60   H8    S    
C5    O11   S    
C36   P6    S    
O22   P6    S    
Ba1   O26   S    
C23   H46   S    
C52   P3    S    
C61   O2    S    
Ba2   O12   S    
C38   C39   S    
C20   C44   A    
O9    P5    S    
C14   C21   D    
C11   C13   S    
C43   H35   S    
C29   C33   A    
C49   C57   A    
C40   C41   A    
C13   C21   S    
C1    C2    S    
C45   H4    S    
C47   H38   S    
C1    H11   S    
C24   C40   A    
C10   N1    Am   
C42   C48   A    
C46   C47   A    
Ba2   O6    S    
C53   P2    S    
C45   H2    S    
O7    P4    S    
C62   H14   S    
Ba1   O13   S    
C37   P1    S    
C7    H26   S    
Ba2   O5    S    
C56   H5    S    
C6    H25   S    
C61   H10   S    
C23   H45   S    
Ba2   P4    S    
C44   C48   A    
O6    P8    S    
C30   C31   A    
C34   O7    S    
Ba1   P2    S    
C38   H39   S    
C3    C4    S    
C32   O21   D    
C3    O15   S    
C23   H22   S    
C19   Cl4   S    
C27   H34   S    
C60   H7    S    
O13   P2    S    
C12   C23   S    
C35   C39   D    
C59   H43   S    
Ba1   O27   S    
C61   C62   S    
O14   P7    D    
C18   C19   A    
C24   C27   A    
C25   C26   A    
C54   C59   A    
O17   P8    S    
C49   C58   A    
Ba1   O1    S    
C50   Cl8   S    
C13   P8    S    
Ba1   O8    S    
Ba2   O14   S    
C2    O25   S    
C44   Cl6   S    
