data_mof_unit_6485.cif
_audit_creation_date              2012-12-10T17:57:50-0500
_audit_creation_method            fapswitch 2.2
_symmetry_space_group_name_H-M    P1
_symmetry_Int_Tables_number       1
_space_group_crystal_system       triclinic
_cell_length_a                    10.831877
_cell_length_b                    9.519066
_cell_length_c                    15.046986
_cell_angle_alpha                 90.052773
_cell_angle_beta                  90.091628
_cell_angle_gamma                 90.03438
_cell_volume                      1551.48205429

loop_
_atom_site_label
_atom_site_type_symbol
_atom_type_description
_atom_site_fract_x
_atom_site_fract_y
_atom_site_fract_z
_atom_type_partial_charge
C1    C     C_R   0.262063 0.499976 0.499892 0.775877
C2    C     C_R   0.737937 0.500024 0.500108 0.775877
C3    C     C_R   0.325515 0.664904 0.041005 -0.194973
C4    C     C_R   0.674489 0.335107 0.958995 -0.194970
C5    C     C_R   0.063784 0.372389 0.502536 -0.183614
C6    C     C_R   0.936216 0.627611 0.497464 -0.183614
C7    C     C_R   0.936068 0.372424 0.502753 -0.190917
C8    C     C_R   0.063932 0.627576 0.497247 -0.190916
C9    C     C_R   0.871779 0.500033 0.500165 -0.018332
C10   C     C_R   0.128221 0.499967 0.499835 -0.018332
C11   C     C_R   0.421769 0.074279 0.445874 -0.019817
C12   C     C_R   0.578231 0.925721 0.554126 -0.019816
C13   C     C_R   0.578232 0.074554 0.554129 -0.016281
C14   C     C_R   0.421768 0.925446 0.445871 -0.016282
C15   C     C_R   0.495413 0.499930 0.328957 0.807371
C16   C     C_R   0.504587 0.500070 0.671043 0.807371
C17   C     C_R   0.599150 0.420959 0.815088 0.108062
C18   C     C_R   0.400851 0.579042 0.184912 0.108063
C19   C     C_R   0.510380 0.500582 0.767538 -0.095795
C20   C     C_R   0.489621 0.499419 0.232462 -0.095793
C21   C     C_R   0.423488 0.582532 0.812330 -0.278901
C22   C     C_R   0.576516 0.417474 0.187670 -0.278903
C23   C     C_R   0.419282 0.583384 0.904572 0.110969
C24   C     C_R   0.580723 0.416625 0.095428 0.110969
C25   C     C_R   0.502956 0.500252 0.953253 0.028270
C26   C     C_R   0.497049 0.499757 0.046747 0.028271
C27   C     C_R   0.592725 0.418104 0.908707 0.097879
C28   C     C_R   0.407278 0.581903 0.091293 0.097875
C29   C     C_R   0.331467 0.665318 0.948676 -0.211678
C30   C     C_R   0.668538 0.334693 0.051323 -0.211681
Cu1   Cu    Cu3+1 0.500000 0.640660 0.500000 0.943679
Cu2   Cu    Cu3+1 0.500000 0.359340 0.500000 0.943677
H1    H     H_    0.357231 0.644180 0.774775 0.154546
H2    H     H_    0.642774 0.355827 0.225225 0.154545
H3    H     H_    0.267040 0.729876 0.911652 0.145814
H4    H     H_    0.732965 0.270136 0.088348 0.145815
H5    H     H_    0.256757 0.730640 0.072464 0.169494
H6    H     H_    0.743247 0.269372 0.927535 0.169499
H7    H     H_    0.111769 0.272631 0.504611 0.149742
H8    H     H_    0.888231 0.727369 0.495389 0.149742
H9    H     H_    0.887968 0.272685 0.505005 0.149080
H10   H     H_    0.112032 0.727315 0.494995 0.149080
H11   H     H_    0.359105 0.130265 0.402510 0.121690
H12   H     H_    0.640895 0.869735 0.597490 0.121690
H13   H     H_    0.640900 0.130746 0.597494 0.126373
H14   H     H_    0.359100 0.869254 0.402506 0.126378
N1    N     N_R   0.500000 0.852070 0.500000 -0.160697
N2    N     N_R   0.500000 0.147930 0.500000 -0.160696
O1    O     O_R   0.319640 0.618740 0.499990 -0.595679
O2    O     O_R   0.680360 0.381260 0.500010 -0.595681
O3    O     O_R   0.680360 0.618740 0.500010 -0.587783
O4    O     O_R   0.319640 0.381260 0.499990 -0.587783
O5    O     O_R   0.499970 0.618800 0.370260 -0.572813
O6    O     O_R   0.500030 0.381200 0.629740 -0.572818
O7    O     O_R   0.500030 0.618800 0.629740 -0.581469
O8    O     O_R   0.499970 0.381200 0.370260 -0.581470
N3    N     N_3   0.698192 0.347338 0.770809 -0.603952
H15   H     H_    0.697734 0.362613 0.702296 0.218972
H16   H     H_    0.781159 0.392443 0.792162 0.204885
N4    N     N_3   0.301805 0.652655 0.229192 -0.603947
H17   H     H_    0.302256 0.637362 0.297703 0.218965
H18   H     H_    0.218840 0.607559 0.207829 0.204887

loop_
_geom_bond_atom_site_label_1
_geom_bond_atom_site_label_2
_ccdc_geom_bond_type
C13   N2    A    
C11   H11   S    
C14   N1    A    
C25   C27   A    
C29   H3    S    
C26   C28   A    
Cu1   Cu2   S    
C30   H4    S    
C8    H10   S    
C15   O8    A    
C4    C27   A    
C6    C9    A    
C5    H7    S    
C11   N2    A    
C16   O7    A    
C4    C30   A    
C5    C10   A    
C14   H14   S    
Cu1   N1    S    
Cu1   O5    S    
N4    H18   S    
C13   H13   S    
Cu2   N2    S    
Cu2   O2    S    
N3    H15   S    
Cu1   O1    S    
C12   N1    A    
C23   C29   A    
C18   N4    S    
C3    C28   A    
C11   C14   A    
C4    H6    S    
C22   C24   A    
C23   C25   A    
C21   C23   A    
C16   C19   S    
C15   C20   S    
C22   H2    S    
C1    O4    A    
C16   O6    A    
N3    H16   S    
C24   C30   A    
C21   H1    S    
C2    O3    A    
C20   C22   A    
C17   C19   A    
C17   C27   A    
C15   O5    A    
C6    H8    S    
C18   C28   A    
C12   C13   A    
C3    H5    S    
C18   C20   A    
C3    C29   A    
Cu2   O6    S    
C5    C7    A    
C7    C9    A    
C12   H12   S    
C6    C8    A    
C2    O2    A    
Cu1   O7    S    
C25   C26   A    
C17   N3    S    
C2    C9    S    
C1    O1    A    
Cu2   O8    S    
C8    C10   A    
Cu2   O4    S    
C1    C10   S    
C24   C26   A    
C7    H9    S    
Cu1   O3    S    
N4    H17   S    
C19   C21   A    
