data_mof_unit_19744.cif
_audit_creation_date              2013-03-05T15:48:15-0500
_audit_creation_method            fapswitch 2.2
_symmetry_space_group_name_H-M    P1
_symmetry_Int_Tables_number       1
_space_group_crystal_system       triclinic
_cell_length_a                    11.649636
_cell_length_b                    13.001227
_cell_length_c                    15.785459
_cell_angle_alpha                 92.493763
_cell_angle_beta                  72.976125
_cell_angle_gamma                 99.941727
_cell_volume                      2251.70687095

loop_
_atom_site_label
_atom_site_type_symbol
_atom_site_description
_atom_site_fract_x
_atom_site_fract_y
_atom_site_fract_z
_atom_type_partial_charge
O1    O     O_R   0.419950 0.645670 0.495380 -0.602802
O2    O     O_R   0.580050 0.354330 0.504620 -0.602809
O3    O     O_R   0.611110 0.658410 0.506370 -0.587008
O4    O     O_R   0.388890 0.341590 0.493630 -0.587004
C1    C     C_R   0.520888 0.700888 0.501225 0.804841
C2    C     C_R   0.479112 0.299112 0.498775 0.804835
O5    O     O_R   0.350820 0.490050 0.621260 -0.523293
O6    O     O_R   0.649180 0.509950 0.378740 -0.523297
O7    O     O_R   0.541970 0.502800 0.632250 -0.596978
O8    O     O_R   0.458030 0.497200 0.367750 -0.596976
C3    C     C_R   0.425179 0.493646 0.668798 0.820008
C4    C     C_R   0.574821 0.506351 0.331202 0.819994
Cu1   Cu    Cu3+1 0.386820 0.492450 0.493500 0.968809
Cu2   Cu    Cu3+1 0.613180 0.507550 0.506500 0.968804
C5    C     C_R   0.377678 0.483512 0.766262 -0.213166
C6    C     C_R   0.622324 0.516466 0.233738 -0.213173
C7    C     C_R   0.221540 0.427298 0.903061 -0.187556
C8    C     C_R   0.778479 0.572614 0.096931 -0.187632
C9    C     C_R   0.256236 0.439690 0.811059 0.337277
C10   C     C_R   0.743773 0.560262 0.188937 0.337416
C11   C     C_R   0.460932 0.511475 0.815021 -0.207989
C12   C     C_R   0.539071 0.488496 0.184980 -0.207982
C13   C     C_R   0.430968 0.487510 0.905627 0.051839
C14   C     C_R   0.569042 0.512440 0.094368 0.051898
C15   C     C_R   0.306896 0.452852 0.950980 -0.089812
C16   C     C_R   0.693120 0.547068 0.049013 -0.089944
C17   C     C_R   0.519969 0.501351 0.952786 -0.160082
C18   C     C_R   0.480043 0.498594 0.047208 -0.159989
C19   C     C_R   0.352332 0.484311 0.090888 0.332797
C20   C     C_R   0.647679 0.515620 0.909105 0.333032
C21   C     C_R   0.268569 0.449370 0.043681 0.353017
C22   C     C_R   0.731448 0.550523 0.956311 0.352993
H1    H     H_    0.451487 0.444475 0.218877 0.212792
H2    H     H_    0.548512 0.555509 0.781129 0.212808
H3    H     H_    0.126840 0.398068 0.936889 0.205744
H4    H     H_    0.873186 0.601812 0.063103 0.205643
C23   C     C_R   0.467118 0.185676 0.497957 -0.048246
C24   C     C_R   0.532882 0.814324 0.502043 -0.048250
C25   C     C_R   0.650837 0.984917 0.510820 -0.213530
C26   C     C_R   0.349163 0.015083 0.489180 -0.213529
C27   C     C_R   0.640281 0.876794 0.509861 -0.181255
C28   C     C_R   0.359719 0.123206 0.490139 -0.181257
C29   C     C_R   0.436022 0.860669 0.495106 -0.266931
C30   C     C_R   0.563978 0.139331 0.504894 -0.266932
C31   C     C_R   0.445876 0.968701 0.496036 0.174024
C32   C     C_R   0.554124 0.031299 0.503964 0.174025
H5    H     H_    0.647203 0.187079 0.511022 0.149996
H6    H     H_    0.352797 0.812921 0.488979 0.149998
H7    H     H_    0.283968 0.157776 0.484666 0.160544
H8    H     H_    0.716032 0.842224 0.515335 0.160545
H9    H     H_    0.734289 0.032119 0.516932 0.137152
H10   H     H_    0.265711 0.967881 0.483068 0.137153
N1    N     N_R   0.216750 0.481110 0.483710 -0.188516
N2    N     N_R   0.783250 0.518890 0.516290 -0.188546
C33   C     C_R   0.941198 0.601578 0.578452 -0.305739
C34   C     C_R   0.058808 0.398432 0.421537 -0.305765
C35   C     C_R   0.822455 0.591094 0.571402 0.112915
C36   C     C_R   0.177549 0.408912 0.428591 0.112854
C37   C     C_R   0.858983 0.455007 0.466963 0.085897
C38   C     C_R   0.141018 0.544994 0.533034 0.085889
C39   C     C_R   0.979253 0.462790 0.471746 0.044033
C40   C     C_R   0.020750 0.537215 0.528248 0.043994
H11   H     H_    0.174210 0.601684 0.576316 0.132925
H12   H     H_    0.825789 0.398316 0.423683 0.132937
H13   H     H_    0.238598 0.359078 0.389812 0.124748
H14   H     H_    0.761408 0.640932 0.610178 0.124775
H15   H     H_    0.970384 0.659423 0.622663 0.139733
H16   H     H_    0.029626 0.340598 0.377314 0.139803
O9    O     O_3   0.145870 0.426533 0.088939 -0.541602
C41   C     C_3   0.120210 0.322690 0.120599 0.086778
H17   H     H_    0.174276 0.312222 0.166417 0.153656
H18   H     H_    0.139938 0.267124 0.064425 0.125345
C42   C     C_3   0.985940 0.296148 0.171436 -0.726801
H19   H     H_    0.928960 0.308733 0.128584 0.254965
H20   H     H_    0.963703 0.213113 0.193123 0.182066
H21   H     H_    0.965092 0.346160 0.230938 0.272052
O10   O     O_3   0.854147 0.573282 0.911042 -0.541539
C43   C     C_3   0.879961 0.677213 0.879578 0.086557
H22   H     H_    0.860651 0.732648 0.935874 0.125512
H23   H     H_    0.825674 0.688027 0.834009 0.153351
C44   C     C_3   0.014131 0.703556 0.828455 -0.726347
H24   H     H_    0.034522 0.653733 0.768815 0.271854
H25   H     H_    0.036544 0.786666 0.806980 0.181981
H26   H     H_    0.071316 0.690550 0.871017 0.255123
N3    N     N_R   0.833395 0.592071 0.234725 0.134105
O11   O     O_R   0.893107 0.687132 0.224801 -0.375310
O12   O     O_R   0.875478 0.521590 0.267390 -0.373720
N4    N     N_R   0.166610 0.407904 0.765271 0.134124
O13   O     O_R   0.124532 0.478401 0.732622 -0.373662
O14   O     O_R   0.106889 0.312845 0.775183 -0.375273
O15   O     O_3   0.305643 0.506826 0.179534 -0.585939
C45   C     C_3   0.301994 0.614873 0.187656 0.111957
H27   H     H_    0.243772 0.638206 0.149429 0.177249
H28   H     H_    0.395277 0.661438 0.164099 0.132312
C46   C     C_3   0.247896 0.640336 0.284631 -0.723026
H29   H     H_    0.304758 0.619267 0.324531 0.251956
H30   H     H_    0.244629 0.725200 0.291853 0.191025
H31   H     H_    0.153952 0.596214 0.309817 0.276536
O16   O     O_3   0.694361 0.493129 0.820453 -0.585792
C47   C     C_3   0.698000 0.385082 0.812307 0.111979
H32   H     H_    0.604716 0.338520 0.835858 0.132279
H33   H     H_    0.756222 0.361726 0.850524 0.177271
C48   C     C_3   0.752092 0.359643 0.715324 -0.723027
H34   H     H_    0.846036 0.403765 0.690142 0.276528
H35   H     H_    0.755355 0.274780 0.708085 0.191012
H36   H     H_    0.695227 0.380729 0.675434 0.251966

loop_
_geom_bond_atom_site_label_1
_geom_bond_atom_site_label_2
_geom_bond_distance
_ccdc_geom_bond_type
C15   C21   1.399618 A    
C25   H9    1.083896 S    
C16   C22   1.399630 A    
C42   H19   1.111315 S    
C46   H29   1.110173 S    
C8    C16   1.405637 A    
C35   H14   1.081656 S    
C44   H24   1.109702 S    
C46   H31   1.110477 S    
C25   C27   1.389601 A    
C31   C32   1.413299 A    
O5    C3    1.295880 A    
C37   H12   1.082589 S    
C38   H11   1.082589 S    
O1    C1    1.293407 A    
C18   C19   1.427759 A    
C14   C16   1.414927 A    
O9    C41   1.411998 S    
N3    O11   1.300811 A    
C43   H23   1.114912 S    
C33   C40   1.402559 A    
C23   C28   1.403963 A    
C38   C40   1.411156 A    
O4    Cu1   1.965769 S    
C47   H32   1.114235 S    
C22   O10   1.384066 S    
C3    C5    1.478021 S    
C4    C6    1.478008 S    
O6    Cu2   1.936453 S    
C41   H17   1.115006 S    
C13   C17   1.427381 A    
C29   H6    1.084711 S    
C30   H5    1.084710 S    
C6    C10   1.413191 A    
C26   C28   1.389600 A    
Cu1   Cu2   2.677515 S    
C17   C20   1.427758 A    
C42   H20   1.110579 S    
O2    C2    1.293407 A    
C47   H33   1.114825 S    
C44   H25   1.110528 S    
N1    C38   1.367103 A    
C30   C32   1.389132 A    
Cu1   N1    2.011821 S    
N2    C37   1.367106 A    
N3    O12   1.300056 A    
C26   C31   1.398711 A    
C37   C39   1.411157 A    
C24   C27   1.403963 A    
O4    C2    1.292527 A    
C9    N4    1.431872 S    
O15   C45   1.411835 S    
C43   H22   1.114868 S    
C11   H2    1.077159 S    
C34   H16   1.083170 S    
C20   O16   1.383214 S    
C47   C48   1.520920 S    
C5    C9    1.413197 A    
O7    Cu2   1.913393 S    
C29   C31   1.389132 A    
C36   H13   1.081656 S    
O16   C47   1.411840 S    
C21   O9    1.384089 S    
O6    C4    1.295871 A    
C10   N3    1.431872 S    
C41   C42   1.520688 S    
C45   H28   1.114235 S    
C2    C23   1.457043 S    
C48   H35   1.110314 S    
O7    C3    1.299464 A    
O3    Cu2   1.965770 S    
O8    C4    1.299466 A    
C25   C32   1.398712 A    
Cu2   N2    2.011820 S    
N4    O14   1.300813 A    
C11   C13   1.404802 A    
C42   H21   1.109866 S    
C12   C14   1.404801 A    
O1    Cu1   1.963208 S    
C27   H8    1.083143 S    
C19   O15   1.383216 S    
C44   H26   1.111149 S    
C12   H1    1.077152 S    
C6    C12   1.398659 A    
C34   C39   1.402560 A    
C14   C18   1.427383 A    
O3    C1    1.292525 A    
O8    Cu1   1.913393 S    
C33   H15   1.083156 S    
N1    C36   1.363913 A    
C46   H30   1.110314 S    
C7    C15   1.405634 A    
C23   C30   1.400406 A    
C33   C35   1.402938 A    
C24   C29   1.400406 A    
C19   C21   1.398968 A    
C26   H10   1.083896 S    
C20   C22   1.398941 A    
C43   C44   1.520609 S    
C5    C11   1.398667 A    
C45   H27   1.114826 S    
C7    C9    1.397378 A    
C34   C36   1.402945 A    
C48   H36   1.110169 S    
C8    C10   1.397370 A    
C45   C46   1.520921 S    
C39   C40   1.407594 A    
O2    Cu2   1.963206 S    
C28   H7    1.083142 S    
O5    Cu1   1.936451 S    
C13   C15   1.414922 A    
N4    O13   1.300058 A    
C48   H34   1.110476 S    
O10   C43   1.411950 S    
C41   H18   1.115027 S    
C7    H3    1.083794 S    
C1    C24   1.457043 S    
C8    H4    1.083788 S    
C17   C18   1.425534 A    
N2    C35   1.363906 A    
