data_mof_unit_47895.cif
_audit_creation_date              2012-12-10T20:38:15-0500
_audit_creation_method            fapswitch 2.2
_symmetry_space_group_name_H-M    P1
_symmetry_Int_Tables_number       1
_space_group_crystal_system       triclinic
_cell_length_a                    9.872788
_cell_length_b                    10.660005
_cell_length_c                    17.105031
_cell_angle_alpha                 89.529653
_cell_angle_beta                  85.656597
_cell_angle_gamma                 89.770945
_cell_volume                      1794.96049834

loop_
_atom_site_label
_atom_site_type_symbol
_atom_type_description
_atom_site_fract_x
_atom_site_fract_y
_atom_site_fract_z
_atom_type_partial_charge
C1    C     C_R   0.500186 0.739600 0.497329 0.917702
C2    C     C_R   0.409313 0.403273 0.782796 -0.009512
C3    C     C_R   0.475288 0.620888 0.144952 -0.232696
C4    C     C_R   0.462223 0.612502 0.226094 -0.014749
C5    C     C_R   0.614434 0.428159 0.219154 -0.076108
C6    C     C_R   0.628445 0.442415 0.138033 -0.108819
C7    C     C_R   0.556229 0.536071 0.101332 0.154451
C8    C     C_2   0.568218 0.443410 0.971837 -0.260254
C9    C     C_2   0.559035 0.545171 0.016709 -0.214725
C10   C     C_R   0.530588 0.513902 0.263533 -0.143541
C11   C     C_R   0.395498 0.935626 0.532300 0.093289
C12   C     C_R   0.481971 0.498587 0.652098 0.845231
C13   C     C_R   0.498942 0.871584 0.489535 -0.112575
C14   C     C_R   0.595042 0.937092 0.439057 -0.016300
C15   C     C_R   0.595807 0.067698 0.443340 -0.178946
C16   C     C_R   0.499333 0.128827 0.493758 -0.107420
C17   C     C_R   0.393615 0.063346 0.532823 0.101661
C18   C     C_3   0.343114 0.069343 0.617340 -0.444555
C19   C     C_3   0.346084 0.926677 0.617445 -0.224322
C20   C     C_R   0.919653 0.517189 0.567962 0.194173
C21   C     C_R   0.936862 0.472103 0.434110 -0.105334
C22   C     C_R   0.080652 0.472240 0.434081 -0.073737
C23   C     C_R   0.500226 0.260353 0.499583 0.862385
C24   C     C_R   0.062201 0.516571 0.568212 0.090472
C25   C     C_3   0.059550 0.628654 0.620232 -0.249531
C26   C     C_3   0.905492 0.628972 0.619582 -0.498341
C27   C     C_R   0.518338 0.502582 0.348024 0.890733
C28   C     C_R   0.478466 0.496798 0.736674 -0.132538
C29   C     C_R   0.575533 0.572842 0.768215 -0.174280
C30   C     C_R   0.616702 0.550094 0.842624 0.015421
C31   C     C_R   0.547608 0.457357 0.889145 0.049257
C32   C     C_R   0.444581 0.385975 0.859747 -0.090496
H1    H     H_    0.627245 0.644054 0.731621 0.196227
H2    H     H_    0.693649 0.378918 0.103177 0.180506
H3    H     H_    0.671337 0.121594 0.408400 0.190704
H4    H     H_    0.417298 0.114326 0.654067 0.220539
H5    H     H_    0.238498 0.108573 0.624919 0.204147
H6    H     H_    0.243316 0.884668 0.626448 0.166084
H7    H     H_    0.890122 0.451310 0.380572 0.158524
H8    H     H_    0.108641 0.712178 0.591070 0.188277
H9    H     H_    0.850767 0.605793 0.676964 0.214471
H10   H     H_    0.865009 0.712192 0.589252 0.233944
H11   H     H_    0.538875 0.636395 0.990878 0.174122
H12   H     H_    0.391869 0.316691 0.897428 0.188649
H13   H     H_    0.421574 0.694022 0.115231 0.138270
N1    N     N_R   0.857140 0.500860 0.500530 -0.105577
N2    N     N_R   0.142780 0.500820 0.500530 -0.109750
O1    O     O_R   0.385310 0.683210 0.499990 -0.581421
O2    O     O_R   0.614650 0.683240 0.500000 -0.636762
O3    O     O_R   0.371780 0.500000 0.615800 -0.635592
O4    O     O_R   0.601120 0.500040 0.615800 -0.607948
O5    O     O_R   0.385350 0.316760 0.500000 -0.621116
O6    O     O_R   0.614690 0.316790 0.500010 -0.613112
O7    O     O_R   0.398880 0.499960 0.384200 -0.589236
O8    O     O_R   0.628220 0.500000 0.384200 -0.653624
Zn1   Zn    Zn3+2 0.346870 0.499980 0.499990 0.980000
Zn2   Zn    Zn3+2 0.653130 0.500020 0.500010 0.963868
C33   C     C_2   0.692940 0.872391 0.382421 0.464107
H14   H     H_    0.681664 0.773694 0.369755 0.097564
O9    O     O_2   0.786762 0.929431 0.347938 -0.548849
C34   C     C_2   0.447253 0.870566 0.669855 0.455435
H15   H     H_    0.413695 0.800763 0.713464 0.119657
O10   O     O_2   0.566188 0.903065 0.664480 -0.553440
H16   H     H_    0.141466 0.451621 0.380480 0.157714
C35   C     C_2   0.106933 0.598178 0.699655 0.520893
H17   H     H_    0.072620 0.513365 0.730585 0.063132
O11   O     O_2   0.183475 0.669065 0.730264 -0.589559
C36   C     C_2   0.378084 0.710825 0.267590 0.399030
H18   H     H_    0.302033 0.760977 0.236791 0.084240
O12   O     O_2   0.396201 0.741779 0.334378 -0.593622
C37   C     C_2   0.682905 0.320196 0.255807 0.416752
H19   H     H_    0.657876 0.294766 0.316572 0.058588
O13   O     O_2   0.767670 0.256961 0.218067 -0.539790
C38   C     C_2   0.305472 0.320284 0.751759 0.346059
H20   H     H_    0.277332 0.329444 0.692128 0.083823
O14   O     O_2   0.248900 0.239244 0.793086 -0.552585
H21   H     H_    0.570203 0.349681 0.997165 0.178831
C39   C     C_2   0.736424 0.618159 0.868849 0.381290
H22   H     H_    0.784125 0.587790 0.920874 0.099609
O15   O     O_2   0.784410 0.708326 0.832095 -0.539064

loop_
_geom_bond_atom_site_label_1
_geom_bond_atom_site_label_2
_ccdc_geom_bond_type
C10   C27   S    
C27   O7    A    
C11   C19   S    
C38   O14   D    
C12   C28   S    
C2    C32   A    
C28   C29   A    
C18   H5    S    
C3    C7    A    
C25   H8    S    
C5    C6    A    
C39   O15   D    
C33   O9    D    
C15   C16   A    
C29   H1    S    
O2    Zn2   S    
C7    C9    S    
C18   C19   S    
C34   O10   D    
C36   H18   S    
C20   C24   A    
C16   C17   A    
C35   O11   D    
O4    Zn2   S    
C2    C38   S    
C22   N2    A    
C13   C14   A    
C24   N2    A    
C15   H3    S    
C23   O6    A    
C14   C33   S    
O7    Zn1   S    
C9    H11   S    
C38   H20   S    
C25   C35   S    
C24   C25   S    
C4    C36   S    
O6    Zn2   S    
C39   H22   S    
C8    C9    D    
C25   C26   S    
C3    H13   S    
O3    Zn1   S    
C6    H2    S    
C29   C30   A    
C19   H6    S    
C31   C32   A    
C21   H7    S    
C17   C18   S    
C32   H12   S    
C16   C23   S    
O8    Zn2   S    
N1    Zn2   S    
C8    H21   S    
C1    C13   S    
C4    C10   A    
C3    C4    A    
C12   O4    A    
C26   H10   S    
C37   O13   D    
C21   N1    A    
O1    Zn1   S    
C11   C17   A    
C8    C31   S    
C12   O3    A    
C1    O1    A    
C6    C7    A    
C33   H14   S    
C5    C10   A    
C5    C37   S    
C11   C13   A    
C18   H4    S    
C23   O5    A    
C30   C31   A    
C20   C26   S    
C19   C34   S    
C27   O8    A    
C34   H15   S    
C22   H16   S    
C30   C39   S    
C37   H19   S    
C36   O12   D    
C35   H17   S    
C14   C15   A    
C2    C28   A    
C21   C22   A    
C1    O2    A    
C20   N1    A    
O5    Zn1   S    
C26   H9    S    
N2    Zn1   S    
