data_mof_unit_42924.cif
_audit_creation_date              2013-03-05T16:41:06-0500
_audit_creation_method            fapswitch 2.2
_symmetry_space_group_name_H-M    P1
_symmetry_Int_Tables_number       1
_space_group_crystal_system       triclinic
_cell_length_a                    18.658749
_cell_length_b                    18.535416
_cell_length_c                    18.949086
_cell_angle_alpha                 109.621758
_cell_angle_beta                  109.820212
_cell_angle_gamma                 108.760627
_cell_volume                      5057.61685214

loop_
_atom_site_label
_atom_site_type_symbol
_atom_site_description
_atom_site_fract_x
_atom_site_fract_y
_atom_site_fract_z
_atom_type_partial_charge
O1    O     O_R   0.408360 0.551710 0.460090 -0.632855
O2    O     O_R   0.408400 0.448280 0.356670 -0.611052
C1    C     C_R   0.380908 0.502181 0.380656 0.943319
O3    O     O_R   0.591600 0.643340 0.551710 -0.615270
O4    O     O_R   0.591630 0.539900 0.448290 -0.604080
C2    C     C_R   0.620164 0.620748 0.500524 0.930123
Zn1   Zn    Zn3+2 0.499980 0.569060 0.569060 1.026908
Zn2   Zn    Zn3+2 0.500020 0.430940 0.430940 1.002577
O5    O     O_R   0.591600 0.551720 0.643330 -0.628164
O6    O     O_R   0.591640 0.448290 0.539910 -0.599208
O7    O     O_R   0.408370 0.460100 0.551710 -0.615993
O8    O     O_R   0.408400 0.356660 0.448290 -0.611926
C3    C     C_R   0.616447 0.495835 0.619475 0.915613
C4    C     C_R   0.380275 0.379474 0.500116 0.933137
H1    H     H_    0.827357 0.809739 0.895534 0.142614
C5    C     C_R   0.826420 0.868316 0.814944 -0.109871
H2    H     H_    0.847987 0.932735 0.865649 0.124564
C6    C     C_R   0.810032 0.854355 0.732588 -0.099447
H3    H     H_    0.820724 0.909396 0.721379 0.142579
C7    C     C_R   0.780335 0.770308 0.665445 0.115540
C8    C     C_R   0.773258 0.702288 0.684541 -0.098243
H4    H     H_    0.755431 0.638399 0.635775 0.097829
C9    C     C_R   0.789501 0.716707 0.767099 -0.139222
H5    H     H_    0.782317 0.664109 0.781208 0.132021
C10   C     C_R   0.815090 0.799158 0.831890 -0.148081
C11   C     C_R   0.825196 0.816124 0.573220 -0.245190
H6    H     H_    0.885348 0.868938 0.632407 0.152124
C12   C     C_R   0.812316 0.809459 0.494266 -0.040069
C13   C     C_R   0.734723 0.742552 0.415897 -0.001356
C14   C     C_R   0.668315 0.683302 0.418784 -0.020215
C15   C     C_R   0.684110 0.688298 0.499395 -0.103411
C16   C     C_R   0.762100 0.756602 0.577631 -0.038075
C17   C     C_R   0.690687 0.778529 0.298123 -0.177104
H7    H     H_    0.671459 0.820099 0.333690 0.141008
C18   C     C_R   0.683376 0.773638 0.220679 -0.167863
H8    H     H_    0.658627 0.811484 0.197669 0.122037
C19   C     C_R   0.708392 0.720853 0.173528 0.202795
C20   C     C_R   0.738093 0.670718 0.203547 -0.262014
H9    H     H_    0.755824 0.628487 0.166238 0.128187
C21   C     C_R   0.745544 0.674659 0.281253 -0.004830
C22   C     C_R   0.724495 0.731983 0.330869 0.064761
H10   H     H_    0.485025 0.908665 0.592491 0.142918
C23   C     C_R   0.403153 0.771007 0.545381 0.046199
C24   C     C_R   0.361377 0.685079 0.475852 -0.105212
H11   H     H_    0.318215 0.630620 0.476838 0.177693
C25   C     C_R   0.372147 0.669328 0.403197 0.099479
C26   C     C_R   0.423589 0.741119 0.399838 -0.149271
H12   H     H_    0.430001 0.730897 0.343040 0.149267
C27   C     C_R   0.462989 0.826799 0.467620 -0.190808
H13   H     H_    0.500131 0.881999 0.463427 0.153727
C28   C     C_R   0.453650 0.841750 0.540447 -0.197324
C29   C     C_R   0.251960 0.576507 0.253745 -0.246784
H14   H     H_    0.252013 0.636309 0.257493 0.152239
C30   C     C_R   0.185164 0.495222 0.182254 -0.066550
C31   C     C_R   0.178532 0.415807 0.178686 -0.000960
C32   C     C_R   0.246171 0.421341 0.244490 -0.280333
H15   H     H_    0.244998 0.361364 0.241297 0.150528
C33   C     C_R   0.313372 0.502923 0.316213 -0.048954
C34   C     C_R   0.314070 0.581634 0.323652 0.030965
C35   C     C_R   0.062859 0.267094 0.132798 -0.164829
H16   H     H_    0.085257 0.285969 0.200202 0.119270
C36   C     C_R   0.993536 0.182529 0.068885 -0.132268
H17   H     H_    0.963438 0.136973 0.087162 0.128814
C37   C     C_R   0.963196 0.156751 0.981498 -0.120797
H18   H     H_    0.909425 0.091466 0.932022 0.126279
C38   C     C_R   0.002009 0.215506 0.957955 -0.124201
H19   H     H_    0.978388 0.195449 0.890220 0.138199
C39   C     C_R   0.071161 0.300153 0.021793 -0.103812
H20   H     H_    0.099664 0.345158 0.002741 0.109154
C40   C     C_R   0.102700 0.326916 0.109873 0.128313
H21   H     H_    0.156628 0.559092 0.459990 0.151694
C41   C     C_R   0.202072 0.514489 0.548434 -0.053195
H22   H     H_    0.202582 0.563736 0.599837 0.187246
C42   C     C_R   0.226644 0.453557 0.561057 0.035038
C43   C     C_R   0.224924 0.389979 0.492037 0.050364
C44   C     C_R   0.199699 0.389531 0.413040 -0.148758
H23   H     H_    0.197366 0.340815 0.359590 0.110940
C45   C     C_R   0.175013 0.450140 0.401659 -0.170075
H24   H     H_    0.154457 0.448628 0.340257 0.150377
C46   C     C_R   0.175856 0.512210 0.469066 -0.162060
C47   C     C_R   0.177846 0.252522 0.495729 -0.263990
H25   H     H_    0.120866 0.257215 0.494200 0.157146
C48   C     C_R   0.186794 0.181071 0.495925 -0.074285
C49   C     C_R   0.259305 0.172422 0.496887 -0.092254
C50   C     C_R   0.325569 0.239372 0.500730 -0.064762
C51   C     C_R   0.315631 0.312144 0.500801 -0.098684
C52   C     C_R   0.241457 0.318432 0.498019 -0.050981
C53   C     C_R   0.324973 0.096423 0.562545 -0.119587
H26   H     H_    0.362821 0.155857 0.625146 0.123642
C54   C     C_R   0.338479 0.024596 0.553348 -0.151456
H27   H     H_    0.385435 0.028070 0.608851 0.128723
C55   C     C_R   0.292543 0.948851 0.472168 -0.146073
H28   H     H_    0.303627 0.893594 0.465017 0.137083
C56   C     C_R   0.230992 0.943712 0.400559 -0.134334
H29   H     H_    0.194828 0.884645 0.337929 0.147954
C57   C     C_R   0.216933 0.015204 0.409580 -0.167100
H30   H     H_    0.170778 0.011533 0.353379 0.110336
C58   C     C_R   0.264867 0.092460 0.490360 0.111966
H31   H     H_    0.416633 0.513691 0.813009 0.158564
C59   C     C_R   0.544092 0.587425 0.832489 -0.124202
H32   H     H_    0.550090 0.650700 0.867543 0.135627
C60   C     C_R   0.611703 0.583024 0.818185 -0.127665
H33   H     H_    0.669707 0.643170 0.842038 0.127760
C61   C     C_R   0.604029 0.501074 0.772585 0.118885
C62   C     C_R   0.528748 0.423720 0.742623 -0.113054
H34   H     H_    0.522936 0.360138 0.709371 0.166041
C63   C     C_R   0.460961 0.428316 0.756475 -0.166860
H35   H     H_    0.402684 0.368489 0.732739 0.133613
C64   C     C_R   0.468751 0.510137 0.801598 -0.102142
C65   C     C_R   0.742367 0.497614 0.820939 -0.264166
H36   H     H_    0.740016 0.501124 0.878390 0.151842
C66   C     C_R   0.812949 0.496497 0.811045 -0.089520
C67   C     C_R   0.817368 0.492742 0.737388 -0.033212
C68   C     C_R   0.749598 0.488761 0.673619 -0.255425
H37   H     H_    0.752491 0.486077 0.616587 0.163460
C69   C     C_R   0.680147 0.491911 0.684268 -0.055398
C70   C     C_R   0.675958 0.496627 0.758403 0.003082
C71   C     C_R   0.959790 0.569330 0.748274 -0.116841
H38   H     H_    0.964911 0.631503 0.785682 0.130511
C72   C     C_R   0.022087 0.569116 0.723384 -0.087201
H39   H     H_    0.075705 0.630665 0.742839 0.148435
C73   C     C_R   0.014431 0.489611 0.672099 -0.155498
H40   H     H_    0.062519 0.489645 0.652358 0.168191
C74   C     C_R   0.945667 0.409984 0.647260 -0.144731
H41   H     H_    0.941841 0.349171 0.608382 0.172599
C75   C     C_R   0.882110 0.408957 0.671574 0.026721
C76   C     C_R   0.889387 0.489816 0.722405 0.028248
O9    O     O_R   0.051730 0.908360 0.460060 -0.630853
O10   O     O_R   0.948280 0.908380 0.356650 -0.627814
C77   C     C_R   0.998911 0.877494 0.380733 0.893715
O11   O     O_R   0.960110 0.908350 0.551690 -0.624916
O12   O     O_R   0.856660 0.908370 0.448270 -0.619787
C78   C     C_R   0.879673 0.876852 0.496685 0.901651
Zn3   Zn    Zn3+2 0.069070 0.999960 0.569030 0.933856
Zn4   Zn    Zn3+2 0.930930 0.999990 0.430930 0.933782
O13   O     O_R   0.051720 0.091580 0.643310 -0.624734
O14   O     O_R   0.948270 0.091600 0.539890 -0.636507
O15   O     O_R   0.143340 0.091590 0.551680 -0.621119
O16   O     O_R   0.039890 0.091610 0.448270 -0.628733
C79   C     C_R   0.997475 0.118183 0.619336 0.882392
C80   C     C_R   0.120192 0.117510 0.497737 0.896291
O17   O     O_R   0.051730 0.460050 0.908360 -0.621547
O18   O     O_R   0.948290 0.356630 0.908390 -0.624319
C81   C     C_R   0.001697 0.379603 0.881532 0.854635
O19   O     O_R   0.143340 0.551690 0.091580 -0.616182
O20   O     O_R   0.039900 0.448270 0.091610 -0.616489
C82   C     C_R   0.119786 0.497045 0.117324 0.862617
Zn5   Zn    Zn3+2 0.069070 0.569030 0.999960 0.991085
Zn6   Zn    Zn3+2 0.930930 0.430930 0.000000 0.958403
O21   O     O_R   0.051710 0.643320 0.091560 -0.611826
O22   O     O_R   0.948270 0.539900 0.091590 -0.627780
O23   O     O_R   0.960100 0.551680 0.908340 -0.608783
O24   O     O_R   0.856660 0.448270 0.908370 -0.625412
C83   C     C_R   0.998729 0.620486 0.118296 0.864298
C84   C     C_R   0.879837 0.498024 0.878028 0.862106
H42   H     H_    0.102555 0.711812 0.611075 0.130687
C85   C     C_R   0.140899 0.792867 0.556525 0.155286
C86   C     C_R   0.116885 0.799761 0.481482 -0.129492
H43   H     H_    0.160957 0.854853 0.482249 0.156788
C87   C     C_R   0.036264 0.736616 0.405781 0.074371
C88   C     C_R   0.983219 0.661392 0.403530 -0.125315
H44   H     H_    0.924435 0.608301 0.343972 0.137083
C89   C     C_R   0.006993 0.653211 0.477617 -0.127728
H45   H     H_    0.965142 0.595334 0.475425 0.155441
C90   C     C_R   0.085164 0.719030 0.554186 -0.152253
C91   C     C_R   0.007923 0.679012 0.256624 -0.260790
H46   H     H_    0.014661 0.624384 0.261024 0.152363
C92   C     C_R   0.999419 0.687304 0.184217 -0.073535
C93   C     C_R   0.997389 0.760838 0.179220 0.007309
C94   C     C_R   0.996349 0.821358 0.245223 -0.275569
H47   H     H_    0.992677 0.877427 0.241748 0.147561
C95   C     C_R   0.002914 0.812438 0.316998 -0.065498
C96   C     C_R   0.013989 0.743179 0.325809 0.004239
C97   C     C_R   0.060080 0.861306 0.129515 -0.187324
H48   H     H_    0.106936 0.910894 0.196708 0.119128
C98   C     C_R   0.061585 0.880659 0.064331 0.169604
C99   C     C_R   0.003387 0.814871 0.977344 -0.166534
H49   H     H_    0.004360 0.827478 0.925768 0.134537
C100  C     C_R   0.942884 0.732277 0.956312 -0.165312
H50   H     H_    0.898921 0.681738 0.889393 0.142705
C101  C     C_R   0.938938 0.714676 0.021377 -0.112933
H51   H     H_    0.889660 0.651292 0.003764 0.100231
C102  C     C_R   0.998804 0.778444 0.108644 0.104276
H52   H     H_    0.399020 0.570492 0.094422 0.141644
C103  C     C_R   0.294094 0.540640 0.976586 -0.119251
H53   H     H_    0.327071 0.606007 0.986401 0.165759
C104  C     C_R   0.211603 0.476534 0.902818 0.043754
C105  C     C_R   0.169696 0.392191 0.892917 0.017929
C106  C     C_R   0.214622 0.372098 0.952963 -0.193008
H54   H     H_    0.185524 0.306549 0.943959 0.143550
C107  C     C_R   0.296325 0.436338 0.025715 -0.116497
H55   H     H_    0.329271 0.420569 0.072584 0.150261
C108  C     C_R   0.335602 0.520747 0.037968 -0.150467
C109  C     C_R   0.076866 0.256706 0.751345 -0.245026
H56   H     H_    0.136849 0.261957 0.752197 0.156990
C110  C     C_R   0.996150 0.184249 0.684064 -0.088433
C111  C     C_R   0.917417 0.174053 0.682581 0.024059
C112  C     C_R   0.921676 0.239422 0.749356 -0.205360
H57   H     H_    0.861730 0.232936 0.749256 0.169220
C113  C     C_R   0.002395 0.313164 0.815920 -0.107395
C114  C     C_R   0.081378 0.321731 0.818311 -0.025586
C115  C     C_R   0.790777 0.073110 0.530434 0.013610
H58   H     H_    0.818949 0.118481 0.511054 0.163128
C116  C     C_R   0.714648 0.993029 0.467738 -0.139461
H59   H     H_    0.684906 0.976805 0.400666 0.124053
C117  C     C_R   0.676979 0.933726 0.491318 -0.245734
H60   H     H_    0.618342 0.871566 0.441741 0.124319
C118  C     C_R   0.713150 0.955769 0.578494 0.070747
C119  C     C_R   0.791241 0.035429 0.641224 -0.186904
H61   H     H_    0.821387 0.051812 0.708430 0.153731
C120  C     C_R   0.831841 0.093187 0.616995 0.057996
C121  C     C_3   0.702879 0.717540 0.091082 -0.444900
C122  C     C_3   0.772100 0.804848 0.110655 -0.308414
C123  C     C_3   0.774458 0.799271 0.029381 -0.907896
H62   H     H_    0.790064 0.747299 0.001631 0.262306
H63   H     H_    0.710386 0.784439 0.980272 0.260756
H64   H     H_    0.825826 0.863146 0.046059 0.248325
H65   H     H_    0.757833 0.858219 0.137909 0.211576
H66   H     H_    0.837533 0.822058 0.159292 0.239596
H67   H     H_    0.713014 0.663444 0.056276 0.204803
H68   H     H_    0.636415 0.703208 0.047532 0.196057
C124  C     C_2   0.772254 0.615306 0.305298 0.333489
H69   H     H_    0.776919 0.565723 0.259249 0.057050
O25   O     O_2   0.789133 0.620062 0.375354 -0.573394
C125  C     C_2   0.392419 0.788200 0.622137 0.351356
H70   H     H_    0.424443 0.855210 0.674605 0.065381
O26   O     O_2   0.347806 0.728103 0.627847 -0.584629
C126  C     C_2   0.254046 0.457060 0.645963 0.336169
H71   H     H_    0.274670 0.411675 0.657292 0.074864
O27   O     O_2   0.254300 0.511164 0.704789 -0.565549
C127  C     C_2   0.403514 0.231132 0.503724 0.379010
H72   H     H_    0.396323 0.166969 0.469016 0.087807
O28   O     O_2   0.476749 0.294977 0.547325 -0.591013
C128  C     C_2   0.807463 0.323901 0.641799 0.359004
H73   H     H_    0.762833 0.321923 0.666721 0.092179
O29   O     O_2   0.794376 0.254709 0.588356 -0.599596
C129  C     C_3   0.226337 0.863828 0.637889 -0.448171
C130  C     C_3   0.224574 0.950295 0.674791 -0.312368
C131  C     C_3   0.310989 0.022479 0.757021 -0.900726
H74   H     H_    0.323744 0.003187 0.807615 0.267143
H75   H     H_    0.365674 0.034935 0.743172 0.256958
H76   H     H_    0.307885 0.084190 0.781917 0.249067
H77   H     H_    0.212687 0.972694 0.626494 0.236307
H78   H     H_    0.170713 0.939889 0.689902 0.219526
H79   H     H_    0.239964 0.843351 0.687640 0.217206
H80   H     H_    0.280082 0.874017 0.622631 0.195354
C132  C     C_3   0.126120 0.970771 0.088088 -0.444729
C133  C     C_3   0.105814 0.041029 0.133139 -0.344486
C134  C     C_3   0.171719 0.132467 0.158380 -0.858563
H81   H     H_    0.239257 0.148801 0.201179 0.260476
H82   H     H_    0.167240 0.135675 0.099639 0.265451
H83   H     H_    0.157602 0.182093 0.194077 0.241684
H84   H     H_    0.039022 0.025571 0.089026 0.220290
H85   H     H_    0.108067 0.041818 0.192786 0.215816
H86   H     H_    0.193146 0.986374 0.131683 0.203805
H87   H     H_    0.124549 0.971787 0.029229 0.200681
C135  C     C_2   0.170983 0.497327 0.836023 0.466129
H88   H     H_    0.111488 0.446076 0.775831 0.070633
O30   O     O_2   0.203620 0.571699 0.847263 -0.562942
C136  C     C_2   0.582307 0.618938 0.337624 0.379934
H89   H     H_    0.579166 0.590652 0.275675 0.074174
O31   O     O_2   0.513873 0.600164 0.338680 -0.607252
C137  C     C_2   0.668081 0.895456 0.602869 0.351733
H90   H     H_    0.621165 0.826978 0.554409 0.107093
O32   O     O_2   0.680844 0.921969 0.676654 -0.587261

loop_
_geom_bond_atom_site_label_1
_geom_bond_atom_site_label_2
_geom_bond_distance
_ccdc_geom_bond_type
C109  C110  1.394357 A    
C31   C32   1.386282 A    
C11   C16   1.379633 A    
C75   C76   1.415384 A    
C25   C34   1.483979 S    
O16   C80   1.279370 A    
C93   C94   1.382446 A    
C30   C31   1.413129 A    
C38   C39   1.398030 A    
C89   H45   1.082408 S    
C50   C127  1.494810 S    
C59   H32   1.082232 S    
C115  C120  1.403697 A    
O13   C79   1.278132 A    
O11   Zn3   2.018986 S    
Zn6   O24   2.016940 S    
C126  O27   1.220996 D    
C47   H25   1.085843 S    
C122  H66   1.109392 S    
C23   C125  1.477971 S    
C137  H90   1.085343 S    
C26   C27   1.396789 A    
C101  H51   1.082027 S    
C133  C134  1.526281 S    
Zn1   O7    2.015234 S    
C62   C63   1.398353 A    
C11   H6    1.085414 S    
C85   C86   1.402115 A    
C118  C137  1.475033 S    
C115  C116  1.395495 A    
C48   C49   1.407579 A    
C14   C136  1.492109 S    
C12   C13   1.410525 A    
C89   C90   1.397277 A    
C19   C20   1.402399 A    
C44   C45   1.396034 A    
O20   C82   1.273330 A    
C53   H26   1.083184 S    
Zn6   O22   2.010208 S    
O4    C2    1.281435 A    
C60   C61   1.403241 A    
O7    C4    1.277192 A    
C123  H63   1.110453 S    
C103  C104  1.408527 A    
C5    H2    1.081205 S    
C94   H47   1.085271 S    
H52   C108  1.082620 S    
H31   C64   1.082130 S    
C130  H78   1.112077 S    
C105  C114  1.488493 S    
C32   H15   1.085486 S    
C35   C36   1.398339 A    
C6    H3    1.081235 S    
C87   C96   1.487682 S    
O22   C83   1.279952 A    
C106  C107  1.395376 A    
O5    C3    1.276237 A    
C71   H38   1.083618 S    
C93   C102  1.485659 S    
C36   C37   1.396312 A    
C65   C66   1.397270 A    
C47   C48   1.388150 A    
O10   Zn4   2.006654 S    
C104  C135  1.479846 S    
C103  H53   1.082914 S    
C131  H74   1.110811 S    
C77   C95   1.435004 S    
C113  C114  1.413695 A    
C27   C28   1.396014 A    
C66   C84   1.431213 S    
C57   C58   1.403272 A    
O18   Zn6   2.019311 S    
C42   C126  1.484859 S    
C9    H5    1.074810 S    
C112  H57   1.085109 S    
C32   C33   1.396579 A    
O24   C84   1.279159 A    
C136  O31   1.219894 D    
C6    C7    1.410017 A    
H10   C28   1.083301 S    
C41   H22   1.083085 S    
C132  H87   1.112414 S    
C109  H56   1.085814 S    
C59   C64   1.398017 A    
C20   C21   1.405421 A    
O1    Zn1   2.023902 S    
C129  C130  1.534773 S    
C86   C87   1.402508 A    
C63   C64   1.398307 A    
C83   C92   1.426257 S    
C91   H46   1.086032 S    
C111  C112  1.384052 A    
C128  O29   1.220075 D    
O3    Zn1   2.024182 S    
C65   C70   1.383865 A    
C55   C56   1.398316 A    
C66   C67   1.405780 A    
C88   C89   1.398075 A    
C29   C30   1.391016 A    
C119  H61   1.083988 S    
C98   C132  1.508679 S    
C97   C98   1.403459 A    
C121  H68   1.111918 S    
C101  C102  1.401677 A    
C125  O26   1.221077 D    
O14   C79   1.274969 A    
C103  C108  1.396240 A    
C134  H82   1.110877 S    
C115  H58   1.082763 S    
O19   C82   1.283721 A    
C12   C78   1.433415 S    
C31   C40   1.491094 S    
C26   H12   1.083284 S    
O17   Zn5   2.010421 S    
C91   C92   1.393206 A    
H21   C46   1.082810 S    
C49   C50   1.401887 A    
C4    C51   1.437283 S    
C41   C42   1.408226 A    
C42   C43   1.418578 A    
C85   C90   1.403225 A    
C65   H36   1.085326 S    
C48   C80   1.431033 S    
C117  H60   1.082708 S    
O12   C78   1.273381 A    
Zn3   O13   2.006779 S    
C121  H67   1.112897 S    
C99   C100  1.396569 A    
C33   C34   1.413151 A    
C50   C51   1.419026 A    
C109  C114  1.380235 A    
C130  H77   1.111692 S    
C123  H64   1.110686 S    
C106  H54   1.083377 S    
C107  H55   1.082475 S    
C21   C124  1.483777 S    
C35   H16   1.082717 S    
C135  O30   1.221227 D    
C18   H8    1.082908 S    
C37   C38   1.395562 A    
C97   C102  1.406580 A    
Zn4   O16   2.019074 S    
C43   C44   1.404899 A    
C107  C108  1.393535 A    
C19   C121  1.509182 S    
C13   C14   1.398370 A    
C111  C120  1.484760 S    
C29   C34   1.382164 A    
O9    Zn3   2.022399 S    
O20   Zn6   2.015495 S    
C54   C55   1.397650 A    
C15   C16   1.417632 A    
C81   C113  1.433677 S    
O23   C84   1.279380 A    
C35   C40   1.408233 A    
C14   C15   1.418058 A    
Zn2   O8    2.024185 S    
C57   H30   1.082644 S    
C7    C8    1.403453 A    
C36   H17   1.082403 S    
C59   C60   1.398160 A    
C125  H70   1.085633 S    
C134  H81   1.110877 S    
C45   C46   1.393969 A    
C129  H79   1.112349 S    
C56   H29   1.082364 S    
C131  H75   1.110857 S    
C5    C6    1.396482 A    
C29   H14   1.086310 S    
C116  H59   1.082303 S    
C56   C57   1.398542 A    
C79   C110  1.426836 S    
C118  C119  1.406783 A    
C47   C52   1.378357 A    
C51   C52   1.410748 A    
C85   C129  1.506975 S    
C98   C99   1.402721 A    
C53   C54   1.398611 A    
C27   H13   1.081338 S    
C8    C9    1.398644 A    
C23   C24   1.405644 A    
O21   C83   1.275766 A    
C86   H43   1.077484 S    
O17   C81   1.275560 A    
O3    C2    1.273387 A    
C128  H73   1.084659 S    
C63   H35   1.082653 S    
C73   C74   1.397111 A    
O15   C80   1.275187 A    
C135  H88   1.082134 S    
O19   Zn5   2.016812 S    
C95   C96   1.417668 A    
C72   C73   1.394665 A    
C74   C75   1.407444 A    
C67   C68   1.381461 A    
C7    C16   1.491880 S    
C43   C52   1.485634 S    
C5    C10   1.392540 A    
Zn4   O14   2.022356 S    
C25   C26   1.404577 A    
C92   C93   1.409104 A    
C91   C96   1.382636 A    
C13   C22   1.492050 S    
C124  O25   1.220352 D    
C133  H84   1.112202 S    
C117  C118  1.401609 A    
C39   H20   1.075243 S    
O2    Zn2   2.007999 S    
C24   H11   1.080670 S    
Zn5   O23   2.015498 S    
Zn5   O21   2.019099 S    
C110  C111  1.408720 A    
O11   C78   1.283215 A    
O6    C3    1.279068 A    
O9    C77   1.270133 A    
C61   C62   1.402899 A    
Zn3   O15   2.020671 S    
O4    Zn2   2.015231 S    
C68   C69   1.393376 A    
C132  C133  1.535666 S    
C68   H37   1.085570 S    
C67   C76   1.478033 S    
C62   H34   1.081844 S    
C61   C70   1.476868 S    
C11   C12   1.387193 A    
C122  H65   1.111626 S    
C17   C22   1.404097 A    
C37   H18   1.081258 S    
C112  C113  1.399018 A    
O2    C1    1.284780 A    
O10   C77   1.288205 A    
C49   C58   1.485711 S    
C18   C19   1.401018 A    
C41   C46   1.395726 A    
C137  O32   1.220877 D    
C136  H89   1.084681 S    
C116  C117  1.395647 A    
C44   H23   1.083351 S    
C45   H24   1.081763 S    
C23   C28   1.401166 A    
C54   H27   1.082239 S    
C20   H9    1.084225 S    
C88   H44   1.079576 S    
H42   C90   1.082984 S    
O12   Zn4   2.020417 S    
C122  C123  1.525246 S    
C69   C70   1.408397 A    
C123  H62   1.110569 S    
C130  C131  1.525216 S    
C55   H28   1.082696 S    
C17   C18   1.395460 A    
C17   H7    1.081500 S    
C129  H80   1.111907 S    
C38   H19   1.081856 S    
C131  H76   1.110413 S    
C133  H85   1.111638 S    
C9    C10   1.394220 A    
C60   H33   1.082678 S    
C75   C128  1.483595 S    
C87   C88   1.403296 A    
C71   C72   1.395389 A    
C134  H83   1.109865 S    
C3    C69   1.432266 S    
H1    C10   1.081840 S    
C127  O28   1.219779 D    
C126  H71   1.084127 S    
C100  H50   1.077465 S    
C1    C33   1.434639 S    
Zn1   O5    2.008001 S    
O8    C4    1.277473 A    
C104  C105  1.416986 A    
C74   H41   1.083156 S    
C121  C122  1.533674 S    
Zn2   O6    2.023906 S    
C99   H49   1.082938 S    
C71   C76   1.403868 A    
C127  H72   1.084960 S    
C2    C15   1.437387 S    
C119  C120  1.405365 A    
C72   H39   1.082404 S    
C105  C106  1.405223 A    
C21   C22   1.419529 A    
C94   C95   1.393981 A    
O1    C1    1.271780 A    
C73   H40   1.082776 S    
C8    H4    1.081733 S    
C39   C40   1.402906 A    
C124  H69   1.085339 S    
C24   C25   1.405850 A    
C53   C58   1.404766 A    
O18   C81   1.284480 A    
C30   C82   1.428169 S    
C100  C101  1.395783 A    
C97   H48   1.082858 S    
C132  H86   1.111955 S    
