data_mof_unit_48787.cif
_audit_creation_date              2013-03-05T16:10:40-0500
_audit_creation_method            fapswitch 2.2
_symmetry_space_group_name_H-M    P1
_symmetry_Int_Tables_number       1
_space_group_crystal_system       triclinic
_cell_length_a                    9.904793
_cell_length_b                    10.706229
_cell_length_c                    15.527894
_cell_angle_alpha                 91.107
_cell_angle_beta                  67.2467
_cell_angle_gamma                 89.228343
_cell_volume                      1517.80674974

loop_
_atom_site_label
_atom_site_type_symbol
_atom_site_description
_atom_site_fract_x
_atom_site_fract_y
_atom_site_fract_z
_atom_type_partial_charge
O1    O     O_R   0.385370 0.683250 0.500010 -0.563049
O2    O     O_R   0.614630 0.316750 0.499990 -0.563711
O3    O     O_R   0.614700 0.683220 0.500000 -0.634795
O4    O     O_R   0.385300 0.316780 0.500000 -0.635222
C1    C     C_R   0.499094 0.739941 0.500625 0.880985
C2    C     C_R   0.500803 0.260058 0.499532 0.880385
O5    O     O_R   0.319830 0.500020 0.632250 -0.587272
O6    O     O_R   0.680170 0.499980 0.367750 -0.583034
O7    O     O_R   0.549160 0.499990 0.632240 -0.629618
O8    O     O_R   0.450840 0.500010 0.367760 -0.634726
C3    C     C_R   0.408240 0.502007 0.676146 0.904740
C4    C     C_R   0.591871 0.500382 0.323934 0.911512
Zn1   Zn    Zn3+2 0.346870 0.500020 0.500000 0.980091
Zn2   Zn    Zn3+2 0.653130 0.499980 0.500000 0.983332
C5    C     C_R   0.353631 0.523466 0.777174 -0.148957
C6    C     C_R   0.649586 0.503842 0.222153 -0.134904
C7    C     C_R   0.185623 0.626560 0.919466 0.534104
C8    C     C_R   0.839189 0.458907 0.069674 0.527294
C9    C     C_R   0.218450 0.582251 0.827853 -0.278312
C10   C     C_R   0.793424 0.466925 0.166841 -0.286757
C11   C     C_R   0.452343 0.502631 0.819462 -0.282332
C12   C     C_R   0.554184 0.540725 0.180520 -0.282421
C13   C     C_R   0.428024 0.552829 0.907764 0.018083
C14   C     C_R   0.597406 0.538650 0.083667 0.015659
C15   C     C_R   0.289862 0.610375 0.960133 0.065494
C16   C     C_R   0.741473 0.494778 0.027664 0.072099
C17   C     C_R   0.536600 0.542909 0.945915 0.109579
C18   C     C_R   0.497441 0.571255 0.041871 0.101885
C19   C     C_R   0.359384 0.630040 0.092660 -0.261232
C20   C     C_R   0.683600 0.507443 0.890762 -0.274771
C21   C     C_R   0.258534 0.650376 0.052004 -0.197444
C22   C     C_R   0.784465 0.485517 0.930958 -0.207709
H1    H     H_    0.154810 0.696258 0.093521 0.183271
H2    H     H_    0.895165 0.456937 0.885979 0.182876
H3    H     H_    0.443368 0.565709 0.225700 0.170227
H4    H     H_    0.549483 0.446864 0.781232 0.169268
H5    H     H_    0.869202 0.441162 0.198604 0.177235
H6    H     H_    0.139106 0.595003 0.796666 0.177095
H7    H     H_    0.327465 0.665415 0.163391 0.147081
H8    H     H_    0.724784 0.498623 0.815610 0.140707
C23   C     C_R   0.603738 0.935365 0.523755 -0.198303
C24   C     C_R   0.395738 0.064632 0.476890 -0.198990
H9    H     H_    0.684178 0.886048 0.542614 0.161000
H10   H     H_    0.315281 0.113925 0.458033 0.160711
C25   C     C_R   0.605319 0.063292 0.522629 -0.164842
C26   C     C_R   0.394168 0.936718 0.478004 -0.163754
H11   H     H_    0.686491 0.111582 0.540805 0.166550
H12   H     H_    0.313000 0.888444 0.459814 0.167191
C27   C     C_R   0.501243 0.127497 0.499291 -0.014198
C28   C     C_R   0.498375 0.872504 0.501208 -0.014146
C29   C     C_R   0.974718 0.443708 0.427989 0.073414
C30   C     C_R   0.025352 0.556637 0.571838 0.074936
C31   C     C_R   0.117459 0.445062 0.428358 -0.188166
C32   C     C_R   0.882521 0.554899 0.571664 -0.190352
H13   H     H_    0.208022 0.400065 0.371690 0.139461
H14   H     H_    0.791983 0.599989 0.628309 0.139204
N1    N     N_R   0.142780 0.500030 0.500020 -0.082174
N2    N     N_R   0.857220 0.499970 0.499980 -0.081763
O9    O     O_3   0.045659 0.670886 0.972872 -0.628944
C33   C     C_3   0.026535 0.793867 0.948151 0.017949
H15   H     H_    0.063219 0.803236 0.871065 0.151970
H16   H     H_    0.089077 0.858683 0.974949 0.152853
C34   C     C_3   0.863380 0.828721 0.993282 -0.276723
H17   H     H_    0.802572 0.769447 0.961541 0.229980
H18   H     H_    0.821512 0.810371 0.069321 0.232672
C35   C     C_3   0.834381 0.965859 0.980184 -0.993457
H19   H     H_    0.884085 0.026338 0.018326 0.266072
H20   H     H_    0.714493 0.985454 0.008888 0.270213
H21   H     H_    0.880326 0.988230 0.904866 0.269410
O10   O     O_3   0.983293 0.426733 0.015658 -0.626374
C36   C     C_3   0.002345 0.295832 0.011524 0.017013
H22   H     H_    0.934682 0.251874 0.976725 0.145357
H23   H     H_    0.972039 0.257893 0.082761 0.150041
C37   C     C_3   0.163872 0.264323 0.954212 -0.275847
H24   H     H_    0.196038 0.303559 0.883487 0.229222
H25   H     H_    0.231861 0.307820 0.988758 0.231903
C38   C     C_3   0.194308 0.123723 0.944117 -1.004362
H26   H     H_    0.159198 0.081307 0.013927 0.266433
H27   H     H_    0.313531 0.105113 0.905974 0.270756
H28   H     H_    0.135542 0.079875 0.903675 0.270361
C39   C     C_2   0.959796 0.379370 0.347612 0.390902
H29   H     H_    0.044047 0.389538 0.278295 0.018476
O11   O     O_2   0.861605 0.306725 0.357911 -0.550546
C40   C     C_2   0.040718 0.622636 0.651407 0.388437
H30   H     H_    0.957282 0.613000 0.721013 0.008850
O12   O     O_2   0.138216 0.696372 0.640005 -0.555127

loop_
_geom_bond_atom_site_label_1
_geom_bond_atom_site_label_2
_geom_bond_distance
_ccdc_geom_bond_type
C15   C21   1.394697 A    
C35   H20   1.110415 S    
C34   H18   1.112236 S    
C16   C22   1.394475 A    
C8    C16   1.413433 A    
C39   H29   1.085786 S    
C11   H4    1.078713 S    
C38   H26   1.110800 S    
O5    C3    1.301352 A    
C12   H3    1.075947 S    
C37   H25   1.111908 S    
C33   C34   1.529543 S    
O1    C1    1.289886 A    
C18   C19   1.418236 A    
C14   C16   1.421037 A    
C35   H21   1.111002 S    
Zn1   N1    2.021348 S    
C33   H16   1.112760 S    
C24   C26   1.370143 A    
O4    Zn1   1.993357 S    
C30   C40   1.470915 S    
C3    C5    1.460375 S    
C4    C6    1.459440 S    
C37   C38   1.524296 S    
O6    Zn2   1.965559 S    
C21   H1    1.083622 S    
O10   C36   1.408491 S    
C13   C17   1.418063 A    
C29   C39   1.471816 S    
C6    C10   1.395998 A    
C25   H11   1.083713 S    
C35   H19   1.109821 S    
C34   C35   1.524780 S    
O9    C33   1.409215 S    
C17   C20   1.416177 A    
C23   H9    1.083728 S    
O2    C2    1.289972 A    
C24   H10   1.083719 S    
C39   O11   1.217051 D    
C30   C32   1.416135 A    
C32   H14   1.082899 S    
C31   H13   1.082780 S    
Zn2   N2    2.021348 S    
C26   H12   1.083722 S    
C37   H24   1.111215 S    
C40   H30   1.085126 S    
O4    C2    1.285426 A    
C36   H23   1.114668 S    
C31   N1    1.357212 A    
C33   H15   1.115376 S    
C29   C31   1.416307 A    
C22   H2    1.083510 S    
C5    C9    1.396875 A    
O7    Zn2   1.908208 S    
C9    H6    1.079276 S    
C25   C27   1.394995 A    
O6    C4    1.299269 A    
C19   H7    1.077850 S    
C38   H27   1.110432 S    
C20   H8    1.078694 S    
C29   N2    1.384068 A    
O7    C3    1.294605 A    
O3    Zn2   1.993357 S    
O8    C4    1.295893 A    
C7    O9    1.382958 S    
C11   C13   1.392648 A    
C12   C14   1.394992 A    
C1    C28   1.419007 S    
O1    Zn1   2.003466 S    
C23   C28   1.398944 A    
C32   N2    1.357232 A    
C38   H28   1.110071 S    
C6    C12   1.392514 A    
C14   C18   1.421237 A    
C40   O12   1.216886 D    
O3    C1    1.285481 A    
O8    Zn1   1.908210 S    
C36   C37   1.529034 S    
C26   C28   1.394953 A    
C8    O10   1.381654 S    
C7    C15   1.413684 A    
C36   H22   1.114200 S    
C19   C21   1.389599 A    
C20   C22   1.387248 A    
C10   H5    1.081075 S    
C5    C11   1.390423 A    
C7    C9    1.402290 A    
C8    C10   1.397937 A    
C13   C15   1.417985 A    
C2    C27   1.419112 S    
O2    Zn2   2.003466 S    
C30   N1    1.383947 A    
C24   C27   1.398957 A    
C34   H17   1.111852 S    
O5    Zn1   1.965558 S    
C17   C18   1.412434 A    
C23   C25   1.370296 A    
