data_mof_unit_64822.cif
_audit_creation_date              2012-12-10T19:41:19-0500
_audit_creation_method            fapswitch 2.2
_symmetry_space_group_name_H-M    P1
_symmetry_Int_Tables_number       1
_space_group_crystal_system       triclinic
_cell_length_a                    24.205232
_cell_length_b                    24.221032
_cell_length_c                    15.782732
_cell_angle_alpha                 89.972928
_cell_angle_beta                  98.80303
_cell_angle_gamma                 90.001558
_cell_volume                      9144.03316301

loop_
_atom_site_label
_atom_site_type_symbol
_atom_type_description
_atom_site_fract_x
_atom_site_fract_y
_atom_site_fract_z
_atom_type_partial_charge
C1    C     C_R   0.423993 0.075476 0.489651 0.807279
C2    C     C_R   0.576007 0.924524 0.510349 0.807278
C3    C     C_R   0.576007 0.075472 0.510326 0.807091
C4    C     C_R   0.423993 0.924528 0.489674 0.807090
C5    C     C_R   0.923993 0.575476 0.489651 0.807278
C6    C     C_R   0.076007 0.424524 0.510349 0.807278
C7    C     C_R   0.076007 0.575472 0.510326 0.807091
C8    C     C_R   0.923993 0.424528 0.489674 0.807090
C9    C     C_R   0.513331 0.992157 0.891736 0.237395
C10   C     C_R   0.486669 0.007843 0.108264 0.237395
C11   C     C_R   0.013331 0.492157 0.891736 0.237396
C12   C     C_R   0.986669 0.507843 0.108264 0.237396
C13   C     C_R   0.562890 0.995451 0.855208 0.269946
C14   C     C_R   0.437110 0.004548 0.144792 0.269946
C15   C     C_R   0.062890 0.495451 0.855208 0.269946
C16   C     C_R   0.937110 0.504548 0.144792 0.269946
C17   C     C_R   0.559881 0.999308 0.764994 -0.106607
C18   C     C_R   0.440119 0.000692 0.235006 -0.106608
C19   C     C_R   0.059881 0.499308 0.764994 -0.106608
C20   C     C_R   0.940119 0.500692 0.235006 -0.106608
C21   C     C_R   0.380787 0.881742 0.484276 -0.036692
C22   C     C_R   0.619213 0.118257 0.515724 -0.036692
C23   C     C_R   0.619213 0.881729 0.515776 -0.037553
C24   C     C_R   0.380787 0.118271 0.484224 -0.037553
C25   C     C_R   0.880786 0.381742 0.484276 -0.036692
C26   C     C_R   0.119213 0.618258 0.515724 -0.036692
C27   C     C_R   0.119213 0.381729 0.515776 -0.037553
C28   C     C_R   0.880787 0.618271 0.484224 -0.037553
C29   C     C_R   0.363671 0.861414 0.559323 -0.225773
C30   C     C_R   0.636329 0.138586 0.440677 -0.225773
C31   C     C_R   0.636276 0.861392 0.440723 -0.225070
C32   C     C_R   0.363724 0.138608 0.559277 -0.225071
C33   C     C_R   0.863671 0.361414 0.559323 -0.225773
C34   C     C_R   0.136329 0.638586 0.440677 -0.225773
C35   C     C_R   0.136276 0.361392 0.440723 -0.225070
C36   C     C_R   0.863724 0.638608 0.559277 -0.225071
C37   C     C_R   0.322791 0.820780 0.554635 -0.147526
C38   C     C_R   0.677209 0.179220 0.445365 -0.147526
C39   C     C_R   0.677154 0.820760 0.445400 -0.147531
C40   C     C_R   0.322846 0.179240 0.554600 -0.147531
C41   C     C_R   0.822791 0.320780 0.554635 -0.147526
C42   C     C_R   0.177209 0.679220 0.445365 -0.147526
C43   C     C_R   0.177154 0.320760 0.445400 -0.147531
C44   C     C_R   0.822846 0.679240 0.554600 -0.147531
C45   C     C_R   0.298230 0.799721 0.474269 0.381857
C46   C     C_R   0.701770 0.200279 0.525731 0.381857
C47   C     C_R   0.701774 0.799703 0.525763 0.381394
C48   C     C_R   0.298226 0.200297 0.474237 0.381394
C49   C     C_R   0.798230 0.299721 0.474269 0.381857
C50   C     C_R   0.201770 0.700279 0.525731 0.381857
C51   C     C_R   0.201774 0.299703 0.525763 0.381394
C52   C     C_R   0.798226 0.700297 0.474237 0.381393
C53   C     C_R   0.315325 0.820156 0.399638 -0.187170
C54   C     C_R   0.684675 0.179844 0.600362 -0.187170
C55   C     C_R   0.684729 0.820138 0.600408 -0.186310
C56   C     C_R   0.315271 0.179862 0.399592 -0.186310
C57   C     C_R   0.815325 0.320156 0.399638 -0.187170
C58   C     C_R   0.184675 0.679844 0.600362 -0.187171
C59   C     C_R   0.184729 0.320138 0.600408 -0.186310
C60   C     C_R   0.815271 0.679862 0.399592 -0.186310
C61   C     C_R   0.356289 0.860868 0.404329 -0.213310
C62   C     C_R   0.643711 0.139132 0.595671 -0.213310
C63   C     C_R   0.643760 0.860854 0.595726 -0.213002
C64   C     C_R   0.356240 0.139146 0.404274 -0.213002
C65   C     C_R   0.856289 0.360868 0.404329 -0.213310
C66   C     C_R   0.143711 0.639132 0.595671 -0.213310
C67   C     C_R   0.143760 0.360853 0.595726 -0.213002
C68   C     C_R   0.856240 0.639146 0.404274 -0.213002
C69   C     C_R   0.461204 0.996947 0.746679 0.015497
C70   C     C_R   0.538796 0.003052 0.253321 0.015497
C71   C     C_R   0.961204 0.496947 0.746679 0.015497
C72   C     C_R   0.038796 0.503052 0.253321 0.015497
C73   C     C_R   0.461422 0.991321 0.835385 0.231123
C74   C     C_R   0.538578 0.008679 0.164615 0.231122
C75   C     C_R   0.961422 0.491321 0.835385 0.231122
C76   C     C_R   0.038578 0.508679 0.164615 0.231122
Cu1   Cu    Cu3+1 0.496180 0.000000 0.414950 0.948974
Cu2   Cu    Cu3+1 0.503820 0.000000 0.585050 0.948974
Cu3   Cu    Cu3+1 0.996180 0.500000 0.414950 0.948974
Cu4   Cu    Cu3+1 0.003820 0.500000 0.585050 0.948974
H1    H     H_    0.618161 0.123148 0.378190 0.169474
H2    H     H_    0.381839 0.876852 0.621810 0.169474
H3    H     H_    0.381933 0.123177 0.621770 0.170399
H4    H     H_    0.618067 0.876823 0.378230 0.170400
H5    H     H_    0.118161 0.623148 0.378190 0.169474
H6    H     H_    0.881839 0.376852 0.621810 0.169474
H7    H     H_    0.881933 0.623177 0.621770 0.170399
H8    H     H_    0.118067 0.376823 0.378230 0.170400
H9    H     H_    0.689363 0.193941 0.386118 0.158939
H10   H     H_    0.310637 0.806059 0.613882 0.158939
H11   H     H_    0.310738 0.193961 0.613859 0.159618
H12   H     H_    0.689262 0.806039 0.386141 0.159618
H13   H     H_    0.189363 0.693941 0.386118 0.158939
H14   H     H_    0.810637 0.306059 0.613882 0.158939
H15   H     H_    0.810738 0.693961 0.613859 0.159618
H16   H     H_    0.189262 0.306039 0.386141 0.159618
H17   H     H_    0.296777 0.804368 0.337564 0.146638
H18   H     H_    0.703223 0.195632 0.662436 0.146638
H19   H     H_    0.703319 0.804350 0.662484 0.147711
H20   H     H_    0.296681 0.195650 0.337516 0.147711
H21   H     H_    0.796777 0.304368 0.337564 0.146638
H22   H     H_    0.203223 0.695632 0.662436 0.146638
H23   H     H_    0.203319 0.304350 0.662484 0.147711
H24   H     H_    0.796681 0.695650 0.337516 0.147711
H25   H     H_    0.368732 0.875920 0.345432 0.164459
H26   H     H_    0.631268 0.124079 0.654568 0.164459
H27   H     H_    0.631357 0.875910 0.654628 0.165530
H28   H     H_    0.368643 0.124090 0.345372 0.165530
H29   H     H_    0.868732 0.375921 0.345432 0.164459
H30   H     H_    0.131268 0.624079 0.654568 0.164459
H31   H     H_    0.131357 0.375910 0.654628 0.165530
H32   H     H_    0.868643 0.624090 0.345372 0.165530
H33   H     H_    0.578272 0.003752 0.296050 0.167735
H34   H     H_    0.421728 0.996248 0.703950 0.167734
H35   H     H_    0.078272 0.503752 0.296050 0.167735
H36   H     H_    0.921728 0.496248 0.703950 0.167734
H37   H     H_    0.597741 0.001099 0.736445 0.141515
H38   H     H_    0.402259 0.998900 0.263555 0.141515
H39   H     H_    0.097741 0.501099 0.736445 0.141515
H40   H     H_    0.902259 0.498901 0.263555 0.141515
N1    N     N_2   0.256449 0.758235 0.465399 -0.261993
N2    N     N_2   0.743551 0.241765 0.534601 -0.261993
N3    N     N_2   0.743566 0.758221 0.534608 -0.261537
N4    N     N_2   0.256434 0.241779 0.465392 -0.261537
N5    N     N_2   0.756449 0.258235 0.465399 -0.261993
N6    N     N_2   0.243551 0.741765 0.534601 -0.261993
N7    N     N_2   0.243566 0.258221 0.534608 -0.261537
N8    N     N_2   0.756434 0.741779 0.465392 -0.261537
N9    N     N_R   0.509630 0.000000 0.712800 -0.213799
N10   N     N_R   0.490370 0.000000 0.287200 -0.213799
N11   N     N_R   0.009630 0.500000 0.712800 -0.213799
N12   N     N_R   0.990370 0.500000 0.287200 -0.213799
N13   N     N_2   0.517922 0.986884 0.983410 -0.177638
N14   N     N_2   0.482078 0.013116 0.016590 -0.177638
N15   N     N_2   0.017922 0.486884 0.983410 -0.177638
N16   N     N_2   0.982078 0.513116 0.016590 -0.177638
O1    O     O_R   0.439460 0.057000 0.420280 -0.581329
O2    O     O_R   0.560540 0.943000 0.579720 -0.581329
O3    O     O_R   0.560540 0.057000 0.579720 -0.581087
O4    O     O_R   0.439460 0.943000 0.420280 -0.581087
O5    O     O_R   0.939460 0.557000 0.420280 -0.581329
O6    O     O_R   0.060540 0.443000 0.579720 -0.581329
O7    O     O_R   0.060540 0.557000 0.579720 -0.581087
O8    O     O_R   0.939460 0.443000 0.420280 -0.581087
O9    O     O_R   0.445940 0.056970 0.563920 -0.585848
O10   O     O_R   0.554060 0.943030 0.436080 -0.585848
O11   O     O_R   0.554060 0.056970 0.436080 -0.588825
O12   O     O_R   0.445940 0.943030 0.563920 -0.588825
O13   O     O_R   0.945940 0.556970 0.563920 -0.585848
O14   O     O_R   0.054060 0.443030 0.436080 -0.585848
O15   O     O_R   0.054060 0.556970 0.436080 -0.588825
O16   O     O_R   0.945940 0.443030 0.563920 -0.588825
O17   O     O_3   0.589267 0.017445 0.137140 -0.692077
H41   H     H_    0.582874 0.039769 0.084014 0.368818
O18   O     O_3   0.410733 0.982554 0.862860 -0.692078
H42   H     H_    0.417126 0.960231 0.915986 0.368818
O19   O     O_3   0.089267 0.517445 0.137140 -0.692078
H43   H     H_    0.082874 0.539769 0.084014 0.368818
O20   O     O_3   0.910733 0.482555 0.862859 -0.692077
H44   H     H_    0.917126 0.460231 0.915986 0.368818
O21   O     O_3   0.613604 0.994740 0.908826 -0.690185
H45   H     H_    0.644087 0.997405 0.873585 0.319475
O22   O     O_3   0.386396 0.005260 0.091174 -0.690184
H46   H     H_    0.355913 0.002595 0.126415 0.319474
O23   O     O_3   0.113604 0.494740 0.908826 -0.690185
H47   H     H_    0.144087 0.497405 0.873586 0.319475
O24   O     O_3   0.886396 0.505260 0.091174 -0.690184
H48   H     H_    0.855913 0.502595 0.126415 0.319474

loop_
_geom_bond_atom_site_label_1
_geom_bond_atom_site_label_2
_ccdc_geom_bond_type
C3    O11   A    
O19   H43   S    
C42   H13   S    
C14   C18   A    
C1    O9    A    
O22   H46   S    
C34   C42   A    
Cu1   O4    S    
C48   C56   A    
C72   C76   A    
Cu2   O3    S    
C7    O7    A    
O21   H45   S    
C52   N8    S    
C5    O13   A    
N15   N16   D    
C41   H14   S    
Cu1   Cu2   S    
C15   C19   A    
C72   H35   S    
C36   H7    S    
O23   H47   S    
C7    C26   S    
C37   H10   S    
C39   C47   A    
C28   C68   A    
Cu2   N9    S    
Cu1   O1    S    
O20   H44   S    
C22   C62   A    
Cu3   N12   S    
C16   O24   S    
C4    O12   A    
C70   N10   A    
C49   C57   A    
C30   C38   A    
Cu4   O16   S    
C68   H32   S    
C14   O22   S    
C9    C13   A    
C52   C60   A    
Cu2   O9    S    
C59   C67   A    
C53   C61   A    
C58   C66   A    
C12   C16   A    
C55   C63   A    
C70   C74   A    
C56   C64   A    
C64   H28   S    
C50   N6    S    
C6    O6    A    
C35   C43   A    
C18   H38   S    
C21   C61   A    
C17   H37   S    
C44   C52   A    
C23   C63   A    
C19   H39   S    
C24   C64   A    
Cu4   N11   S    
C8    C25   S    
C46   C54   A    
C9    C73   A    
C20   N12   A    
Cu2   O2    S    
C41   C49   A    
C26   C34   A    
C72   N12   A    
C70   H33   S    
C19   N11   A    
Cu4   O13   S    
C76   O19   S    
C69   H34   S    
O18   H42   S    
C17   N9    A    
C2    O2    A    
C25   C65   A    
C10   C14   A    
O24   H48   S    
C54   C62   A    
C45   N1    S    
C21   C29   A    
C49   N5    S    
C31   H4    S    
C74   O17   S    
C54   H18   S    
C34   H5    S    
C26   C66   A    
C33   H6    S    
C24   C32   A    
C11   N15   S    
C4    O4    A    
C5    C28   S    
C27   C35   A    
C35   H8    S    
C5    O5    A    
C6    C27   S    
C38   H9    S    
C16   C20   A    
Cu4   O7    S    
C73   O18   S    
C25   C33   A    
C43   H16   S    
C50   C58   A    
C8    O8    A    
C27   C67   A    
C66   H30   S    
C69   C73   A    
C65   H29   S    
C42   C50   A    
Cu3   O14   S    
C7    O15   A    
C67   H31   S    
C11   C15   A    
N4    N7    D    
N13   N14   D    
C29   C37   A    
C18   N10   A    
C51   C59   A    
C56   H20   S    
C37   C45   A    
C39   H12   S    
C20   H40   S    
C1    O1    A    
C47   C55   A    
Cu3   O15   S    
C75   O20   S    
C40   C48   A    
C32   H3    S    
Cu1   O11   S    
C22   C30   A    
C8    O16   A    
C15   O23   S    
C10   N14   S    
C57   C65   A    
C48   N4    S    
C13   O21   S    
C47   N3    S    
C62   H26   S    
Cu2   O12   S    
C2    O10   A    
C57   H21   S    
Cu4   O6    S    
Cu3   O8    S    
C13   C17   A    
C53   H17   S    
C60   C68   A    
C33   C41   A    
C30   H1    S    
C12   C76   A    
C59   H23   S    
N1    N6    D    
C44   H15   S    
C11   C75   A    
C1    C24   S    
C71   C75   A    
C4    C21   S    
C10   C74   A    
C43   C51   A    
N3    N8    D    
Cu3   O5    S    
N2    N5    D    
C58   H22   S    
C61   H25   S    
C31   C39   A    
C71   H36   S    
Cu1   N10   S    
C32   C40   A    
C40   H11   S    
C38   C46   A    
C36   C44   A    
C45   C53   A    
Cu3   Cu4   S    
C6    O14   A    
C29   H2    S    
C3    O3    A    
C51   N7    S    
C28   C36   A    
C71   N11   A    
C69   N9    A    
C12   N16   S    
C55   H19   S    
C2    C23   S    
C46   N2    S    
C3    C22   S    
O17   H41   S    
C60   H24   S    
C63   H27   S    
Cu1   O10   S    
C23   C31   A    
C9    N13   S    
