data_mof_unit_40409.cif
_audit_creation_date              2012-12-10T17:53:24-0500
_audit_creation_method            fapswitch 2.2
_symmetry_space_group_name_H-M    P1
_symmetry_Int_Tables_number       1
_space_group_crystal_system       triclinic
_cell_length_a                    23.420262
_cell_length_b                    10.719001
_cell_length_c                    9.87478
_cell_angle_alpha                 89.416181
_cell_angle_beta                  90.360642
_cell_angle_gamma                 91.719303
_cell_volume                      2477.69353671

loop_
_atom_site_label
_atom_site_type_symbol
_atom_type_description
_atom_site_fract_x
_atom_site_fract_y
_atom_site_fract_z
_atom_type_partial_charge
C1    C     C_R   0.503694 0.259888 0.501821 0.873188
C2    C     C_R   0.120931 0.578656 0.463054 0.507645
C3    C     C_R   0.238370 0.480937 0.371379 -0.098327
C4    C     C_R   0.389315 0.498121 0.499577 0.856131
C5    C     C_R   0.297551 0.489974 0.373595 -0.214580
C6    C     C_R   0.327055 0.490100 0.497863 -0.038751
C7    C     C_R   0.296626 0.479423 0.619718 -0.216052
C8    C     C_R   0.237341 0.470274 0.617063 -0.091052
C9    C     C_R   0.208353 0.471714 0.492959 0.321330
C10   C     C_R   0.757522 0.419452 0.394022 -0.090011
C11   C     C_R   0.698564 0.427258 0.398287 -0.227065
C12   C     C_R   0.965010 0.248811 0.534634 -0.198535
C13   C     C_R   0.672764 0.496344 0.499948 -0.092040
C14   C     C_R   0.706931 0.558816 0.597847 -0.036458
C15   C     C_R   0.766033 0.549552 0.593150 -0.132001
C16   C     C_R   0.494082 0.738910 0.499843 0.893624
C17   C     C_R   0.791207 0.480545 0.491354 0.290938
C18   C     C_R   0.513194 0.108499 0.761324 -0.155307
C19   C     C_R   0.495388 0.046020 0.878973 -0.145292
C20   C     C_R   0.465020 0.933141 0.869635 -0.144247
C21   C     C_R   0.457680 0.877106 0.743809 -0.134809
C22   C     C_R   0.480677 0.934479 0.625281 0.101254
C23   C     C_R   0.024542 0.244914 0.536187 -0.021110
C24   C     C_R   0.500372 0.058529 0.631544 0.099792
C25   C     C_R   0.506006 0.125921 0.507147 -0.118121
C26   C     C_R   0.504358 0.064051 0.383206 -0.212765
C27   C     C_R   0.496915 0.937125 0.380692 -0.204839
C28   C     C_R   0.610606 0.501055 0.500297 0.883987
C29   C     C_R   0.486847 0.871441 0.501245 -0.126989
C30   C     C_R   0.425198 0.335786 0.141077 -0.197535
C31   C     C_R   0.388465 0.254610 0.071143 -0.251663
C32   C     C_R   0.388447 0.254320 0.930728 0.018365
C33   C     C_R   0.425401 0.335494 0.860113 -0.217920
C34   C     C_R   0.057910 0.355893 0.512064 -0.060410
C35   C     C_R   0.463336 0.418550 0.927938 0.138663
C36   C     C_R   0.463280 0.418691 0.072723 0.169389
C37   C     C_R   0.534525 0.578967 0.071276 -0.118333
C38   C     C_R   0.534306 0.579252 0.927949 -0.110207
C39   C     C_R   0.882462 0.583630 0.455999 0.507736
C40   C     C_R   0.877787 0.365692 0.509935 0.515888
C41   C     C_R   0.937407 0.360714 0.508815 -0.027292
C42   C     C_R   0.969758 0.470828 0.482621 -0.019470
C43   C     C_R   0.942043 0.583490 0.455360 -0.014885
C44   C     C_1   0.683241 0.638632 0.698678 0.201474
C45   C     C_R   0.029822 0.468815 0.484466 -0.028730
C46   C     C_1   0.049024 0.124825 0.562955 0.280949
C47   C     C_1   0.350633 0.169759 0.858215 0.173946
C48   C     C_R   0.061567 0.580578 0.459248 -0.011056
C49   C     C_R   0.033494 0.691886 0.431414 -0.149039
C50   C     C_R   0.974257 0.693291 0.429282 -0.156891
C51   C     C_R   0.118202 0.359903 0.514317 0.501139
H1    H     H_    0.940167 0.163523 0.554090 0.194572
H2    H     H_    0.562670 0.643481 0.125033 0.155786
H3    H     H_    0.422164 0.331017 0.248385 0.217892
H4    H     H_    0.359890 0.191957 0.127154 0.168241
H5    H     H_    0.561836 0.644641 0.873577 0.173837
H6    H     H_    0.057184 0.778431 0.411577 0.200904
H7    H     H_    0.953859 0.780797 0.408069 0.194653
H8    H     H_    0.320058 0.497286 0.278218 0.167959
H9    H     H_    0.318492 0.478311 0.716688 0.163749
H10   H     H_    0.213832 0.463646 0.711073 0.141095
H11   H     H_    0.777139 0.366756 0.314698 0.152040
H12   H     H_    0.673013 0.378595 0.322469 0.166747
H13   H     H_    0.423395 0.330519 0.752704 0.213450
H14   H     H_    0.215679 0.482308 0.275498 0.140267
H15   H     H_    0.792901 0.597598 0.667051 0.150206
H16   H     H_    0.509506 0.113380 0.287488 0.171628
H17   H     H_    0.538478 0.193335 0.774853 0.173711
H18   H     H_    0.504073 0.086705 0.977169 0.142857
H19   H     H_    0.448769 0.887058 0.960162 0.140667
H20   H     H_    0.433752 0.789281 0.740285 0.161630
H21   H     H_    0.500096 0.890512 0.284262 0.169113
N1    N     N_R   0.851851 0.476151 0.484635 -0.355657
N2    N     N_R   0.147607 0.469839 0.490297 -0.359706
N3    N     N_R   0.499460 0.498800 0.142780 -0.121734
N4    N     N_R   0.499440 0.498720 0.857170 -0.125116
N5    N     N_1   0.664720 0.703366 0.779385 -0.208439
N6    N     N_1   0.068355 0.028415 0.584350 -0.155244
N7    N     N_1   0.320342 0.101819 0.799773 -0.167018
O1    O     O_R   0.500000 0.316780 0.614690 -0.652632
O2    O     O_R   0.583850 0.500050 0.614640 -0.607583
O3    O     O_R   0.583840 0.500030 0.385310 -0.612313
O4    O     O_2   0.855143 0.690139 0.428242 -0.548721
O5    O     O_2   0.845918 0.261690 0.537848 -0.549008
O6    O     O_2   0.147635 0.255913 0.539698 -0.538198
O7    O     O_2   0.152083 0.684838 0.440566 -0.542408
O8    O     O_R   0.500000 0.316750 0.385360 -0.639663
O9    O     O_R   0.416160 0.499970 0.614690 -0.645617
O10   O     O_R   0.416150 0.499950 0.385360 -0.639413
O11   O     O_R   0.500000 0.683250 0.614640 -0.624022
O12   O     O_R   0.500000 0.683220 0.385310 -0.618405
Zn1   Zn    Zn3+2 0.500000 0.500020 0.653130 0.936130
Zn2   Zn    Zn3+2 0.500000 0.499980 0.346870 0.940110

loop_
_geom_bond_atom_site_label_1
_geom_bond_atom_site_label_2
_ccdc_geom_bond_type
C1    O8    A    
C1    C25   S    
C16   O11   A    
C22   C29   A    
C27   C29   A    
C41   C42   A    
C40   O5    S    
C35   C36   A    
C51   N2    A    
C47   N7    T    
C51   O6    S    
C7    C8    A    
C38   N4    A    
C30   H3    S    
C12   C23   A    
C26   C27   A    
C37   C38   A    
C21   H20   S    
C18   C24   A    
C26   H16   S    
C44   N5    T    
C11   H12   S    
C5    C6    A    
C10   C17   A    
C18   H17   S    
C49   H6    S    
C40   N1    A    
C18   C19   A    
O2    Zn1   S    
O9    Zn1   S    
C8    C9    A    
C13   C28   S    
C2    N2    A    
C8    H10   S    
C37   H2    S    
C37   N3    A    
O3    Zn2   S    
C13   C14   A    
C17   N1    S    
C20   H19   S    
C10   H11   S    
C12   H1    S    
C3    H14   S    
C35   N4    A    
C5    H8    S    
C28   O3    A    
C50   H7    S    
C24   C25   A    
C4    C6    S    
C46   N6    T    
C39   C43   A    
C2    C48   A    
C16   C29   S    
C15   H15   S    
C42   C45   A    
O1    Zn1   S    
C12   C41   A    
C3    C9    A    
C36   N3    A    
O12   Zn2   S    
O11   Zn1   S    
C31   C32   A    
C23   C34   A    
C34   C51   A    
C34   C45   A    
N4    Zn1   S    
C40   C41   A    
C32   C47   S    
C22   C24   A    
C19   H18   S    
C42   C43   A    
C7    H9    S    
N3    Zn2   S    
C14   C44   S    
C4    O10   A    
C45   C48   A    
C15   C17   A    
C48   C49   A    
C28   O2    A    
C3    C5    A    
C43   C50   A    
C6    C7    A    
C4    O9    A    
C30   C36   A    
C32   C33   A    
C19   C20   A    
C25   C26   A    
C39   O4    S    
C11   C13   A    
C30   C31   A    
C33   H13   S    
O8    Zn2   S    
C33   C35   A    
C2    O7    S    
C39   N1    A    
O10   Zn2   S    
C10   C11   A    
C38   H5    S    
C20   C21   A    
C16   O12   A    
C49   C50   A    
C9    N2    S    
C23   C46   S    
C1    O1    A    
C14   C15   A    
C31   H4    S    
C21   C22   A    
C27   H21   S    
