data_mof_unit_57041.cif
_audit_creation_date              2012-12-11T19:54:11-0500
_audit_creation_method            fapswitch 2.2
_symmetry_space_group_name_H-M    P1
_symmetry_Int_Tables_number       1
_space_group_crystal_system       triclinic
_cell_length_a                    8.409966
_cell_length_b                    16.261839
_cell_length_c                    17.137416
_cell_angle_alpha                 111.126453
_cell_angle_beta                  82.220793
_cell_angle_gamma                 96.746444
_cell_volume                      2160.09915956

loop_
_atom_site_label
_atom_site_type_symbol
_atom_type_description
_atom_site_fract_x
_atom_site_fract_y
_atom_site_fract_z
_atom_type_partial_charge
Ba1   Ba    Ba6+2 0.325860 0.460280 0.530510 1.693258
Ba2   Ba    Ba6+2 0.863950 0.539650 0.469460 1.670145
C1    C     C_3   0.196432 0.382661 0.879959 -0.282828
C2    C     C_3   0.807615 0.433651 0.757190 0.018183
C3    C     C_2   0.768803 0.463302 0.851579 -0.097075
C4    C     C_3   0.567614 0.224897 0.693890 0.338704
C5    C     C_2   0.640002 0.510190 0.889503 -0.005675
C6    C     C_2   0.558020 0.547996 0.839191 -0.141322
C7    C     C_1   0.602780 0.527873 0.757622 0.049414
C8    C     C_R   0.383914 0.515395 0.138860 0.007861
C9    C     C_R   0.332041 0.532862 0.223718 0.018101
C10   C     C_R   0.557216 0.459749 0.238277 0.102072
C11   C     C_R   0.609728 0.442612 0.152755 -0.111238
C12   C     C_3   0.163500 0.375939 0.792308 0.684462
C13   C     C_R   0.526478 0.473091 0.103174 0.058528
C14   C     C_2   0.572088 0.519833 0.977230 -0.109195
C15   C     C_2   0.592318 0.462024 0.015163 -0.084092
C16   C     C_3   0.608701 0.135557 0.694324 -0.314263
C17   C     C_R   0.416787 0.503796 0.272715 -0.258421
C18   C     C_2   0.395606 0.757088 0.521068 -0.316549
C19   C     C_R   0.811967 0.252109 0.486421 -0.279153
C20   C     C_2   0.229705 0.880177 0.604903 -0.060113
C21   C     C_2   0.247952 0.793154 0.575093 -0.001026
C22   C     C_2   0.509753 0.809965 0.496243 -0.012851
C23   C     C_3   0.918849 0.747193 0.750796 0.379700
C24   C     C_3   0.468699 0.901583 0.506460 0.032984
C25   C     C_3   0.360602 0.944203 0.587606 0.022203
C26   C     C_2   0.609745 0.963909 0.498443 -0.104436
C27   C     C_2   0.584722 0.036640 0.484455 -0.086107
C28   C     C_3   0.681002 0.266980 0.324455 0.314239
C29   C     C_R   0.868158 0.074046 0.438322 0.049924
C30   C     C_R   0.716028 0.102257 0.476110 -0.074386
C31   C     C_R   0.989250 0.133512 0.421839 -0.123283
C32   C     C_R   0.959649 0.222218 0.443314 0.080600
C33   C     C_R   0.687725 0.192114 0.500251 -0.004518
C34   C     C_3   0.903475 0.764060 0.844657 -0.334935
C35   C     C_3   0.698194 0.168054 0.281592 -0.407231
C36   C     C_3   0.522980 0.737026 0.682859 0.358262
C37   C     C_3   0.516849 0.836854 0.726079 0.316882
C38   C     C_3   0.168115 0.305653 0.244790 0.688077
C39   C     C_3   0.066622 0.287953 0.170674 -0.240917
C40   C     C_3   0.366284 0.947242 0.819609 0.208311
C41   C     C_3   0.362450 0.203245 0.173178 0.288606
C42   C     C_2   0.136561 0.335276 0.111853 0.447829
C43   C     C_3   0.060368 0.234826 0.714200 0.103633
C44   C     C_2   0.614618 0.684223 0.259419 0.385709
C45   C     C_3   0.781494 0.721595 0.278035 0.166627
C46   C     C_3   0.884918 0.608609 0.097781 0.284751
C47   C     C_2   0.805357 0.804648 0.167045 0.554184
C48   C     C_2   0.143882 0.805475 0.402362 0.484936
C49   C     C_3   0.533141 0.913829 0.288838 0.159292
C50   C     C_2   0.523842 0.285735 0.782055 0.504536
C51   C     C_2   0.297256 0.821414 0.184102 0.581733
C52   C     C_3   0.879836 0.749268 0.204911 0.307481
C53   C     C_3   0.237041 0.773634 0.316603 0.287500
C54   C     C_3   0.266078 0.850683 0.279591 0.272771
C55   C     C_2   0.698264 0.464959 0.714080 -0.236395
H1    H     H_    0.269851 0.351910 0.746776 -0.007099
H2    H     H_    0.212992 0.316396 0.880980 0.138128
H3    H     H_    0.049776 0.216131 0.134463 0.072396
H4    H     H_    0.943873 0.308273 0.195223 0.054984
H5    H     H_    0.093476 0.410216 0.926517 0.088674
H6    H     H_    0.868972 0.802690 0.741156 -0.030584
H7    H     H_    0.850145 0.683679 0.719681 0.026844
H8    H     H_    0.971177 0.827360 0.877680 0.121658
H9    H     H_    0.774787 0.768003 0.870036 0.094087
H10   H     H_    0.951910 0.709432 0.856484 0.138612
H11   H     H_    0.305476 0.427009 0.899207 0.086407
H12   H     H_    0.794910 0.156050 0.228632 0.126446
H13   H     H_    0.683539 0.144353 0.745823 0.111062
H14   H     H_    0.844098 0.669485 0.285788 0.099643
H15   H     H_    0.968548 0.797860 0.238982 0.015186
H16   H     H_    0.353170 0.754898 0.324468 -0.069921
H17   H     H_    0.152230 0.882958 0.292752 0.036415
H18   H     H_    0.664696 0.406366 0.982457 0.115563
H19   H     H_    0.453940 0.585863 0.868015 0.108413
H20   H     H_    0.314902 0.537095 0.101904 0.091583
H21   H     H_    0.499924 0.575541 0.010386 0.155905
H22   H     H_    0.836627 0.437909 0.886201 0.089413
H23   H     H_    0.728800 0.138915 0.326148 0.061120
H24   H     H_    0.717371 0.407783 0.125539 0.047714
H25   H     H_    0.711254 0.438894 0.646059 0.079068
H26   H     H_    0.373942 0.516546 0.338134 0.068834
H27   H     H_    0.124985 0.906133 0.647517 0.054386
H28   H     H_    0.678105 0.256619 0.669716 -0.098293
H29   H     H_    0.102565 0.109274 0.388252 0.113931
H30   H     H_    0.416411 0.688494 0.507551 0.069802
H31   H     H_    0.789296 0.320825 0.503443 0.059341
H32   H     H_    0.728680 0.954160 0.509814 0.131517
H33   H     H_    0.462703 0.047356 0.478701 0.165695
H34   H     H_    0.583570 0.133949 0.257083 0.105496
H35   H     H_    0.497250 0.094474 0.702628 0.121262
H36   H     H_    0.681507 0.100499 0.635716 0.070042
H37   H     H_    0.795620 0.299373 0.349345 0.001261
H38   H     H_    0.582415 0.277933 0.376449 0.063710
H39   H     H_    0.467047 0.976409 0.859451 0.032426
H40   H     H_    0.252048 0.960391 0.861243 0.065589
H41   H     H_    0.366583 0.980106 0.772816 0.013774
H42   H     H_    0.490041 0.199020 0.146431 0.075277
H43   H     H_    0.341912 0.165678 0.216859 0.035123
H44   H     H_    0.291056 0.171122 0.118883 0.025641
H45   H     H_    0.408908 0.708890 0.654924 0.015057
H46   H     H_    0.086385 0.394903 0.115057 0.005969
H47   H     H_    0.142325 0.204036 0.739717 0.067207
H48   H     H_    0.113964 0.239422 0.652801 0.099199
H49   H     H_    0.948520 0.191034 0.702597 0.055246
H50   H     H_    0.539708 0.662069 0.305228 -0.077314
H51   H     H_    0.808878 0.623555 0.057640 0.099024
H52   H     H_    0.814027 0.576256 0.139151 0.016182
H53   H     H_    0.969497 0.560461 0.055155 0.039182
H54   H     H_    0.824204 0.876170 0.193400 -0.123608
H55   H     H_    0.104690 0.759783 0.434667 0.038406
H56   H     H_    0.625062 0.723698 0.632702 -0.029355
H57   H     H_    0.548373 0.915111 0.223957 0.041671
H58   H     H_    0.578022 0.854715 0.292724 0.075018
H59   H     H_    0.608350 0.972075 0.324270 0.068243
H60   H     H_    0.505784 0.353324 0.792023 -0.065350
H61   H     H_    0.289077 0.868703 0.153723 -0.071294
H62   H     H_    0.523338 0.867216 0.677021 -0.082190
H63   H     H_    0.623390 0.863349 0.762135 -0.000553
H64   H     H_    0.157456 0.375819 0.286140 -0.018109
O1    O     O_2   0.351410 0.559500 0.703710 -0.422553
O2    O     O_2   0.830783 0.810993 0.507834 -0.462767
O3    O     O_3   0.777887 0.795083 0.354727 -0.648959
O4    O     O_3   0.622300 0.553110 0.604480 -0.507224
O5    O     O_3   0.040530 0.390860 0.438530 -0.498307
O6    O     O_2   0.927940 0.718960 0.581060 -0.493136
O7    O     O_3   0.081352 0.742333 0.719214 -0.578046
O8    O     O_2   0.009876 0.541803 0.229053 -0.508294
O9    O     O_3   0.149423 0.700538 0.261558 -0.583376
O10   O     O_3   0.077860 0.395310 0.623380 -0.478674
O11   O     O_2   0.034469 0.559097 0.722866 -0.474791
O12   O     O_3   0.105240 0.247353 0.287117 -0.686831
O13   O     O_3   0.543978 0.700337 0.742615 -0.644868
O14   O     O_3   0.148353 0.462952 0.795334 -0.603532
O15   O     O_2   0.261760 0.281010 0.418880 -0.455585
O16   O     O_3   0.488390 0.347430 0.574410 -0.487801
O17   O     O_2   0.353622 0.189137 0.497559 -0.475385
O18   O     O_3   0.372955 0.855052 0.780130 -0.612205
O19   O     O_3   0.333259 0.293486 0.215953 -0.663611
O20   O     O_2   0.249541 0.306877 0.059733 -0.556203
O21   O     O_3   0.021649 0.318749 0.771896 -0.699177
O22   O     O_2   0.560738 0.679610 0.195425 -0.577688
O23   O     O_3   0.434518 0.212992 0.646980 -0.637129
O24   O     O_3   0.975356 0.684606 0.143975 -0.610575
O25   O     O_2   0.728512 0.771680 0.106253 -0.547624
O26   O     O_2   0.112322 0.882558 0.437328 -0.561332
O27   O     O_3   0.372550 0.921581 0.324423 -0.663320
O28   O     O_2   0.508991 0.261404 0.842504 -0.591777
O29   O     O_2   0.331589 0.746570 0.140816 -0.487869
O30   O     O_2   0.838300 0.440470 0.296230 -0.494716
O31   O     O_3   0.567380 0.446810 0.395500 -0.490506
O32   O     O_3   0.111820 0.604620 0.376600 -0.506920
O33   O     O_3   0.645071 0.299479 0.264395 -0.616509
O34   O     O_3   0.149150 0.609060 0.561440 -0.442221
O35   O     O_3   0.701290 0.652490 0.425560 -0.498654
P1    P     P_3+3 0.533580 0.585010 0.696460 0.990708
P2    P     P_3+3 0.097450 0.292710 0.397510 0.982474
P3    P     P_3+3 0.492151 0.234446 0.553022 0.934346
P4    P     P_3+3 0.656110 0.414920 0.303520 1.012898
P5    P     P_3+3 0.705275 0.765833 0.444420 0.934141
P6    P     P_3+3 0.017258 0.463942 0.724839 1.042411
P7    P     P_3+3 0.099136 0.719046 0.610241 0.995799
P8    P     P_3+3 0.156410 0.596842 0.272722 0.960736

loop_
_geom_bond_atom_site_label_1
_geom_bond_atom_site_label_2
_ccdc_geom_bond_type
C48   O26   D    
C16   H13   S    
C46   H53   S    
C53   C54   S    
O31   P4    S    
Ba2   O34   S    
C35   H12   S    
C22   P5    S    
C39   H4    S    
C12   O21   S    
C34   H10   S    
C5    C6    S    
C46   H51   S    
C38   H64   S    
C9    C17   A    
C24   C25   S    
C4    H28   S    
C40   H39   S    
Ba1   P2    S    
C23   O7    S    
Ba1   O4    S    
O12   P2    S    
C27   C30   S    
C8    C13   A    
C40   H41   S    
C36   C37   S    
O2    P5    D    
O4    P1    S    
C51   C54   S    
C1    H11   S    
C12   O14   S    
C47   C52   S    
C55   H25   S    
C18   H30   S    
C11   H24   S    
C6    H19   S    
Ba1   O31   S    
Ba1   Ba2   S    
C23   H6    S    
Ba1   O34   S    
Ba1   O1    S    
O17   P3    D    
C42   H46   S    
C18   C22   D    
C12   H1    S    
C14   C15   D    
C2    C55   S    
O6    P7    D    
C29   C31   A    
C26   H32   S    
C3    H22   S    
Ba1   O15   S    
C7    C55   D    
C47   H54   S    
O15   P2    D    
Ba2   O6    S    
C46   H52   S    
C19   H31   S    
C44   H50   S    
C17   H26   S    
C27   H33   S    
C8    H20   S    
C43   H48   S    
C21   P7    S    
O5    P2    S    
Ba2   O31   S    
C4    C16   S    
C35   H23   S    
C37   O18   S    
C49   H57   S    
C54   H17   S    
O16   P3    S    
O32   P8    S    
C30   C33   A    
C41   H43   S    
C40   H40   S    
C3    C5    D    
C36   H56   S    
C35   H34   S    
C34   H8    S    
C50   O28   D    
C19   C32   A    
O10   P6    S    
O34   P7    S    
O7    P7    S    
C49   H58   S    
C28   C35   S    
C23   H7    S    
C20   H27   S    
C54   O27   S    
C31   H29   S    
C41   H44   S    
O33   P4    S    
C28   H38   S    
C43   H47   S    
C34   H9    S    
C29   C30   A    
C18   C21   S    
C7    P1    S    
C53   O9    S    
C46   O24   S    
C48   H55   S    
C31   C32   A    
C6    C7    D    
C41   O19   S    
Ba1   O5    S    
O23   P3    S    
C45   H14   S    
C1    C12   S    
C45   C52   S    
C32   P2    S    
Ba2   P4    S    
C38   C39   S    
O35   P5    S    
Ba2   O32   S    
C20   C25   S    
C52   O24   S    
C43   O21   S    
C39   C42   S    
C2    P6    S    
C4    O23   S    
C26   C27   D    
Ba2   O5    S    
Ba1   O16   S    
C43   H49   S    
O3    P5    S    
C42   O20   D    
C1    H5    S    
O9    P8    S    
Ba2   O30   S    
C13   C15   S    
C37   H62   S    
C44   C45   S    
C5    C14   S    
Ba2   O35   S    
C40   O18   S    
C51   H61   S    
C48   C53   S    
C39   H3    S    
C41   H42   S    
C2    C3    S    
C10   P4    S    
C44   O22   D    
C19   C33   A    
C38   O12   S    
C24   C26   S    
C49   H59   S    
C16   H35   S    
O30   P4    D    
C11   C13   A    
C28   H37   S    
C50   H60   S    
C22   C24   S    
C45   O3    S    
C51   O29   D    
C49   O27   S    
Ba1   O10   S    
C38   O19   S    
C10   C17   A    
Ba1   P1    S    
C9    P8    S    
O14   P6    S    
O1    P1    D    
C47   O25   D    
C14   H21   S    
C36   O13   S    
O11   P6    D    
C33   P3    S    
C8    C9    A    
C23   C34   S    
C53   H16   S    
Ba2   O4    S    
C28   O33   S    
O13   P1    S    
C52   H15   S    
C10   C11   A    
O8    P8    D    
C36   H45   S    
C15   H18   S    
C16   H36   S    
C20   C21   D    
C4    C50   S    
C37   H63   S    
C1    H2    S    
