data_mof_unit_6538.cif
_audit_creation_date              2012-12-11T18:37:15-0500
_audit_creation_method            fapswitch 2.2
_symmetry_space_group_name_H-M    P1
_symmetry_Int_Tables_number       1
_space_group_crystal_system       triclinic
_cell_length_a                    8.405569
_cell_length_b                    14.424709
_cell_length_c                    27.085803
_cell_angle_alpha                 94.501012
_cell_angle_beta                  92.767819
_cell_angle_gamma                 88.183774
_cell_volume                      3268.86441216

loop_
_atom_site_label
_atom_site_type_symbol
_atom_type_description
_atom_site_fract_x
_atom_site_fract_y
_atom_site_fract_z
_atom_type_partial_charge
Ba1   Ba    Ba6+2 0.849670 0.455410 0.524690 1.858795
Ba2   Ba    Ba6+2 0.340150 0.544510 0.475310 1.804889
C1    C     C_3   0.599395 0.125345 0.689457 0.524170
C2    C     C_R   0.931345 0.601351 0.179619 0.576594
C3    C     C_2   0.782021 0.564505 0.273824 -0.050540
C4    C     C_3   0.089954 0.270579 0.664791 0.420221
C5    C     C_3   0.759044 0.595868 0.327391 -0.056389
C6    C     C_1   0.993874 0.499341 0.348295 0.051941
C7    C     C_2   0.040995 0.500655 0.301518 -0.116033
C8    C     C_2   0.926212 0.529788 0.260213 0.176841
C9    C     C_R   0.043601 0.519978 0.106250 -0.083349
C10   C     C_R   0.083070 0.443964 0.134619 -0.049570
C11   C     C_R   0.161923 0.366168 0.111537 -0.021921
C12   C     C_3   0.561140 0.227732 0.681763 0.231327
C13   C     C_R   0.970095 0.599642 0.129281 -0.027580
C14   C     C_2   0.865120 0.545728 0.363732 -0.310854
C15   C     C_2   0.347344 0.488420 0.643994 -0.271199
C16   C     C_3   0.075189 0.253139 0.718815 -0.208541
C17   C     C_R   0.154301 0.426329 0.977872 0.039634
C18   C     C_R   0.099627 0.594919 0.977805 -0.033389
C19   C     C_R   0.147346 0.509526 0.952492 0.048412
C20   C     C_R   0.173979 0.340100 0.948847 -0.075015
C21   C     C_R   0.217157 0.339408 0.899512 -0.078984
C22   C     C_R   0.224454 0.421677 0.875375 0.002780
C23   C     C_3   0.508030 0.724383 0.622456 0.566462
C24   C     C_R   0.185967 0.507128 0.901316 -0.127746
C25   C     C_R   0.187255 0.589876 0.876239 -0.112245
C26   C     C_R   0.229419 0.584172 0.825448 0.721342
C27   C     C_R   0.261371 0.418677 0.824824 0.591447
C28   C     C_3   0.115652 0.228997 0.373300 0.521847
C29   C     C_2   0.425448 0.449876 0.730447 -0.078484
C30   C     C_3   0.438656 0.422974 0.675910 -0.077316
C31   C     C_1   0.210265 0.525040 0.658981 -0.040085
C32   C     C_2   0.172492 0.529307 0.707170 0.312709
C33   C     C_2   0.289947 0.492947 0.746391 0.165784
C34   C     C_3   0.434074 0.791709 0.662383 -0.251958
C35   C     C_R   0.139466 0.433219 0.030705 0.034918
C36   C     C_R   0.077673 0.516456 0.054732 0.051745
C37   C     C_R   0.050805 0.596411 0.027781 0.036751
C38   C     C_R   0.191800 0.361639 0.060989 -0.026408
C39   C     C_R   0.935501 0.676455 0.101401 -0.035691
C40   C     C_3   0.151116 0.169251 0.325502 -0.162471
C41   C     C_R   0.103369 0.676492 0.952379 -0.106151
C42   C     C_R   0.146518 0.675070 0.903096 0.429069
C43   C     C_R   0.976091 0.675332 0.052028 -0.091165
C44   C     C_R   0.679836 0.063595 0.469352 0.007651
C45   C     C_3   0.090517 0.753045 0.332472 0.242664
C46   C     C_R   0.510923 0.198163 0.501194 0.075461
C47   C     C_R   0.378125 0.229814 0.528061 -0.320895
C48   C     C_R   0.280884 0.168096 0.549009 -0.083335
C49   C     C_R   0.330145 0.074791 0.549485 0.365988
C50   C     C_R   0.459796 0.039881 0.521642 -0.000890
C51   C     C_R   0.550646 0.101191 0.496727 -0.047148
C52   C     C_3   0.066997 0.761010 0.591847 0.450496
C53   C     C_R   0.622823 0.906698 0.489309 -0.030675
C54   C     C_R   0.717617 0.967548 0.465629 0.035574
C55   C     C_R   0.661149 0.810239 0.485941 0.053802
C56   C     C_3   0.113088 0.786091 0.281274 -0.225314
C57   C     C_R   0.782200 0.775829 0.455328 -0.201044
C58   C     C_R   0.893619 0.835969 0.439851 0.041650
C59   C     C_R   0.857132 0.932032 0.442676 -0.082643
C60   C     C_R   0.497974 0.944175 0.517858 0.055756
C61   C     C_3   0.958893 0.839757 0.613533 0.674013
C62   C     C_3   0.663392 0.346396 0.382441 0.412403
C63   C     C_3   0.682108 0.326682 0.326774 0.240610
C64   C     C_2   0.554056 0.830902 0.700711 0.739912
C65   C     C_2   0.714869 0.113583 0.732786 0.584938
C66   C     C_2   0.013524 0.872323 0.273360 0.576408
C67   C     C_3   0.560869 0.792216 0.350205 0.280368
C68   C     C_2   0.429590 0.938681 0.321203 0.543921
C69   C     C_2   0.126099 0.249264 0.964641 0.506278
C70   C     C_2   0.336232 0.328672 0.533022 0.649010
C71   C     C_2   0.998381 0.180015 0.401148 0.434000
C72   C     C_3   0.573189 0.874717 0.318451 -0.224313
C73   C     C_R   0.045340 0.447963 0.185489 0.631115
Cl1   Cl    Cl    0.988252 0.714321 0.534329 -0.712650
Cl2   Cl    Cl    0.241393 0.005414 0.589875 -0.539658
Cl3   Cl    Cl    0.293276 0.236826 0.408567 -0.770655
Cl4   Cl    Cl    0.906563 0.923889 0.570769 -0.551192
Cl5   Cl    Cl    0.045954 0.895827 0.668975 -0.456513
Cl6   Cl    Cl    0.678997 0.071379 0.634334 -0.524352
Cl7   Cl    Cl    0.493578 0.314672 0.294611 -0.614317
Cl8   Cl    Cl    0.420051 0.069213 0.700624 -0.547583
Cl9   Cl    Cl    0.633525 0.641537 0.651497 -0.651671
Cl10  Cl    Cl    0.142420 0.784199 0.877532 -0.508623
Cl11  Cl    Cl    0.997749 0.589444 0.726842 -0.509347
H1    H     H_    0.475999 0.229860 0.648983 -0.000994
H2    H     H_    0.742003 0.384987 0.311907 -0.025055
H3    H     H_    0.502709 0.259470 0.715226 0.047724
H4    H     H_    0.409653 0.686053 0.602086 -0.034089
H5    H     H_    0.372472 0.850307 0.644569 0.175676
H6    H     H_    0.344243 0.754484 0.681528 0.081253
H7    H     H_    0.070097 0.320761 0.741204 0.091493
H8    H     H_    0.149968 0.683417 0.334400 0.079169
H9    H     H_    0.960566 0.746968 0.337180 -0.064055
H10   H     H_    0.081075 0.729639 0.252944 0.119144
H11   H     H_    0.239879 0.800294 0.276785 0.134707
H12   H     H_    0.242462 0.201606 0.304891 0.205920
H13   H     H_    0.686131 0.770255 0.359011 -0.075334
H14   H     H_    0.504913 0.814662 0.385708 0.034347
H15   H     H_    0.677790 0.915931 0.332498 0.038760
H16   H     H_    0.002176 0.326684 0.655991 0.061137
H17   H     H_    0.593702 0.849149 0.279400 0.175385
H18   H     H_    0.160499 0.477199 0.292478 0.171555
H19   H     H_    0.201318 0.308132 0.132552 0.144881
H20   H     H_    0.514000 0.423477 0.756721 0.124452
H21   H     H_    0.235285 0.272825 0.878714 0.137164
H22   H     H_    0.260288 0.302023 0.046315 0.081091
H23   H     H_    0.194827 0.098604 0.334079 0.091257
H24   H     H_    0.690678 0.582778 0.246302 0.127058
H25   H     H_    0.877308 0.738700 0.117839 0.154025
H26   H     H_    0.077443 0.744015 0.970643 0.121684
H27   H     H_    0.212198 0.293969 0.659859 -0.171398
H28   H     H_    0.942554 0.736660 0.033230 0.094214
H29   H     H_    0.847939 0.560417 0.402987 0.075037
H30   H     H_    0.403220 0.512857 0.612303 0.094019
H31   H     H_    0.940884 0.978900 0.429488 0.082443
H32   H     H_    0.806671 0.701718 0.451257 0.078146
H33   H     H_    0.754097 0.108565 0.451765 0.129331
H34   H     H_    0.042239 0.162376 0.300659 0.121652
H35   H     H_    0.964009 0.216942 0.723691 0.123999
H36   H     H_    0.427046 0.898343 0.536530 0.139085
H37   H     H_    0.178067 0.210218 0.732019 0.186938
H38   H     H_    0.554601 0.809916 0.738323 0.049374
H39   H     H_    0.821357 0.069704 0.728346 0.107574
H40   H     H_    0.031496 0.934830 0.297770 0.032586
H41   H     H_    0.385203 0.963686 0.356957 0.000118
H42   H     H_    0.186064 0.185545 0.950547 0.035655
H43   H     H_    0.373809 0.370680 0.565742 -0.126937
H44   H     H_    0.015017 0.176416 0.440921 0.025409
H45   H     H_    0.184764 0.788873 0.585513 0.051895
H46   H     H_    0.849526 0.809272 0.624786 0.124397
H47   H     H_    0.777836 0.370949 0.399761 -0.118254
H48   H     H_    0.571131 0.402388 0.388352 0.072892
H49   H     H_    0.755327 0.262354 0.319048 0.130482
N1    N     N_R   0.969055 0.526108 0.207828 -0.428312
N2    N     N_R   0.257805 0.498915 0.799587 -0.429950
O1    O     O_2   0.918080 0.549800 0.616640 -0.342781
O2    O     O_2   0.219671 0.837111 0.463717 -0.454703
O3    O     O_3   0.160518 0.815825 0.368818 -0.624622
O4    O     O_3   0.150070 0.549720 0.556460 -0.438799
O5    O     O_3   0.546340 0.387390 0.478340 -0.476877
O6    O     O_2   0.398940 0.728800 0.517420 -0.473554
O7    O     O_3   0.598269 0.774935 0.591768 -0.608490
O8    O     O_2   0.434953 0.538170 0.321122 -0.462777
O9    O     O_3   0.472004 0.720090 0.324745 -0.589774
O10   O     O_2   0.077690 0.380960 0.209399 -0.554231
O11   O     O_2   0.296953 0.343900 0.803250 -0.598051
O12   O     O_3   0.620911 0.264666 0.402962 -0.544594
O13   O     O_2   0.864038 0.670784 0.198296 -0.578830
O14   O     O_2   0.243908 0.654980 0.804439 -0.462327
O15   O     O_3   0.658250 0.379560 0.591530 -0.476250
O16   O     O_2   0.774424 0.450853 0.678504 -0.388273
O17   O     O_3   0.082957 0.696645 0.627804 -0.620243
O18   O     O_3   0.700551 0.275703 0.674111 -0.620863
O19   O     O_2   0.790750 0.271170 0.482550 -0.491893
O20   O     O_3   0.062300 0.331660 0.568480 -0.520277
O21   O     O_2   0.944343 0.165262 0.542912 -0.409515
O22   O     O_2   0.652751 0.885057 0.689827 -0.479680
O23   O     O_3   0.058261 0.188866 0.634661 -0.485751
O24   O     O_2   0.688304 0.151062 0.773689 -0.547474
O25   O     O_2   0.912113 0.872883 0.239580 -0.525945
O26   O     O_2   0.364265 0.964917 0.283350 -0.565624
O27   O     O_2   0.012895 0.244100 0.990814 -0.538777
O28   O     O_2   0.252207 0.362765 0.500950 -0.508182
O29   O     O_2   0.883414 0.143537 0.379227 -0.622396
O30   O     O_2   0.271610 0.450170 0.383330 -0.414734
O31   O     O_3   0.039630 0.450200 0.443530 -0.438189
O32   O     O_3   0.531440 0.620360 0.408460 -0.495570
O33   O     O_3   0.049023 0.314322 0.359546 -0.661610
O34   O     O_3   0.643350 0.612530 0.521650 -0.428682
O35   O     O_3   0.127390 0.668260 0.431510 -0.444647
P1    P     P_3+3 0.090020 0.577590 0.608380 1.149741
P2    P     P_3+3 0.614340 0.285150 0.467650 1.083490
P3    P     P_3+3 0.085618 0.211555 0.573114 1.118781
P4    P     P_3+3 0.099670 0.422330 0.391610 1.131937
P5    P     P_3+3 0.097830 0.788873 0.426338 1.015489
P6    P     P_3+3 0.642792 0.386160 0.655711 1.033983
P7    P     P_3+3 0.582702 0.731260 0.529379 1.042557
P8    P     P_3+3 0.547648 0.613873 0.344603 0.966468

loop_
_geom_bond_atom_site_label_1
_geom_bond_atom_site_label_2
_ccdc_geom_bond_type
C68   H41   S    
O35   P5    S    
C53   C54   A    
C67   O9    S    
Ba2   O31   S    
C12   O18   S    
Ba1   O19   S    
C70   O28   D    
C19   C24   A    
O34   P7    S    
C68   O26   D    
C27   O11   D    
C70   H43   S    
C12   H3    S    
C61   Cl4   S    
C52   H45   S    
O19   P2    D    
C23   H4    S    
C17   C19   A    
C40   H23   S    
C8    N1    S    
C12   H1    S    
Ba1   Ba2   S    
C35   C38   A    
C40   H12   S    
C36   C37   A    
C32   C33   S    
C34   C64   S    
C55   C57   A    
C52   C61   S    
C53   C60   A    
C44   C51   A    
Ba1   O15   S    
O12   P2    S    
C32   Cl11  S    
C56   H10   S    
C22   C27   A    
C28   O33   S    
C11   C38   A    
Ba1   O5    S    
C17   C35   A    
Ba2   P4    S    
C62   H47   S    
C9    C13   A    
C25   C42   A    
C3    H24   S    
C6    C7    D    
C47   C70   S    
C45   O3    S    
C68   C72   S    
C23   Cl9   S    
C21   C22   A    
O6    P7    D    
C31   P1    S    
C7    C8    S    
O32   P8    S    
O18   P6    S    
O30   P4    D    
C16   H37   S    
C37   C43   A    
C34   H6    S    
C21   H21   S    
C57   C58   A    
C6    C14   D    
O4    P1    S    
Ba2   O6    S    
C30   P6    S    
C56   H11   S    
C15   C31   D    
C43   H28   S    
C64   O22   D    
O3    P5    S    
C46   P2    S    
C61   Cl5   S    
C46   C51   A    
C4    C16   S    
C62   H48   S    
Ba1   P2    S    
C69   O27   D    
C59   H31   S    
C49   C50   A    
C71   H44   S    
C17   C20   A    
C13   C39   A    
C11   H19   S    
C3    C5    S    
C28   C71   S    
C73   N1    Am   
O33   P4    S    
Ba2   O32   S    
Ba1   O31   S    
C73   O10   D    
C58   P5    S    
C44   H33   S    
O21   P3    D    
Ba1   O34   S    
C48   P3    S    
C9    C36   A    
C41   C42   A    
C49   Cl2   S    
C4    H27   S    
C1    Cl6   S    
C35   C36   A    
O2    P5    D    
C65   O24   D    
C29   C30   S    
O7    P7    S    
C16   H7    S    
Ba1   P1    S    
O1    P1    D    
C48   C49   A    
C24   C25   A    
O9    P8    S    
C67   C72   S    
C61   H46   S    
C18   C19   A    
C63   H49   S    
C1    C12   S    
O20   P3    S    
C72   H15   S    
C52   Cl1   S    
C67   H13   S    
C34   H5    S    
C56   C66   S    
C46   C47   A    
C57   H32   S    
C53   C55   A    
C1    Cl8   S    
Ba2   O5    S    
C29   H20   S    
C64   H38   S    
C69   H42   S    
C23   O7    S    
C41   H26   S    
C42   Cl10  S    
C14   H29   S    
C66   H40   S    
C20   C69   S    
C60   H36   S    
C18   C41   A    
C27   N2    Am   
C50   C51   A    
C63   H2    S    
C55   P7    S    
O31   P4    S    
O16   P6    D    
C5    C14   S    
C39   C43   A    
O17   P1    S    
C23   C34   S    
C54   C59   A    
C28   C40   S    
C26   N2    Am   
C22   C24   A    
C71   O29   D    
C52   O17   S    
C4    O23   S    
C9    C10   A    
C6    P4    S    
C66   O25   D    
C2    O13   D    
Ba2   O34   S    
C2    N1    Am   
C62   O12   S    
C62   C63   S    
C2    C13   A    
Ba1   O20   S    
C18   C37   A    
C3    C8    D    
C50   C60   A    
C33   N2    S    
C45   C56   S    
C40   H34   S    
C63   Cl7   S    
C1    C65   S    
C7    H18   S    
Ba2   O4    S    
O8    P8    D    
O23   P3    S    
C45   H8    S    
C31   C32   D    
C5    P8    S    
C29   C33   D    
C4    H16   S    
O15   P6    S    
O5    P2    S    
Ba1   O4    S    
C16   H35   S    
C28   Cl3   S    
C67   H14   S    
C38   H22   S    
C10   C11   A    
C26   O14   D    
C47   C48   A    
C39   H25   S    
C10   C73   A    
C44   C54   A    
C25   C26   A    
C15   C30   S    
C45   H9    S    
C20   C21   A    
C58   C59   A    
Ba2   O30   S    
Ba1   O1    S    
C65   H39   S    
C15   H30   S    
Ba2   O35   S    
C72   H17   S    
