data_mof_unit_14719.cif
_audit_creation_date              2012-12-10T20:27:12-0500
_audit_creation_method            fapswitch 2.2
_symmetry_space_group_name_H-M    P1
_symmetry_Int_Tables_number       1
_space_group_crystal_system       triclinic
_cell_length_a                    10.542416
_cell_length_b                    10.643935
_cell_length_c                    9.8862
_cell_angle_alpha                 89.000548
_cell_angle_beta                  103.008837
_cell_angle_gamma                 90.742277
_cell_volume                      1080.67595656

loop_
_atom_site_label
_atom_site_type_symbol
_atom_type_description
_atom_site_fract_x
_atom_site_fract_y
_atom_site_fract_z
_atom_type_partial_charge
C1    C     C_R   0.500689 0.260244 0.500925 0.872634
C2    C     C_R   0.583867 0.575253 0.088915 0.014138
C3    C     C_R   0.584612 0.573163 0.945524 -0.180157
C4    C     C_R   0.257999 0.492657 0.443154 0.932644
C5    C     C_R   0.403831 0.438908 0.907213 0.228473
C6    C     C_3   0.370807 0.302415 0.896410 -0.507754
C7    C     C_3   0.372448 0.301550 0.050473 -0.507370
C8    C     C_R   0.501049 0.739552 0.499018 0.876726
C9    C     C_R   0.742377 0.493910 0.557041 0.830383
C10   C     C_2   0.120581 0.462480 0.413708 -0.414854
C11   C     C_2   0.071455 0.406659 0.513076 -0.238019
C12   C     C_R   0.503585 0.128211 0.499732 -0.077485
C13   C     C_2   0.882202 0.469361 0.587753 0.195243
C14   C     C_2   0.931042 0.400807 0.497735 0.380332
C15   C     C_R   0.600058 0.063306 0.593027 0.104130
C16   C     C_3   0.889548 0.239385 0.338865 0.096124
C17   C     C_3   0.795850 0.198172 0.206208 -0.832852
C18   C     C_R   0.672118 0.665296 0.175228 0.168955
C19   C     C_R   0.803773 0.636422 0.226146 -0.112117
C20   C     C_R   0.888304 0.724534 0.303843 -0.186712
C21   C     C_R   0.842470 0.842845 0.327693 -0.150591
C22   C     C_R   0.712964 0.874223 0.270977 -0.148778
C23   C     C_R   0.422489 0.065724 0.388914 -0.248121
C24   C     C_R   0.628701 0.786764 0.192375 -0.116020
C25   C     C_3   0.954835 0.639169 0.725229 0.103191
C26   C     C_3   0.065933 0.682839 0.841842 -0.822015
C27   C     C_R   0.423834 0.936069 0.386678 -0.246982
C28   C     C_R   0.506442 0.871282 0.495208 -0.064924
C29   C     C_R   0.601081 0.935013 0.590902 0.103855
C30   C     C_3   0.642137 0.922721 0.745095 -0.495948
C31   C     C_3   0.640557 0.065303 0.747899 -0.472880
C32   C     C_R   0.404570 0.438048 0.049558 0.205188
H1    H     H_    0.738754 0.108058 0.784938 0.200970
H2    H     H_    0.356050 0.886691 0.305713 0.153902
H3    H     H_    0.566569 0.877650 0.792684 0.217386
H4    H     H_    0.741432 0.883038 0.779367 0.189032
H5    H     H_    0.563885 0.101182 0.796789 0.205037
H6    H     H_    0.886675 0.168570 0.422436 0.127281
H7    H     H_    0.988758 0.243344 0.317720 0.154222
H8    H     H_    0.795951 0.268548 0.121899 0.257998
H9    H     H_    0.826177 0.106181 0.173398 0.208574
H10   H     H_    0.695654 0.189543 0.223721 0.256471
H11   H     H_    0.840351 0.546085 0.205223 0.166630
H12   H     H_    0.653446 0.630859 0.905157 0.150956
H13   H     H_    0.989403 0.701683 0.345116 0.134966
H14   H     H_    0.907642 0.910725 0.388461 0.124175
H15   H     H_    0.677569 0.966083 0.288249 0.149337
H16   H     H_    0.528898 0.812715 0.147403 0.122549
H17   H     H_    0.861553 0.664286 0.752156 0.146470
H18   H     H_    0.963513 0.690080 0.628065 0.129838
H19   H     H_    0.160884 0.659816 0.817725 0.258200
H20   H     H_    0.060701 0.786075 0.853732 0.197938
H21   H     H_    0.059050 0.635639 0.941088 0.254823
H22   H     H_    0.272537 0.284618 0.829855 0.199135
H23   H     H_    0.449956 0.246580 0.871400 0.209124
H24   H     H_    0.275039 0.283585 0.072809 0.199415
H25   H     H_    0.452797 0.244792 0.113801 0.216541
H26   H     H_    0.132637 0.383522 0.614232 0.191991
H27   H     H_    0.059997 0.484982 0.312281 0.165144
H28   H     H_    0.354091 0.116515 0.309003 0.154330
N1    N     N_R   0.499160 0.499140 0.142600 -0.116946
N2    N     N_R   0.499160 0.499180 0.856960 -0.110147
O1    O     O_R   0.500020 0.316790 0.614700 -0.621915
O2    O     O_3   0.963104 0.507788 0.711823 -0.631759
O3    O     O_R   0.500000 0.316760 0.385350 -0.611455
O4    O     O_R   0.317820 0.500020 0.571850 -0.598185
O5    O     O_R   0.317800 0.499980 0.342510 -0.617873
O6    O     O_R   0.500000 0.683240 0.614650 -0.622577
O7    O     O_R   0.499980 0.683210 0.385300 -0.619995
O8    O     O_R   0.682200 0.500020 0.657490 -0.610255
O9    O     O_R   0.682180 0.499980 0.428150 -0.557254
O10   O     O_3   0.850285 0.357899 0.375335 -0.612872
Zn1   Zn    Zn3+2 0.500010 0.500020 0.653140 0.937153
Zn2   Zn    Zn3+2 0.499990 0.499980 0.346860 0.963209

loop_
_geom_bond_atom_site_label_1
_geom_bond_atom_site_label_2
_ccdc_geom_bond_type
C32   N1    A    
C4    O5    A    
C1    O3    A    
C12   C15   A    
N2    Zn1   S    
C15   C31   S    
C6    C7    S    
C26   H20   S    
N1    Zn2   S    
O9    Zn2   S    
C11   H26   S    
C17   H8    S    
C26   H19   S    
C19   C20   A    
C16   O10   S    
C2    N1    A    
C30   H4    S    
C6    H23   S    
C5    C32   A    
C25   H17   S    
O8    Zn1   S    
C31   H1    S    
C2    C3    A    
C25   C26   S    
O7    Zn2   S    
O5    Zn2   S    
C21   C22   A    
C9    O8    A    
C4    O4    A    
C1    C12   S    
C12   C23   A    
C8    O7    A    
C23   H28   S    
C13   O2    S    
C14   O10   S    
C30   H3    S    
C6    H22   S    
C18   C24   A    
C5    C6    S    
C1    O1    A    
C22   C24   A    
C28   C29   A    
C19   H11   S    
C5    N2    A    
C15   C29   A    
C7    H24   S    
C23   C27   A    
C27   H2    S    
C30   C31   S    
C8    C28   S    
C11   C14   S    
C22   H15   S    
C3    H12   S    
C3    N2    A    
C17   H9    S    
C2    C18   S    
C10   C11   D    
C16   H7    S    
C29   C30   S    
C24   H16   S    
C26   H21   S    
C9    O9    A    
C20   C21   A    
C21   H14   S    
C20   H13   S    
C8    O6    A    
C27   C28   A    
C9    C13   S    
C17   H10   S    
C18   C19   A    
C7    C32   S    
O1    Zn1   S    
C13   C14   D    
O6    Zn1   S    
C25   H18   S    
O4    Zn1   S    
C10   H27   S    
C7    H25   S    
O3    Zn2   S    
C31   H5    S    
C4    C10   S    
C16   H6    S    
C16   C17   S    
C25   O2    S    
