data_mof_unit_37223.cif
_audit_creation_date              2012-12-10T20:27:56-0500
_audit_creation_method            fapswitch 2.2
_symmetry_space_group_name_H-M    P1
_symmetry_Int_Tables_number       1
_space_group_crystal_system       triclinic
_cell_length_a                    12.85655
_cell_length_b                    10.656871
_cell_length_c                    9.877615
_cell_angle_alpha                 89.475625
_cell_angle_beta                  97.246013
_cell_angle_gamma                 91.486795
_cell_volume                      1342.05420971

loop_
_atom_site_label
_atom_site_type_symbol
_atom_type_description
_atom_site_fract_x
_atom_site_fract_y
_atom_site_fract_z
_atom_type_partial_charge
C1    C     C_R   0.500452 0.260280 0.500447 0.847164
C2    C     C_R   0.026168 0.465415 0.563656 0.009520
C3    C     C_R   0.969103 0.450925 0.432516 0.011417
C4    C     C_R   0.860436 0.439563 0.420197 0.432090
C5    C     C_R   0.867635 0.445405 0.666971 -0.318301
C6    C     C_R   0.975546 0.452333 0.680447 -0.199538
C7    C     C_R   0.574496 0.065085 0.591563 0.100199
C8    C     C_R   0.503784 0.128417 0.498670 -0.070862
C9    C     C_R   0.444440 0.064115 0.391452 -0.235506
C10   C     C_R   0.444412 0.934723 0.390158 -0.249183
C11   C     C_R   0.504096 0.871480 0.496332 -0.084760
C12   C     C_R   0.297732 0.500920 0.473592 0.889495
C13   C     C_R   0.574401 0.936775 0.590405 0.113920
C14   C     C_3   0.592982 0.927247 0.742199 -0.434221
C15   C     C_3   0.592950 0.069385 0.743824 -0.528713
C16   C     C_R   0.419695 0.443860 0.057966 0.067062
C17   C     C_R   0.566524 0.578045 0.083772 0.368311
C18   C     C_R   0.572057 0.571396 0.938605 0.323005
C19   C     C_R   0.418724 0.445923 0.916296 0.114573
C20   C     C_3   0.377702 0.314553 0.902640 -0.543065
C21   C     C_3   0.380199 0.311118 0.058010 0.303711
C22   C     C_R   0.500070 0.739613 0.499333 0.868034
C23   C     C_R   0.700565 0.485892 0.525732 0.889302
C24   C     C_R   0.810455 0.455637 0.538065 -0.184526
C25   C     C_R   0.184570 0.492695 0.458852 -0.180530
C26   C     C_R   0.020975 0.454280 0.316081 -0.207261
C27   C     C_R   0.128498 0.473233 0.329525 -0.273038
C28   C     C_R   0.132398 0.495399 0.576076 0.409000
H1    H     H_    0.670830 0.888714 0.778668 0.226922
H2    H     H_    0.525473 0.105303 0.789287 0.207498
H3    H     H_    0.670492 0.112744 0.782398 0.203090
H4    H     H_    0.297827 0.310138 0.844597 0.236974
H5    H     H_    0.434540 0.251521 0.865706 0.160060
H6    H     H_    0.438356 0.246987 0.113323 0.077478
H7    H     H_    0.829166 0.438552 0.757291 0.188582
H8    H     H_    0.978955 0.442543 0.214635 0.187263
H9    H     H_    0.018546 0.453385 0.782125 0.193269
H10   H     H_    0.167622 0.472377 0.238668 0.229275
H11   H     H_    0.393985 0.113594 0.314214 0.167883
H12   H     H_    0.393757 0.884468 0.311632 0.148751
H13   H     H_    0.525772 0.882835 0.786959 0.211640
N1    N     N_R   0.499290 0.499140 0.142710 -0.188141
N2    N     N_R   0.499290 0.499180 0.857070 -0.156204
O1    O     O_R   0.500010 0.316790 0.614690 -0.623922
O2    O     O_R   0.500000 0.316760 0.385350 -0.631471
O3    O     O_R   0.346360 0.499990 0.595720 -0.559258
O4    O     O_R   0.346350 0.499960 0.366370 -0.608347
O5    O     O_R   0.500000 0.683240 0.614650 -0.587948
O6    O     O_R   0.499990 0.683210 0.385310 -0.602764
O7    O     O_R   0.653650 0.500040 0.633630 -0.593082
O8    O     O_R   0.653640 0.500010 0.404280 -0.520019
Zn1   Zn    Zn3+2 0.500010 0.500020 0.653130 0.990619
Zn2   Zn    Zn3+2 0.499990 0.499980 0.346870 1.003295
O9    O     O_3   0.803919 0.423854 0.292132 -0.594519
C29   C     C_3   0.780882 0.294411 0.272645 0.121054
H14   H     H_    0.728041 0.258852 0.346373 0.138126
H15   H     H_    0.853981 0.239121 0.284716 0.123301
C30   C     C_3   0.725801 0.273485 0.128758 -0.847979
H16   H     H_    0.776659 0.308151 0.052814 0.234585
H17   H     H_    0.708817 0.171787 0.111780 0.203618
H18   H     H_    0.650782 0.323846 0.114058 0.246172
O10   O     O_3   0.629984 0.659913 0.167070 -0.560400
C31   C     C_3   0.598649 0.784538 0.137890 0.112280
H19   H     H_    0.516340 0.797010 0.157903 0.142705
H20   H     H_    0.604539 0.811618 0.030281 0.152233
C32   C     C_3   0.670390 0.874000 0.228029 -0.817392
H21   H     H_    0.673390 0.845584 0.336755 0.266120
H22   H     H_    0.640790 0.970914 0.215592 0.204088
H23   H     H_    0.750979 0.872645 0.198775 0.237849
O11   O     O_3   0.643479 0.644824 0.876641 -0.596088
C33   C     C_3   0.747638 0.617514 0.931258 0.159695
H24   H     H_    0.761108 0.515308 0.927165 0.123602
H25   H     H_    0.767007 0.647414 0.038532 0.202666
C34   C     C_3   0.823872 0.689937 0.851558 -0.888874
H26   H     H_    0.825232 0.790969 0.878225 0.231985
H27   H     H_    0.904249 0.654065 0.878221 0.215752
H28   H     H_    0.800224 0.680450 0.740098 0.281495
O12   O     O_3   0.279643 0.304765 0.101519 -0.578924
C35   C     C_3   0.235143 0.182651 0.081051 0.106524
H29   H     H_    0.293628 0.107512 0.103341 0.107368
H30   H     H_    0.198186 0.172671 0.973620 0.148330
C36   C     C_3   0.150487 0.162683 0.174205 -0.843092
H31   H     H_    0.087636 0.231775 0.149154 0.254985
H32   H     H_    0.115666 0.066503 0.160327 0.203480
H33   H     H_    0.184803 0.174412 0.282461 0.258142
O13   O     O_3   0.185012 0.526311 0.703223 -0.602193
C37   C     C_3   0.178819 0.657275 0.721227 0.126477
H34   H     H_    0.096357 0.683571 0.727960 0.132125
H35   H     H_    0.208699 0.710824 0.635951 0.123690
C38   C     C_3   0.245460 0.695621 0.853370 -0.827013
H36   H     H_    0.329587 0.681266 0.844930 0.251645
H37   H     H_    0.234653 0.796518 0.873394 0.188962
H38   H     H_    0.222036 0.639031 0.940084 0.258675

loop_
_geom_bond_atom_site_label_1
_geom_bond_atom_site_label_2
_ccdc_geom_bond_type
C18   O11   S    
C22   O5    A    
C37   H34   S    
C31   H20   S    
C16   C21   S    
C1    C8    S    
C32   H22   S    
C19   C20   S    
C29   H14   S    
C7    C8    A    
C25   C28   A    
C26   C27   A    
C34   H27   S    
C15   H2    S    
N1    Zn2   S    
C5    C6    A    
C4    C24   A    
N2    Zn1   S    
C32   H23   S    
C27   H10   S    
C30   H17   S    
O3    Zn1   S    
C9    H11   S    
C10   H12   S    
C17   N1    A    
C38   H37   S    
C8    C9    A    
C34   H28   S    
C21   O12   S    
O7    Zn1   S    
C23   C24   S    
O11   C33   S    
C9    C10   A    
O4    Zn2   S    
O1    Zn1   S    
C30   H18   S    
C7    C15   S    
C32   H21   S    
C31   C32   S    
O2    Zn2   S    
C13   C14   S    
C2    C6    A    
C12   O4    A    
C19   N2    A    
C34   H26   S    
C12   O3    A    
C33   H25   S    
O13   C37   S    
C23   O7    A    
C21   H6    S    
C30   H16   S    
C31   H19   S    
O8    Zn2   S    
O10   C31   S    
C17   O10   S    
C35   C36   S    
C1    O1    A    
C23   O8    A    
O5    Zn1   S    
C17   C18   A    
C6    H9    S    
C22   O6    A    
C20   H5    S    
C26   H8    S    
C36   H32   S    
C29   H15   S    
C28   O13   S    
C29   C30   S    
C14   H1    S    
C3    C4    A    
C16   N1    A    
C38   H38   S    
C35   H30   S    
C20   H4    S    
O9    C29   S    
C4    O9    S    
O12   C35   S    
C3    C26   A    
C33   C34   S    
C15   H3    S    
C25   C27   A    
C36   H33   S    
C11   C22   S    
C12   C25   S    
C37   H35   S    
C2    C3    A    
C33   H24   S    
C18   N2    A    
C11   C13   A    
C1    O2    A    
C38   H36   S    
C5    C24   A    
C14   H13   S    
C16   C19   A    
O6    Zn2   S    
C5    H7    S    
C10   C11   A    
C35   H29   S    
C7    C13   A    
C20   C21   S    
C36   H31   S    
C37   C38   S    
C14   C15   S    
C2    C28   A    
