data_mof_unit_26186.cif
_audit_creation_date              2012-12-10T18:42:28-0500
_audit_creation_method            fapswitch 2.2
_symmetry_space_group_name_H-M    P1
_symmetry_Int_Tables_number       1
_space_group_crystal_system       triclinic
_cell_length_a                    8.615891
_cell_length_b                    10.687885
_cell_length_c                    9.820735
_cell_angle_alpha                 89.703599
_cell_angle_beta                  97.704955
_cell_angle_gamma                 90.372554
_cell_volume                      896.156584979

loop_
_atom_site_label
_atom_site_type_symbol
_atom_type_description
_atom_site_fract_x
_atom_site_fract_y
_atom_site_fract_z
_atom_type_partial_charge
C1    C     C_R   0.522178 0.261169 0.503093 0.906453
C2    C     C_R   0.584430 0.064452 0.635749 -0.054705
C3    C     C_R   0.559101 0.872914 0.504710 -0.203773
C4    C     C_R   0.568819 0.130437 0.509553 -0.226177
C5    C     C_R   0.621227 0.552543 0.085919 -0.048775
C6    C     C_R   0.379781 0.445874 0.914250 -0.009099
C7    C     C_R   0.621108 0.552723 0.941989 -0.050379
C8    C     C_R   0.379713 0.446013 0.058196 -0.020261
C9    C     C_2   0.987711 0.635398 0.365255 0.406338
C10   C     C_2   0.013671 0.365056 0.639816 0.379354
C11   C     C_2   0.646907 0.140811 0.270551 0.502736
C12   C     C_R   0.516913 0.740364 0.501294 0.898128
C13   C     C_2   0.637947 0.863317 0.762743 0.467686
C14   C     C_2   0.585814 0.876756 0.248708 1.081385
C15   C     C_2   0.605825 0.130354 0.769846 1.035496
C16   C     C_R   0.201814 0.501327 0.465472 0.979287
C17   C     C_R   0.798194 0.497035 0.534658 0.918069
C18   C     C_2   0.040979 0.525761 0.453729 -0.245083
C19   C     C_2   0.959190 0.471806 0.546889 -0.229202
C20   C     C_R   0.594751 0.069176 0.387729 -0.087108
C21   C     C_R   0.588792 0.934246 0.633266 -0.059324
C22   C     C_R   0.577047 0.939471 0.381913 -0.046625
H1    H     H_    0.718302 0.594069 0.151622 0.138979
H2    H     H_    0.742967 0.241294 0.901494 0.345760
H3    H     H_    0.284024 0.402229 0.848836 0.153159
H4    H     H_    0.718163 0.594614 0.898777 0.120899
H5    H     H_    0.283700 0.402647 0.101721 0.138948
H6    H     H_    0.032310 0.649590 0.268031 0.088438
H7    H     H_    0.966061 0.352705 0.735824 0.118834
H8    H     H_    0.729446 0.217733 0.291691 0.061403
H9    H     H_    0.727331 0.792050 0.764405 0.054089
H10   H     H_    0.723180 0.821251 0.109642 0.351472
N1    N     N_R   0.499960 0.499970 0.857200 -0.090363
N2    N     N_R   0.500040 0.500030 0.142800 -0.087872
O1    O     O_R   0.499990 0.316750 0.614620 -0.588827
O2    O     O_2   0.104600 0.287009 0.606991 -0.534572
O3    O     O_2   0.594781 0.118333 0.151355 -0.508725
O4    O     O_2   0.575218 0.879864 0.865386 -0.511534
O5    O     O_2   0.465570 0.845898 0.175610 -0.556238
O6    O     O_R   0.731441 0.861438 0.203490 -0.752518
O7    O     O_2   0.501301 0.128077 0.842665 -0.507504
O8    O     O_R   0.743300 0.198273 0.809754 -0.824087
O9    O     O_R   0.500010 0.683250 0.385380 -0.598511
O10   O     O_R   0.499990 0.316780 0.385290 -0.627845
O11   O     O_R   0.500010 0.683220 0.614710 -0.618684
O12   O     O_R   0.271750 0.499990 0.587840 -0.588500
O13   O     O_R   0.728250 0.500010 0.412160 -0.619096
O14   O     O_R   0.271750 0.500010 0.358510 -0.644969
O15   O     O_R   0.728250 0.499990 0.641490 -0.659117
O16   O     O_2   0.902476 0.714538 0.404487 -0.545614
Zn1   Zn    Zn3+2 0.500000 0.499980 0.653120 1.003266
Zn2   Zn    Zn3+2 0.500000 0.500020 0.346880 0.994911

loop_
_geom_bond_atom_site_label_1
_geom_bond_atom_site_label_2
_ccdc_geom_bond_type
O10   Zn2   S    
C2    C4    A    
O13   Zn2   S    
N1    Zn1   S    
H2    O8    S    
C1    O10   A    
N2    Zn2   S    
C5    H1    S    
C6    N1    A    
C10   C19   S    
C1    C4    S    
C5    N2    A    
C14   C22   S    
C2    C21   A    
C9    H6    S    
C13   C21   S    
C8    N2    A    
C2    C15   S    
C7    N1    A    
C10   H7    S    
C16   O14   A    
C13   O4    D    
C7    H4    S    
C15   O8    S    
C17   C19   S    
C20   C22   A    
C12   O9    A    
C5    C7    A    
H10   O6    S    
O1    Zn1   S    
O9    Zn2   S    
C11   C20   S    
C3    C21   A    
C6    H3    S    
O11   Zn1   S    
C14   O6    S    
C4    C20   A    
C9    C18   S    
O14   Zn2   S    
C15   O7    D    
C16   C18   S    
C18   C19   D    
C16   O12   A    
C11   O3    D    
C8    H5    S    
C3    C22   A    
C6    C8    A    
C3    C12   S    
C1    O1    A    
O15   Zn1   S    
C14   O5    D    
O12   Zn1   S    
C13   H9    S    
C17   O15   A    
C9    O16   D    
C17   O13   A    
C11   H8    S    
C12   O11   A    
C10   O2    D    
