data_mof_unit_19113.cif
_audit_creation_date              2012-12-10T20:11:29-0500
_audit_creation_method            fapswitch 2.2
_symmetry_space_group_name_H-M    P1
_symmetry_Int_Tables_number       1
_space_group_crystal_system       triclinic
_cell_length_a                    15.926526
_cell_length_b                    15.926575
_cell_length_c                    51.44677
_cell_angle_alpha                 89.999177
_cell_angle_beta                  89.999119
_cell_angle_gamma                 90.001056
_cell_volume                      13049.7309963

loop_
_atom_site_label
_atom_site_type_symbol
_atom_type_description
_atom_site_fract_x
_atom_site_fract_y
_atom_site_fract_z
_atom_type_partial_charge
C1    C     C_R   0.074643 0.514008 0.637094 -0.150927
C2    C     C_R   0.574644 0.986047 0.862905 -0.150930
C3    C     C_1   0.276585 0.223415 0.250000 -0.020023
C4    C     C_1   0.223415 0.723414 0.750000 -0.020411
C5    C     C_1   0.776585 0.276585 0.250000 -0.020024
C6    C     C_1   0.276585 0.223415 0.750000 -0.020415
C7    C     C_1   0.723415 0.776585 0.250000 -0.020030
C8    C     C_1   0.776585 0.723415 0.250000 -0.020419
C9    C     C_1   0.223415 0.276584 0.750000 -0.020023
C10   C     C_1   0.723415 0.223414 0.250000 -0.020412
C11   C     C_1   0.276585 0.776585 0.750000 -0.020021
C12   C     C_1   0.223415 0.276585 0.250000 -0.020411
C13   C     C_R   0.986230 0.574688 0.137097 -0.150934
C14   C     C_1   0.776585 0.723415 0.750000 -0.020020
C15   C     C_1   0.276586 0.776585 0.250000 -0.020413
C16   C     C_1   0.723415 0.223415 0.750000 -0.020019
C17   C     C_R   0.497001 0.074924 0.945202 0.392839
C18   C     C_R   0.497065 0.925050 0.054799 0.392874
C19   C     C_R   0.925091 0.497345 0.945200 0.392893
C20   C     C_R   0.074965 0.496824 0.054795 0.392810
C21   C     C_R   0.502916 0.925055 0.945202 0.392825
C22   C     C_R   0.502908 0.074922 0.054798 0.392862
C23   C     C_R   0.074985 0.502680 0.945198 0.393016
C24   C     C_R   0.014073 0.574652 0.862899 -0.150900
C25   C     C_R   0.925113 0.503184 0.054796 0.392813
C26   C     C_R   0.996782 0.574899 0.445202 0.392836
C27   C     C_R   0.997215 0.425051 0.554802 0.392911
C28   C     C_R   0.425103 0.996996 0.445203 0.392866
C29   C     C_R   0.574959 0.997192 0.554800 0.392918
C30   C     C_R   0.003092 0.425046 0.445206 0.392703
C31   C     C_R   0.002738 0.574936 0.554798 0.392872
C32   C     C_R   0.574967 0.003060 0.445203 0.392858
C33   C     C_R   0.425081 0.002885 0.554798 0.392861
C34   C     C_R   0.501424 0.923479 0.972530 0.027628
C35   C     C_R   0.425330 0.986102 0.137099 -0.150913
C36   C     C_R   0.501402 0.076497 0.027471 0.027642
C37   C     C_R   0.076557 0.501175 0.972526 0.027679
C38   C     C_R   0.923534 0.501705 0.027468 0.027616
C39   C     C_R   0.498500 0.076498 0.972529 0.027622
C40   C     C_R   0.498553 0.923476 0.027471 0.027644
C41   C     C_R   0.923522 0.498836 0.972527 0.027679
C42   C     C_R   0.076546 0.498300 0.027467 0.027614
C43   C     C_R   0.001604 0.423472 0.472533 0.027598
C44   C     C_R   0.001221 0.576502 0.527471 0.027654
C45   C     C_R   0.576540 0.001574 0.472531 0.027640
C46   C     C_R   0.425328 0.013947 0.862900 -0.150927
C47   C     C_R   0.423511 0.001390 0.527471 0.027648
C48   C     C_R   0.998296 0.576484 0.472530 0.027609
C49   C     C_R   0.998719 0.423474 0.527475 0.027652
C50   C     C_R   0.423523 0.998496 0.472530 0.027637
C51   C     C_R   0.576537 0.998693 0.527472 0.027649
C52   C     C_R   0.156036 0.528038 0.596118 0.050320
C53   C     C_R   0.189177 0.466657 0.579396 -0.090754
C54   C     C_R   0.264868 0.480904 0.566377 -0.122903
C55   C     C_R   0.308678 0.555872 0.570226 -0.101064
C56   C     C_R   0.276712 0.616865 0.587069 -0.100341
C57   C     C_R   0.013807 0.425319 0.137098 -0.150934
C58   C     C_R   0.200728 0.603055 0.600016 -0.067664
C59   C     C_R   0.156095 0.472444 0.403874 0.050519
C60   C     C_R   0.188984 0.533883 0.420625 -0.090704
C61   C     C_R   0.264845 0.519981 0.433586 -0.123138
C62   C     C_R   0.309068 0.445301 0.429652 -0.101308
C63   C     C_R   0.277335 0.384250 0.412787 -0.100487
C64   C     C_R   0.201187 0.397711 0.399899 -0.067722
C65   C     C_R   0.472033 0.156083 0.596127 0.050354
C66   C     C_R   0.533418 0.189191 0.579399 -0.090762
C67   C     C_R   0.519202 0.264892 0.566382 -0.122928
C68   C     C_R   0.985959 0.425370 0.862906 -0.150928
C69   C     C_R   0.444263 0.308746 0.570240 -0.101085
C70   C     C_R   0.383267 0.276810 0.587088 -0.100335
C71   C     C_R   0.397045 0.200815 0.600032 -0.067625
C72   C     C_R   0.527683 0.156158 0.403863 0.050431
C73   C     C_R   0.466248 0.189144 0.420596 -0.090712
C74   C     C_R   0.480225 0.264993 0.433557 -0.123126
C75   C     C_R   0.554984 0.309104 0.429640 -0.101273
C76   C     C_R   0.616036 0.277272 0.412794 -0.100466
C77   C     C_R   0.602496 0.201138 0.399905 -0.067760
C78   C     C_R   0.843918 0.471994 0.596132 0.050335
C79   C     C_R   0.499965 0.999988 0.986247 -0.027966
C80   C     C_R   0.810812 0.533370 0.579401 -0.090747
C81   C     C_R   0.735084 0.519174 0.566398 -0.122938
C82   C     C_R   0.691195 0.444267 0.570275 -0.101088
C83   C     C_R   0.723127 0.383281 0.587127 -0.100368
C84   C     C_R   0.799154 0.397034 0.600054 -0.067732
C85   C     C_R   0.843746 0.527538 0.403846 0.050633
C86   C     C_R   0.810921 0.466256 0.420666 -0.090656
C87   C     C_R   0.735013 0.480196 0.433596 -0.123147
C88   C     C_R   0.690662 0.554743 0.429561 -0.101320
C89   C     C_R   0.722317 0.615627 0.412624 -0.100496
C90   C     C_R   0.499973 0.999987 0.013753 -0.027955
C91   C     C_R   0.798518 0.602136 0.399771 -0.067857
C92   C     C_R   0.527958 0.843944 0.596121 0.050365
C93   C     C_R   0.466595 0.810902 0.579374 -0.090745
C94   C     C_R   0.480782 0.735202 0.566356 -0.122906
C95   C     C_R   0.555663 0.691271 0.570234 -0.101081
C96   C     C_R   0.616632 0.723133 0.587104 -0.100350
C97   C     C_R   0.602888 0.799133 0.600047 -0.067687
C98   C     C_R   0.472403 0.843867 0.403870 0.050427
C99   C     C_R   0.533842 0.810903 0.420606 -0.090735
C100  C     C_R   0.519888 0.735046 0.433565 -0.123204
C101  C     C_R   0.000040 0.500005 0.986244 -0.027943
C102  C     C_R   0.445151 0.690904 0.429645 -0.101349
C103  C     C_R   0.384096 0.722714 0.412795 -0.100494
C104  C     C_R   0.397612 0.798856 0.399908 -0.067780
C105  C     C_R   0.656098 0.027775 0.096132 0.050403
C106  C     C_R   0.689148 0.966352 0.079407 -0.090722
C107  C     C_R   0.764978 0.980396 0.066443 -0.123104
C108  C     C_R   0.809003 0.055211 0.070347 -0.101255
C109  C     C_R   0.777103 0.116254 0.087185 -0.100464
C110  C     C_R   0.700987 0.102647 0.100077 -0.067768
C111  C     C_R   0.656055 0.972094 0.903875 0.050475
C112  C     C_R   0.074655 0.486202 0.362908 -0.150932
C113  C     C_R   0.000040 0.500003 0.013750 -0.027985
C114  C     C_R   0.689058 0.033434 0.920639 -0.090714
C115  C     C_R   0.764799 0.019287 0.933640 -0.122885
C116  C     C_R   0.808804 0.944466 0.929729 -0.101076
C117  C     C_R   0.776973 0.883517 0.912846 -0.100359
C118  C     C_R   0.700934 0.897221 0.899920 -0.067667
C119  C     C_R   0.972447 0.656154 0.096135 0.050557
C120  C     C_R   0.033816 0.689030 0.079356 -0.090703
C121  C     C_R   0.019853 0.764871 0.066390 -0.123107
C122  C     C_R   0.945187 0.809093 0.070348 -0.101279
C123  C     C_R   0.884208 0.777376 0.087243 -0.100450
C124  C     C_R   0.999954 0.499980 0.486249 -0.027972
C125  C     C_R   0.897726 0.701243 0.100134 -0.067710
C126  C     C_R   0.028122 0.656072 0.903865 0.050280
C127  C     C_R   0.966725 0.689258 0.920573 -0.090747
C128  C     C_R   0.980935 0.765011 0.933561 -0.122941
C129  C     C_R   0.055886 0.808837 0.929694 -0.101091
C130  C     C_R   0.116902 0.776815 0.912868 -0.100382
C131  C     C_R   0.103130 0.700768 0.899953 -0.067787
C132  C     C_R   0.343887 0.972201 0.096139 0.050406
C133  C     C_R   0.310840 0.033618 0.079410 -0.090720
C134  C     C_R   0.235004 0.019577 0.066450 -0.123102
C135  C     C_R   0.999964 0.499986 0.513755 -0.027942
C136  C     C_R   0.190966 0.944774 0.070362 -0.101250
C137  C     C_R   0.222862 0.883739 0.087205 -0.100464
C138  C     C_R   0.298986 0.897341 0.100092 -0.067784
C139  C     C_R   0.343877 0.027884 0.903863 0.050487
C140  C     C_R   0.310871 0.966550 0.920629 -0.090724
C141  C     C_R   0.235101 0.980678 0.933616 -0.122958
C142  C     C_R   0.191066 0.055470 0.929688 -0.101129
C143  C     C_R   0.222900 0.116414 0.912802 -0.100373
C144  C     C_R   0.298971 0.102732 0.899892 -0.067690
C145  C     C_R   0.027608 0.343858 0.096137 0.050549
C146  C     C_R   0.500030 0.000037 0.486248 -0.027962
C147  C     C_R   0.966229 0.310980 0.079363 -0.090696
C148  C     C_R   0.980182 0.235135 0.066399 -0.123090
C149  C     C_R   0.054850 0.190912 0.070355 -0.101267
C150  C     C_R   0.115840 0.222634 0.087244 -0.100450
C151  C     C_R   0.102331 0.298771 0.100133 -0.067711
C152  C     C_R   0.971900 0.344006 0.903882 0.050208
C153  C     C_R   0.033372 0.310734 0.920546 -0.090801
C154  C     C_R   0.019105 0.235045 0.933566 -0.122936
C155  C     C_R   0.944011 0.191386 0.929778 -0.101084
C156  C     C_R   0.882913 0.223503 0.912999 -0.100347
C157  C     C_R   0.500026 0.000040 0.513754 -0.027954
C158  C     C_R   0.896750 0.299477 0.900048 -0.067621
C159  C     C_R   0.501079 0.847493 0.986424 -0.129770
C160  C     C_R   0.501014 0.152482 0.013577 -0.129771
C161  C     C_R   0.152541 0.500539 0.986420 -0.129775
C162  C     C_R   0.847546 0.501606 0.013575 -0.129757
C163  C     C_R   0.498851 0.152483 0.986423 -0.129781
C164  C     C_R   0.486023 0.074663 0.637098 -0.150929
C165  C     C_R   0.498932 0.847491 0.013577 -0.129767
C166  C     C_R   0.847538 0.499463 0.986422 -0.129786
C167  C     C_R   0.152533 0.498395 0.013573 -0.129747
C168  C     C_R   0.001443 0.347488 0.486429 -0.129766
C169  C     C_R   0.000652 0.652483 0.513575 -0.129788
C170  C     C_R   0.652524 0.001306 0.486426 -0.129753
C171  C     C_R   0.347529 0.000929 0.513576 -0.129786
C172  C     C_R   0.998473 0.652472 0.486422 -0.129761
C173  C     C_R   0.999284 0.347487 0.513582 -0.129792
C174  C     C_R   0.347535 0.998771 0.486423 -0.129768
C175  C     C_R   0.513847 0.074688 0.362901 -0.150909
C176  C     C_R   0.652523 0.999154 0.513579 -0.129775
C177  C     C_R   0.075500 0.513710 0.609814 0.017497
C178  C     C_R   0.075496 0.486489 0.390188 0.017598
C179  C     C_R   0.486326 0.075534 0.609818 0.017505
C180  C     C_R   0.513564 0.075559 0.390182 0.017546
C181  C     C_R   0.924470 0.486290 0.609819 0.017509
C182  C     C_R   0.924380 0.513447 0.390178 0.017633
C183  C     C_R   0.513690 0.924494 0.609815 0.017516
C184  C     C_R   0.486504 0.924464 0.390186 0.017558
C185  C     C_R   0.575525 0.013585 0.109816 0.017531
C186  C     C_R   0.925343 0.485989 0.637099 -0.150907
C187  C     C_R   0.575498 0.986342 0.890185 0.017550
C188  C     C_R   0.986536 0.575556 0.109816 0.017584
C189  C     C_R   0.013784 0.575527 0.890179 0.017472
C190  C     C_R   0.424464 0.986391 0.109819 0.017529
C191  C     C_R   0.424449 0.013646 0.890180 0.017559
C192  C     C_R   0.013524 0.424456 0.109817 0.017579
C193  C     C_R   0.986263 0.424522 0.890185 0.017444
C194  C     C_R   0.999981 0.500000 0.595971 0.230858
C195  C     C_R   0.999928 0.499963 0.404032 0.230775
C196  C     C_R   0.500012 0.000019 0.595970 0.230837
C197  C     C_R   0.925281 0.513748 0.362897 -0.150905
C198  C     C_R   0.500038 0.000014 0.404031 0.230819
C199  C     C_R   0.499993 0.999986 0.095970 0.230827
C200  C     C_R   0.499968 0.999992 0.904030 0.230786
C201  C     C_R   0.000036 0.500007 0.095969 0.230762
C202  C     C_R   0.000031 0.500027 0.904028 0.230877
C203  C     C_R   0.000002 0.500000 0.820250 0.508192
C204  C     C_R   0.000002 0.500001 0.179750 0.508217
C205  C     C_R   0.499999 1.000000 0.820250 0.508203
C206  C     C_R   0.500000 0.999999 0.179750 0.508211
C207  C     C_R   0.500002 0.000000 0.320250 0.508214
C208  C     C_R   0.513987 0.925353 0.637096 -0.150920
C209  C     C_R   0.500001 0.000001 0.679750 0.508197
C210  C     C_R   0.999998 0.499996 0.320250 0.508220
C211  C     C_R   0.000000 0.499999 0.679750 0.508196
C212  C     C_R   0.839680 0.660320 0.750000 0.517505
C213  C     C_R   0.160320 0.339679 0.250000 0.516730
C214  C     C_R   0.339679 0.839680 0.750000 0.517504
C215  C     C_R   0.660320 0.160320 0.250000 0.516728
C216  C     C_R   0.160321 0.339679 0.750000 0.517509
C217  C     C_R   0.839679 0.660321 0.250000 0.516736
C218  C     C_R   0.660320 0.160321 0.750000 0.517504
C219  C     C_R   0.486197 0.925326 0.362906 -0.150920
C220  C     C_R   0.339680 0.839680 0.250000 0.516728
C221  C     C_R   0.839679 0.339680 0.250000 0.517509
C222  C     C_R   0.160320 0.660320 0.750000 0.516717
C223  C     C_R   0.339679 0.160321 0.250000 0.517510
C224  C     C_R   0.660320 0.839679 0.750000 0.516720
C225  C     C_R   0.160320 0.660321 0.250000 0.517508
C226  C     C_R   0.839680 0.339679 0.750000 0.516717
C227  C     C_R   0.660321 0.839679 0.250000 0.517513
C228  C     C_R   0.339679 0.160321 0.750000 0.516725
C229  C     C_R   0.999997 0.499997 0.650931 0.002258
C230  C     C_R   0.574665 0.013881 0.137097 -0.150918
C231  C     C_R   0.999982 0.499982 0.349069 0.002253
C232  C     C_R   0.500004 0.000005 0.650931 0.002260
C233  C     C_R   0.500015 0.000005 0.349069 0.002253
C234  C     C_R   0.499999 0.999994 0.150932 0.002257
C235  C     C_R   0.499991 0.999999 0.849068 0.002259
C236  C     C_R   0.000012 0.500002 0.150932 0.002255
C237  C     C_R   0.000012 0.500005 0.849068 0.002260
C238  C     C_1   0.776586 0.276585 0.750000 -0.020409
C239  C     C_1   0.223415 0.723415 0.250000 -0.020024
C240  C     C_1   0.723415 0.776585 0.750000 -0.020410
H1    H     H_    0.501872 0.787760 0.976367 0.166994
H2    H     H_    0.001288 0.712221 0.523631 0.166982
H3    H     H_    0.132183 0.065986 0.939663 0.100302
H4    H     H_    0.188710 0.174297 0.909727 0.116023
H5    H     H_    0.323191 0.150635 0.886963 0.124330
H6    H     H_    0.907272 0.343422 0.076527 0.146770
H7    H     H_    0.932874 0.210479 0.053375 0.105599
H8    H     H_    0.065236 0.131969 0.060400 0.100290
H9    H     H_    0.173623 0.188298 0.090341 0.116152
H10   H     H_    0.150266 0.322894 0.113067 0.124321
H11   H     H_    0.092614 0.342775 0.923264 0.146874
H12   H     H_    0.066478 0.210098 0.946510 0.105463
H13   H     H_    0.712258 0.002163 0.476369 0.167008
H14   H     H_    0.933382 0.132576 0.939785 0.100341
H15   H     H_    0.824783 0.189615 0.910038 0.116059
H16   H     H_    0.848733 0.323932 0.887205 0.124630
H17   H     H_    0.287792 0.001638 0.523633 0.166984
H18   H     H_    0.997527 0.712202 0.476363 0.167008
H19   H     H_    0.998658 0.287753 0.523641 0.166981
H20   H     H_    0.287803 0.997912 0.476366 0.166999
H21   H     H_    0.712257 0.998447 0.523636 0.166987
H22   H     H_    0.132787 0.524771 0.647526 0.137907
H23   H     H_    0.132839 0.475642 0.352478 0.137883
H24   H     H_    0.475282 0.132806 0.647532 0.137907
H25   H     H_    0.501786 0.212216 0.023634 0.166997
H26   H     H_    0.524451 0.132855 0.352466 0.137912
H27   H     H_    0.867204 0.475232 0.647535 0.137907
H28   H     H_    0.867119 0.524313 0.352457 0.137858
H29   H     H_    0.524717 0.867205 0.647528 0.137895
H30   H     H_    0.475588 0.867156 0.352473 0.137890
H31   H     H_    0.632825 0.024544 0.147529 0.137906
H32   H     H_    0.632797 0.975338 0.852473 0.137884
H33   H     H_    0.975648 0.632859 0.147531 0.137877
H34   H     H_    0.024862 0.632785 0.852464 0.137924
H35   H     H_    0.367172 0.975444 0.147534 0.137910
H36   H     H_    0.212279 0.501107 0.976362 0.166979
H37   H     H_    0.367183 0.024656 0.852464 0.137881
H38   H     H_    0.024379 0.367146 0.147532 0.137885
H39   H     H_    0.975150 0.367229 0.852477 0.137937
H40   H     H_    0.157035 0.407498 0.576632 0.146803
H41   H     H_    0.289701 0.433608 0.553383 0.105402
H42   H     H_    0.367489 0.566492 0.560219 0.100345
H43   H     H_    0.310725 0.674889 0.590081 0.116078
H44   H     H_    0.176394 0.650996 0.612909 0.124467
H45   H     H_    0.156540 0.592847 0.423444 0.146840
H46   H     H_    0.289515 0.567340 0.446590 0.105663
H47   H     H_    0.787815 0.502593 0.023633 0.167006
H48   H     H_    0.368022 0.434952 0.439605 0.100282
H49   H     H_    0.311671 0.326459 0.409705 0.116153
H50   H     H_    0.177061 0.349734 0.386980 0.124365
H51   H     H_    0.592556 0.157016 0.576628 0.146772
H52   H     H_    0.566500 0.289700 0.553383 0.105431
H53   H     H_    0.433671 0.367566 0.560235 0.100328
H54   H     H_    0.325264 0.310853 0.590106 0.116044
H55   H     H_    0.349099 0.176502 0.612928 0.124461
H56   H     H_    0.407230 0.156781 0.423403 0.146887
H57   H     H_    0.432869 0.289737 0.446547 0.105643
H58   H     H_    0.498052 0.212217 0.976366 0.166988
H59   H     H_    0.565391 0.368047 0.439594 0.100320
H60   H     H_    0.673893 0.311519 0.409727 0.116265
H61   H     H_    0.650474 0.176934 0.387001 0.124413
H62   H     H_    0.843001 0.592494 0.576620 0.146860
H63   H     H_    0.710278 0.566467 0.553397 0.105425
H64   H     H_    0.632349 0.433694 0.560284 0.100344
H65   H     H_    0.689051 0.325305 0.590161 0.116076
H66   H     H_    0.823457 0.349097 0.612955 0.124421
H67   H     H_    0.843435 0.407369 0.423556 0.146818
H68   H     H_    0.710400 0.432961 0.446655 0.105634
H69   H     H_    0.498166 0.787757 0.023634 0.166998
H70   H     H_    0.631666 0.565111 0.439487 0.100304
H71   H     H_    0.687876 0.673309 0.409460 0.116251
H72   H     H_    0.822573 0.649985 0.386792 0.124138
H73   H     H_    0.407494 0.843127 0.576590 0.146790
H74   H     H_    0.433503 0.710451 0.553339 0.105410
H75   H     H_    0.566233 0.632450 0.560229 0.100324
H76   H     H_    0.674587 0.689027 0.590139 0.116076
H77   H     H_    0.650815 0.823387 0.612961 0.124398
H78   H     H_    0.592848 0.843286 0.423415 0.146955
H79   H     H_    0.567250 0.710319 0.446557 0.105752
H80   H     H_    0.787800 0.498894 0.976365 0.166976
H81   H     H_    0.434762 0.631954 0.439598 0.100301
H82   H     H_    0.326258 0.688442 0.409724 0.116185
H83   H     H_    0.349633 0.823040 0.387002 0.124387
H84   H     H_    0.656852 0.907292 0.076611 0.146924
H85   H     H_    0.789774 0.933049 0.053459 0.105625
H86   H     H_    0.867932 0.065668 0.060390 0.100326
H87   H     H_    0.811284 0.174154 0.090242 0.116191
H88   H     H_    0.676727 0.150617 0.112974 0.124424
H89   H     H_    0.656781 0.092496 0.923445 0.146676
H90   H     H_    0.789526 0.066551 0.946665 0.105358
H91   H     H_    0.212264 0.497405 0.023630 0.167007
H92   H     H_    0.867661 0.933932 0.939717 0.100298
H93   H     H_    0.811138 0.825611 0.909785 0.116065
H94   H     H_    0.676711 0.849312 0.886995 0.124362
H95   H     H_    0.092772 0.656590 0.076518 0.146766
H96   H     H_    0.067152 0.789522 0.053362 0.105617
H97   H     H_    0.934791 0.868031 0.060391 0.100287
H98   H     H_    0.826426 0.811712 0.090343 0.116149
H99   H     H_    0.849798 0.677125 0.113072 0.124306
H100  H     H_    0.907569 0.657116 0.923344 0.146916
H101  H     H_    0.933619 0.789889 0.946540 0.105430
H102  H     H_    0.002386 0.287755 0.476373 0.167009
H103  H     H_    0.066466 0.867705 0.939671 0.100356
H104  H     H_    0.174912 0.810842 0.909841 0.116139
H105  H     H_    0.151082 0.676400 0.887070 0.124464
H106  H     H_    0.343143 0.092671 0.076608 0.146922
H107  H     H_    0.210211 0.066918 0.053463 0.105622
H108  H     H_    0.132031 0.934320 0.060410 0.100337
H109  H     H_    0.188670 0.825848 0.090269 0.116209
H110  H     H_    0.323242 0.849377 0.112991 0.124412
H111  H     H_    0.343165 0.907503 0.923446 0.146738
H112  H     H_    0.210370 0.933415 0.946642 0.105439
N1    N     N_R   0.499958 0.999990 0.932107 -0.394301
N2    N     N_R   0.499990 0.999986 0.067893 -0.394252
N3    N     N_R   0.000037 0.500026 0.932105 -0.394122
N4    N     N_R   0.000039 0.500006 0.067890 -0.394366
N5    N     N_R   0.999923 0.499969 0.432110 -0.394394
N6    N     N_R   0.999976 0.499996 0.567894 -0.394194
N7    N     N_R   0.500036 0.000022 0.432109 -0.394282
N8    N     N_R   0.500018 0.000031 0.567893 -0.394220
O1    O     O_3   0.000000 0.500000 0.750000 -0.435322
O2    O     O_R   0.000000 0.430630 0.192350 -0.542845
O3    O     O_R   0.430630 0.000000 0.807650 -0.542842
O4    O     O_R   0.569370 1.000000 0.192350 -0.542840
O5    O     O_R   0.500000 0.930630 0.307650 -0.542843
O6    O     O_R   0.500000 0.069370 0.692350 -0.542831
O7    O     O_R   0.069370 0.500000 0.307650 -0.542832
O8    O     O_R   0.930630 0.500000 0.692350 -0.542829
O9    O     O_R   0.500000 0.069370 0.307650 -0.542840
O10   O     O_R   0.500000 0.930630 0.692350 -0.542824
O11   O     O_R   0.930630 0.500000 0.307650 -0.542865
O12   O     O_3   0.000000 0.500000 0.250000 -0.435307
O13   O     O_R   0.069370 0.500000 0.692350 -0.542823
O14   O     O_R   0.902350 0.666510 0.764820 -0.532865
O15   O     O_R   0.097650 0.333490 0.235180 -0.533846
O16   O     O_R   0.333490 0.902350 0.764820 -0.532874
O17   O     O_R   0.666510 0.097650 0.235180 -0.533850
O18   O     O_R   0.097650 0.333490 0.764820 -0.532867
O19   O     O_R   0.902350 0.666510 0.235180 -0.533843
O20   O     O_R   0.666510 0.097650 0.764820 -0.532866
O21   O     O_R   0.333490 0.902350 0.235180 -0.533847
O22   O     O_R   0.902350 0.333490 0.235180 -0.532874
O23   O     O_3   0.500000 0.000000 0.750000 -0.435319
O24   O     O_R   0.097650 0.666510 0.764820 -0.533849
O25   O     O_R   0.333490 0.097650 0.235180 -0.532872
O26   O     O_R   0.666510 0.902350 0.764820 -0.533846
O27   O     O_R   0.097650 0.666510 0.235180 -0.532879
O28   O     O_R   0.902350 0.333490 0.764820 -0.533846
O29   O     O_R   0.666510 0.902350 0.235180 -0.532871
O30   O     O_R   0.333490 0.097650 0.764820 -0.533849
O31   O     O_R   0.402350 0.166510 0.264820 -0.532875
O32   O     O_R   0.597650 0.833490 0.735180 -0.533846
O33   O     O_R   0.833490 0.402350 0.264820 -0.532881
O34   O     O_3   0.500000 1.000000 0.250000 -0.435311
O35   O     O_R   0.166510 0.597650 0.735180 -0.533849
O36   O     O_R   0.597650 0.833490 0.264820 -0.532880
O37   O     O_R   0.402350 0.166510 0.735180 -0.533845
O38   O     O_R   0.166510 0.597650 0.264820 -0.532876
O39   O     O_R   0.833490 0.402350 0.735180 -0.533849
O40   O     O_R   0.402350 0.833490 0.735180 -0.532866
O41   O     O_R   0.597650 0.166510 0.264820 -0.533847
O42   O     O_R   0.833490 0.597650 0.735180 -0.532868
O43   O     O_R   0.166510 0.402350 0.264820 -0.533846
O44   O     O_R   0.597650 0.166510 0.735180 -0.532872
O45   O     O_R   0.000000 0.430630 0.807650 -0.542818
O46   O     O_R   0.402350 0.833490 0.264820 -0.533850
O47   O     O_R   0.166510 0.402350 0.735180 -0.532866
O48   O     O_R   0.833490 0.597650 0.264820 -0.533852
O49   O     O_2   0.493557 0.147658 0.931798 -0.511334
O50   O     O_2   0.493654 0.852315 0.068203 -0.511347
O51   O     O_2   0.852345 0.494165 0.931796 -0.511558
O52   O     O_2   0.147688 0.493178 0.068199 -0.511237
O53   O     O_2   0.506357 0.852322 0.931798 -0.511338
O54   O     O_2   0.506329 0.147656 0.068202 -0.511358
O55   O     O_2   0.147729 0.505853 0.931793 -0.511445
O56   O     O_R   1.000000 0.569370 0.192350 -0.542850
O57   O     O_2   0.852390 0.506831 0.068200 -0.511246
O58   O     O_2   0.993144 0.647620 0.431797 -0.511165
O59   O     O_2   0.993952 0.352312 0.568208 -0.511416
O60   O     O_2   0.352375 0.993475 0.431798 -0.511312
O61   O     O_2   0.647695 0.993851 0.568205 -0.511379
O62   O     O_2   0.006729 0.352319 0.431804 -0.511247
O63   O     O_2   0.006014 0.647679 0.568201 -0.511455
O64   O     O_2   0.647697 0.006578 0.431799 -0.511303
O65   O     O_2   0.352341 0.006230 0.568202 -0.511436
O66   O     O_R   0.569370 0.000000 0.807650 -0.542825
O67   O     O_R   0.430630 1.000000 0.192350 -0.542841
O68   O     O_R   0.000000 0.569370 0.807650 -0.542829
Zn1   Zn    Zn3+2 0.900880 0.500000 0.727850 0.950520
Zn2   Zn    Zn3+2 0.599120 0.000000 0.772150 0.950526
Zn3   Zn    Zn3+2 0.000000 0.400880 0.227850 0.950516
Zn4   Zn    Zn3+2 0.000000 0.599120 0.772150 0.950521
Zn5   Zn    Zn3+2 0.599120 0.000000 0.227850 0.950521
Zn6   Zn    Zn3+2 0.400880 0.000000 0.772150 0.950515
Zn7   Zn    Zn3+2 0.000000 0.599120 0.227850 0.950516
Zn8   Zn    Zn3+2 0.000000 0.400880 0.772150 0.950530
Zn9   Zn    Zn3+2 0.099120 0.500000 0.272150 0.950522
Zn10  Zn    Zn3+2 0.500000 0.900880 0.727850 0.950524
Zn11  Zn    Zn3+2 0.500000 0.099120 0.272150 0.950519
Zn12  Zn    Zn3+2 0.099120 0.500000 0.727850 0.950527
Zn13  Zn    Zn3+2 0.900880 0.500000 0.272150 0.950506
Zn14  Zn    Zn3+2 0.500000 0.099120 0.727850 0.950523
Zn15  Zn    Zn3+2 0.500000 0.900880 0.272150 0.950513
Zn16  Zn    Zn3+2 0.400880 0.000000 0.227850 0.950519

loop_
_geom_bond_atom_site_label_1
_geom_bond_atom_site_label_2
_ccdc_geom_bond_type
C186  H27   S    
C105  C110  A    
C126  C127  A    
C101  C113  A    
C32   C45   A    
C169  H2    S    
C55   C56   A    
C45   C170  A    
C49   C173  A    
C114  C115  A    
O13   Zn12  S    
C146  C157  A    
C170  C176  A    
C43   C168  A    
C153  H11   S    
C85   C182  S    
C111  C118  A    
C104  H83   S    
C30   O62   S    
C10   C215  S    
O67   Zn16  S    
C106  C107  A    
C83   H65   S    
C226  O28   A    
C143  C144  A    
O42   Zn1   S    
C15   C239  T    
O7    Zn9   S    
C209  O6    A    
C30   N5    A    
C17   C39   A    
C107  H85   S    
C18   C40   A    
C119  C188  S    
C79   C90   A    
C121  H96   S    
O15   Zn3   S    
C129  H103  S    
C210  C231  S    
C68   C193  A    
C211  C229  S    
C128  H101  S    
C13   H33   S    
C44   C135  A    
O8    Zn1   S    
C125  H99   S    
C59   C60   A    
C35   H35   S    
O36   Zn15  S    
C28   N7    A    
C89   H71   S    
C190  C199  A    
C117  H93   S    
C220  O46   A    
O40   Zn10  S    
O24   Zn4   S    
C160  C163  A    
C205  C235  S    
C140  C141  A    
C57   C192  A    
C74   C75   A    
C168  H102  S    
O46   Zn15  S    
C213  O15   A    
O48   Zn13  S    
C23   C37   A    
C51   C157  A    
O45   Zn8   S    
C45   C146  A    
C209  O10   A    
C75   C76   A    
C140  H111  S    
C136  H108  S    
C20   C42   A    
C165  H69   S    
O12   Zn9   S    
C97   H77   S    
C183  C196  A    
C15   C220  S    
C35   C234  A    
C71   H55   S    
C76   C77   A    
O34   Zn11  S    
C154  C155  A    
C164  C179  A    
C52   C58   A    
C208  C232  A    
C13   C236  A    
C224  O26   A    
C206  O67   A    
C35   C190  A    
C184  C198  A    
C200  N1    S    
C73   H56   S    
O3    Zn6   S    
C108  H86   S    
C225  C239  S    
C30   C43   A    
C141  H112  S    
C132  C190  S    
C31   O63   S    
C42   C167  A    
C112  C178  A    
C29   O61   S    
C223  O25   A    
C124  C135  A    
C72   C73   A    
C47   C171  A    
C139  C140  A    
C22   C36   A    
C187  C200  A    
C164  C232  A    
C197  H28   S    
C156  C158  A    
C130  C131  A    
C204  C236  S    
O10   Zn10  S    
O29   Zn5   S    
C154  H12   S    
C164  H24   S    
C230  C234  A    
C207  O9    A    
C51   C176  A    
C158  H16   S    
C180  C198  A    
C11   C214  S    
C115  H90   S    
C88   C89   A    
C98   C99   A    
C155  C156  A    
C22   O54   S    
C149  C150  A    
C132  C138  A    
C53   H40   S    
C126  C189  S    
C147  C148  A    
C20   N4    A    
C46   C191  A    
C128  C129  A    
C211  O13   A    
C6    C9    T    
C32   N7    A    
O47   Zn12  S    
C24   H34   S    
C85   C86   A    
C108  C109  A    
C185  C230  A    
C112  C231  A    
C7    C227  S    
C56   H43   S    
C22   N2    A    
C173  H19   S    
C57   H38   S    
C212  O42   A    
C174  H20   S    
C34   C79   A    
C78   C80   A    
C115  C116  A    
C46   H37   S    
C225  O27   A    
C64   H50   S    
C211  O8    A    
O16   Zn6   S    
C8    C217  S    
C175  C233  A    
O1    Zn4   S    
C93   H73   S    
O2    Zn3   S    
C16   C218  S    
C89   C91   A    
O35   Zn12  S    
C34   C159  A    
O39   Zn1   S    
C223  O31   A    
C66   C67   A    
C49   C135  A    
C16   C238  T    
C144  H5    S    
C69   C70   A    
C182  C197  A    
C1    C229  A    
C81   H63   S    
C175  H26   S    
C82   H64   S    
C210  O11   A    
C151  H10   S    
C62   H48   S    
C191  C200  A    
O27   Zn7   S    
C221  O22   A    
C204  O56   A    
C18   N2    A    
C87   H68   S    
C148  H7    S    
C159  C165  A    
C23   N3    A    
C31   N6    A    
C167  H91   S    
C25   C38   A    
C19   O51   S    
C83   C84   A    
C17   O49   S    
C41   C166  A    
C61   H46   S    
C185  C199  A    
C224  C240  S    
C40   C165  A    
C161  C167  A    
C203  O45   A    
C66   H51   S    
C208  H29   S    
C149  H8    S    
C145  C192  S    
C225  O38   A    
C221  O33   A    
C72   C180  S    
C52   C53   A    
C207  C233  S    
C129  C130  A    
C29   C51   A    
C36   C90   A    
C215  O17   A    
C54   C55   A    
C3    C223  S    
C170  H13   S    
C59   C178  S    
C136  C137  A    
C181  C186  A    
C175  C180  A    
C52   C177  S    
C189  C202  A    
C2    H32   S    
O12   Zn13  S    
C206  C234  S    
O34   Zn15  S    
C117  C118  A    
C37   C101  A    
C50   C146  A    
C56   C58   A    
O4    Zn5   S    
O1    Zn12  S    
C98   C184  S    
C61   C62   A    
C203  C237  S    
C100  H79   S    
C1    H22   S    
C19   C41   A    
C152  C153  A    
C227  O29   A    
C19   N3    A    
C150  C151  A    
C204  O2    A    
C182  C195  A    
C60   H45   S    
C217  O48   A    
C24   C237  A    
C27   C49   A    
C87   C88   A    
C103  H82   S    
C222  O24   A    
C73   C74   A    
C219  C233  A    
C25   N4    A    
C5    C221  S    
O31   Zn11  S    
C131  H105  S    
C80   H62   S    
C91   H72   S    
O26   Zn2   S    
C222  O35   A    
C202  N3    S    
O21   Zn16  S    
C116  H92   S    
C139  C191  S    
C68   C237  A    
O66   Zn2   S    
C155  H14   S    
C123  C125  A    
O20   Zn2   S    
C230  H31   S    
O44   Zn14  S    
C92   C97   A    
C212  O14   A    
C44   C169  A    
C20   O52   S    
C118  H94   S    
C162  C166  A    
C21   O53   S    
C147  H6    S    
C6    C228  S    
C201  N4    S    
C192  C201  A    
C77   H61   S    
C70   C71   A    
C96   H76   S    
C156  H15   S    
C26   C48   A    
C162  H47   S    
O43   Zn9   S    
C54   H41   S    
O1    Zn1   S    
C210  O7    A    
C12   C213  S    
C145  C147  A    
C179  C196  A    
C197  C231  A    
C171  C174  A    
C152  C158  A    
C227  O36   A    
C177  C194  A    
C63   C64   A    
C171  H17   S    
O19   Zn7   S    
C68   H39   S    
C38   C113  A    
C86   C87   A    
O17   Zn5   S    
C21   C34   A    
C84   H66   S    
C53   C54   A    
C67   H52   S    
C193  C202  A    
C94   H74   S    
C60   C61   A    
C209  C232  S    
C39   C79   A    
C130  H104  S    
C62   C63   A    
C33   N8    A    
C133  H106  S    
C4    C11   T    
C121  C122  A    
C119  C125  A    
C86   H67   S    
C133  C134  A    
C226  O39   A    
C199  N2    S    
C69   H53   S    
C172  H18   S    
C127  C128  A    
C127  H100  S    
C205  O3    A    
C57   C236  A    
C37   C161  A    
C137  C138  A    
C217  O19   A    
O12   Zn3   S    
C27   O59   S    
O23   Zn6   S    
C25   O57   S    
C119  C120  A    
C65   C179  S    
C105  C106  A    
O41   Zn11  S    
C111  C187  S    
C18   O50   S    
C14   C212  S    
C216  O47   A    
C46   C235  A    
C219  H30   S    
C122  H97   S    
C95   H75   S    
C224  O32   A    
C109  C110  A    
O9    Zn11  S    
C4    C222  S    
C92   C93   A    
C41   C101  A    
C111  C114  A    
C94   C95   A    
C109  H87   S    
C112  H23   S    
C176  H21   S    
C82   C83   A    
O32   Zn10  S    
C103  C104  A    
C142  C143  A    
C40   C90   A    
C218  O20   A    
C159  H1    S    
C196  N8    S    
C14   C240  T    
C93   C94   A    
C226  C238  S    
C21   N1    A    
C95   C96   A    
O23   Zn14  S    
C81   C82   A    
C85   C91   A    
O56   Zn7   S    
C186  C229  A    
O5    Zn15  S    
O18   Zn8   S    
C28   O60   S    
C59   C64   A    
C152  C193  S    
C228  O30   A    
C32   O64   S    
O11   Zn13  S    
C98   C104  A    
C142  H3    S    
C188  C201  A    
C116  C117  A    
C105  C185  S    
C3    C12   T    
C2    C187  A    
C28   C50   A    
C184  C219  A    
C132  C133  A    
C55   H42   S    
C214  O16   A    
C24   C189  A    
C194  N6    S    
C27   N6    A    
O23   Zn2   S    
O14   Zn4   S    
C160  H25   S    
C13   C188  A    
C48   C172  A    
C75   H59   S    
C183  C208  A    
C102  C103  A    
C1    C177  A    
O33   Zn13  S    
C9    C216  S    
C168  C173  A    
C31   C44   A    
C138  H110  S    
C134  H107  S    
C102  H81   S    
C148  C149  A    
C206  O4    A    
C76   H60   S    
C163  H58   S    
C134  C136  A    
C215  O41   A    
C65   C71   A    
C120  H95   S    
C17   N1    A    
C213  O43   A    
C67   C69   A    
C99   H78   S    
O34   Zn16  S    
C72   C77   A    
C181  C194  A    
C161  H36   S    
C137  H109  S    
C139  C144  A    
C42   C113  A    
C99   C100  A    
C107  C108  A    
C33   O65   S    
C96   C97   A    
C100  C102  A    
C120  C121  A    
O30   Zn6   S    
C195  N5    S    
C145  C151  A    
O28   Zn8   S    
C47   C157  A    
C166  H80   S    
C169  C172  A    
O12   Zn7   S    
C207  O5    A    
C110  H88   S    
C150  H9    S    
C216  O18   A    
C203  O68   A    
C198  N7    S    
O6    Zn14  S    
C106  H84   S    
C80   C81   A    
C92   C183  S    
C23   O55   S    
C48   C124  A    
C218  O44   A    
C178  C195  A    
C88   H70   S    
C50   C174  A    
C78   C181  S    
C122  C123  A    
C114  H89   S    
C214  O40   A    
C5    C10   T    
C26   N5    A    
C141  C142  A    
C220  O21   A    
C58   H44   S    
C126  C131  A    
C33   C47   A    
C228  O37   A    
C70   H54   S    
C7    C8    T    
C36   C160  A    
C123  H98   S    
C78   C84   A    
C2    C235  A    
C38   C162  A    
O38   Zn9   S    
C65   C66   A    
O25   Zn16  S    
C63   H49   S    
O23   Zn10  S    
C143  H4    S    
C74   H57   S    
O37   Zn14  S    
O1    Zn8   S    
C153  C154  A    
O34   Zn5   S    
C39   C163  A    
C43   C124  A    
C26   O58   S    
O22   Zn3   S    
O68   Zn4   S    
C29   N8    A    
C205  O66   A    
