data_mof_unit_22153.cif
_audit_creation_date              2012-12-10T18:21:19-0500
_audit_creation_method            fapswitch 2.2
_symmetry_space_group_name_H-M    P1
_symmetry_Int_Tables_number       1
_space_group_crystal_system       triclinic
_cell_length_a                    9.439465
_cell_length_b                    10.613458
_cell_length_c                    17.236812
_cell_angle_alpha                 90.856237
_cell_angle_beta                  85.19586
_cell_angle_gamma                 90.992742
_cell_volume                      1720.39339266

loop_
_atom_site_label
_atom_site_type_symbol
_atom_type_description
_atom_site_fract_x
_atom_site_fract_y
_atom_site_fract_z
_atom_type_partial_charge
C1    C     C_R   0.501148 0.740602 0.499297 0.762887
C2    C     C_3   0.635249 0.962686 0.484853 -0.152536
C3    C     C_3   0.941203 0.406952 0.540565 -0.187874
C4    C     C_3   0.059128 0.592977 0.459114 -0.210496
C5    C     C_3   0.040149 0.511027 0.570441 -0.147003
C6    C     C_3   0.959621 0.489270 0.429293 -0.191918
C7    C     C_3   0.051170 0.397942 0.470394 0.600866
C8    C     C_3   0.948775 0.602097 0.529245 0.600993
C9    C     C_R   0.480592 0.497115 0.649926 0.867786
C10   C     C_R   0.519438 0.496095 0.350098 0.845378
C11   C     C_R   0.469051 0.480334 0.734324 -0.256645
C12   C     C_R   0.498991 0.259524 0.499519 0.791583
C13   C     C_R   0.531435 0.480887 0.265358 -0.273403
C14   C     C_R   0.565770 0.401662 0.767275 0.539652
C15   C     C_R   0.426699 0.410279 0.229864 0.545032
C16   C     C_R   0.556401 0.383691 0.847250 -0.224200
C17   C     C_R   0.438091 0.391341 0.149838 -0.235268
C18   C     C_R   0.449395 0.442467 0.895272 0.017359
C19   C     C_R   0.553086 0.443510 0.103709 0.018513
C20   C     C_R   0.349576 0.516460 0.862541 -0.255661
C21   C     C_R   0.660169 0.510505 0.138923 -0.244332
C22   C     C_R   0.361718 0.539872 0.782612 0.371942
C23   C     C_3   0.421852 0.954939 0.442513 -0.165987
C24   C     C_R   0.649139 0.531494 0.219421 0.361803
C25   C     C_2   0.442676 0.432960 0.980192 -0.165989
C26   C     C_2   0.560706 0.432750 0.018435 -0.165448
C27   C     C_3   0.011866 0.212231 0.403884 0.077856
C28   C     C_3   0.077381 0.088144 0.375673 -0.776530
C29   C     C_3   0.982471 0.812704 0.558171 0.010769
C30   C     C_3   0.935378 0.914445 0.617261 -0.779382
C31   C     C_3   0.718892 0.724523 0.262195 0.102739
C32   C     C_3   0.824073 0.792166 0.311228 -0.802443
C33   C     C_3   0.314308 0.746596 0.769093 0.069543
C34   C     C_3   0.578053 0.045664 0.554653 -0.167056
C35   C     C_3   0.202400 0.837858 0.747712 -0.804667
C36   C     C_3   0.554425 0.042093 0.429013 -0.177718
C37   C     C_3   0.445822 0.958631 0.568128 -0.189915
C38   C     C_3   0.497394 0.122629 0.498860 0.043139
C39   C     C_3   0.502743 0.877774 0.498423 0.038855
C40   C     C_3   0.364882 0.037944 0.512418 -0.124653
Cu1   Cu    Cu3+1 0.356850 0.500010 0.499980 1.012630
Cu2   Cu    Cu3+1 0.643150 0.499990 0.500020 1.004137
F1    F     F_    0.668187 0.340448 0.722028 -0.673250
F2    F     F_    0.315169 0.356086 0.272699 -0.647338
H1    H     H_    0.887238 0.328447 0.573818 0.177807
H2    H     H_    0.403431 0.921982 0.625328 0.136180
H3    H     H_    0.358221 0.914583 0.396546 0.126373
H4    H     H_    0.639725 0.087945 0.600834 0.161160
H5    H     H_    0.254875 0.072089 0.525171 0.157693
H6    H     H_    0.745810 0.929719 0.472817 0.153121
H7    H     H_    0.078005 0.522832 0.629407 0.189276
H8    H     H_    0.921218 0.480853 0.370303 0.186052
H9    H     H_    0.976595 0.260945 0.352303 0.161321
H10   H     H_    0.917969 0.190854 0.445465 0.124572
H11   H     H_    0.101397 0.030849 0.426016 0.214468
H12   H     H_    0.113611 0.670413 0.425087 0.134219
H13   H     H_    0.001534 0.034263 0.341602 0.191766
H14   H     H_    0.176894 0.105962 0.338057 0.285793
H15   H     H_    0.984370 0.852323 0.498754 0.133183
H16   H     H_    0.092358 0.785259 0.569154 0.149900
H17   H     H_    0.827902 0.946534 0.606838 0.249688
H18   H     H_    0.931700 0.876672 0.677111 0.256612
H19   H     H_    0.010867 0.995972 0.612214 0.202443
H20   H     H_    0.610676 0.735309 0.292631 0.111749
H21   H     H_    0.722442 0.770468 0.204401 0.139628
H22   H     H_    0.933247 0.786795 0.282001 0.245438
H23   H     H_    0.664753 0.438728 0.986436 0.153149
H24   H     H_    0.794669 0.892642 0.319055 0.187400
H25   H     H_    0.822212 0.748083 0.369359 0.260978
H26   H     H_    0.416367 0.769213 0.734548 0.133077
H27   H     H_    0.328374 0.761553 0.832170 0.142601
H28   H     H_    0.188398 0.828382 0.684832 0.245768
H29   H     H_    0.099617 0.817214 0.781674 0.255626
H30   H     H_    0.236528 0.936104 0.760517 0.204566
H31   H     H_    0.339067 0.442126 0.012110 0.152612
H32   H     H_    0.266217 0.561618 0.899525 0.157840
H33   H     H_    0.750384 0.549721 0.103766 0.159889
H34   H     H_    0.357105 0.334871 0.124182 0.167177
H35   H     H_    0.632082 0.323062 0.871472 0.167874
H36   H     H_    0.598688 0.079605 0.372101 0.129540
N1    N     N_3   0.141720 0.500030 0.499940 -0.196510
N2    N     N_3   0.858280 0.499970 0.500060 -0.202566
O1    O     O_R   0.379130 0.683150 0.499960 -0.608406
O2    O     O_3   0.885432 0.710038 0.564943 -0.552809
O3    O     O_3   0.756960 0.596763 0.252931 -0.563180
O4    O     O_3   0.269500 0.622093 0.752255 -0.563064
O5    O     O_R   0.620870 0.316850 0.500040 -0.602480
O6    O     O_R   0.620910 0.683140 0.500000 -0.546073
O7    O     O_R   0.379090 0.316860 0.500000 -0.531822
O8    O     O_R   0.365090 0.500030 0.613580 -0.568572
O9    O     O_R   0.634910 0.499970 0.386420 -0.567960
O10   O     O_R   0.606870 0.500020 0.613610 -0.514779
O11   O     O_R   0.393130 0.499980 0.386390 -0.517381
O12   O     O_3   0.114345 0.286363 0.439591 -0.534685

loop_
_geom_bond_atom_site_label_1
_geom_bond_atom_site_label_2
_ccdc_geom_bond_type
Cu1   O7    S    
C35   H30   S    
C31   O3    S    
C34   C37   S    
Cu1   Cu2   S    
Cu2   N2    S    
C4    C8    S    
C27   H10   S    
C28   H13   S    
C8    N2    S    
C26   H23   S    
C19   C21   A    
C15   F2    S    
C37   C40   S    
C3    C7    S    
C11   C14   A    
C40   H5    S    
Cu1   O1    S    
C20   H32   S    
C31   H21   S    
Cu2   O9    S    
C19   C26   S    
C2    H6    S    
C17   C19   A    
C2    C39   S    
Cu1   O11   S    
C4    N1    S    
C29   H15   S    
C24   O3    S    
C18   C20   A    
C32   H24   S    
C2    C34   S    
C1    O6    A    
Cu1   O8    S    
C34   C38   S    
C30   H19   S    
C4    H12   S    
C18   C25   S    
C9    O10   A    
C28   H11   S    
C23   H3    S    
C12   O7    A    
C29   O2    S    
C4    C6    S    
C36   H36   S    
C33   H27   S    
C10   O11   A    
C25   C26   D    
C3    H1    S    
C13   C24   A    
C25   H31   S    
C33   O4    S    
C29   C30   S    
C5    N1    S    
C31   C32   S    
C29   H16   S    
Cu1   N1    S    
C3    N2    S    
C9    C11   S    
C32   H25   S    
C33   H26   S    
C7    N1    S    
C20   C22   A    
C35   H28   S    
C30   H18   S    
C14   C16   A    
C21   C24   A    
C34   H4    S    
C32   H22   S    
C2    C36   S    
C15   C17   A    
C7    O12   S    
C35   H29   S    
C12   O5    A    
C8    O2    S    
C31   H20   S    
C3    C5    S    
C10   C13   S    
C9    O8    A    
C10   O9    A    
C5    C8    S    
C6    N2    S    
C27   H9    S    
C6    C7    S    
C28   H14   S    
C1    O1    A    
C11   C22   A    
C16   H35   S    
C13   C15   A    
C37   C39   S    
C38   C40   S    
C23   C39   S    
C36   C38   S    
C17   H34   S    
C33   C35   S    
Cu2   O10   S    
C22   O4    S    
C12   C38   S    
C1    C39   S    
Cu2   O6    S    
C16   C18   A    
C23   C36   S    
C30   H17   S    
C21   H33   S    
C27   C28   S    
C5    H7    S    
C27   O12   S    
Cu2   O5    S    
C6    H8    S    
C37   H2    S    
C23   C40   S    
C14   F1    S    
