data_mof_unit_37280.cif
_audit_creation_date              2012-12-11T14:56:35-0500
_audit_creation_method            fapswitch 2.2
_symmetry_space_group_name_H-M    P1
_symmetry_Int_Tables_number       1
_space_group_crystal_system       triclinic
_cell_length_a                    10.485798
_cell_length_b                    10.670148
_cell_length_c                    17.055585
_cell_angle_alpha                 80.217448
_cell_angle_beta                  89.883016
_cell_angle_gamma                 119.027348
_cell_volume                      1636.37950029

loop_
_atom_site_label
_atom_site_type_symbol
_atom_type_description
_atom_site_fract_x
_atom_site_fract_y
_atom_site_fract_z
_atom_type_partial_charge
C1    C     C_R   0.279217 0.888730 0.132764 0.546352
C2    C     C_R   0.824596 0.461791 0.252696 0.339305
C3    C     C_R   0.810338 0.430036 0.176761 0.116920
C4    C     C_R   0.669519 0.365596 0.149089 -0.062072
C5    C     C_1   0.685473 0.831435 0.201674 -0.010293
C6    C     C_1   0.703798 0.807080 0.270459 -0.018959
C7    C     C_1   0.228392 0.854362 0.215581 0.022578
C8    C     C_1   0.179749 0.834974 0.283218 0.042175
C9    C     C_1   0.662278 0.358125 0.780499 -0.015423
C10   C     C_1   0.685431 0.402285 0.709931 -0.015880
C11   C     C_R   0.611263 0.710160 0.806036 -0.104442
C12   C     C_R   0.639694 0.284641 0.084516 0.544118
C13   C     C_R   0.583247 0.696841 0.728526 0.094528
C14   C     C_R   0.664057 0.820035 0.666483 0.015025
C15   C     C_R   0.760633 0.956273 0.685031 -0.161612
C16   C     C_R   0.772209 0.971402 0.764132 -0.076068
C17   C     C_R   0.692826 0.848373 0.824690 0.032820
C18   C     C_R   0.085715 0.889515 0.789182 0.298923
C19   C     C_R   0.073767 0.887892 0.709304 -0.173585
C20   C     C_R   0.112135 0.800680 0.672925 -0.092642
C21   C     C_R   0.148310 0.703396 0.719138 0.383750
C22   C     C_R   0.163757 0.706826 0.799508 0.349716
C23   C     C_R   0.643690 0.855679 0.124185 0.538942
C24   C     C_R   0.142964 0.808588 0.833123 -0.031372
C25   C     C_R   0.711522 0.772551 0.353610 0.532451
C26   C     C_R   0.724762 0.457137 0.382869 0.575558
C27   C     C_R   0.108618 0.812608 0.360019 0.558887
C28   C     C_R   0.676901 0.798376 0.586311 0.551766
C29   C     C_R   0.717733 0.446621 0.625990 0.548312
C30   C     C_R   0.088989 0.798018 0.589869 0.581105
C31   C     C_R   0.214268 0.857153 0.903156 0.602458
C32   C     C_R   0.640352 0.291044 0.861933 0.545239
C33   C     C_R   0.648729 0.866073 0.900263 0.553110
C34   C     C_R   0.550931 0.354549 0.193034 -0.159671
C35   C     C_R   0.564746 0.387458 0.268813 0.023028
C36   C     C_R   0.701889 0.433168 0.301127 -0.011938
Cr1   Cr    Cr6+3 0.402240 0.783890 0.019450 1.121161
Cr2   Cr    Cr6+3 0.382360 0.097900 0.991800 1.086959
Cr3   Cr    Cr6+3 0.715380 0.118170 0.988700 1.100346
Cr4   Cr    Cr6+3 0.936650 0.882420 0.465510 1.063343
Cr5   Cr    Cr6+3 0.605770 0.565620 0.493360 1.099726
Cr6   Cr    Cr6+3 0.921340 0.550490 0.496380 1.126725
H1    H     H_    0.443727 0.309441 0.171041 0.177740
H2    H     H_    0.034929 0.956370 0.675912 0.194006
H3    H     H_    0.550256 0.614550 0.852890 0.165242
H4    H     H_    0.825217 0.050959 0.638316 0.158855
H5    H     H_    0.835824 0.079588 0.777592 0.194219
O1    O     O_R   0.521780 0.757110 0.108900 -0.502973
O2    O     O_R   0.513330 0.228330 0.898660 -0.486996
O3    O     O_R   0.739230 0.266130 0.888050 -0.485664
O4    O     O_R   0.712580 0.991850 0.918770 -0.488659
O5    O     O_3   0.499990 0.999980 0.999980 -0.308232
O6    O     O_R   0.083770 0.911170 0.376030 -0.501383
O7    O     O_R   0.808770 0.880340 0.383890 -0.470652
O8    O     O_R   0.584340 0.689460 0.394160 -0.475006
O9    O     O_R   0.614320 0.443940 0.423590 -0.487274
O10   O     O_R   0.805020 0.410040 0.421340 -0.431019
O11   O     O_R   0.049240 0.685450 0.403290 -0.458431
O12   O     O_R   0.275160 0.783810 0.101120 -0.456203
O13   O     O_R   0.077520 0.903010 0.551800 -0.517288
O14   O     O_R   0.802980 0.872780 0.546830 -0.511061
O15   O     O_R   0.578090 0.681300 0.569920 -0.471634
O16   O     O_R   0.608530 0.436370 0.586530 -0.469222
O17   O     O_R   0.798770 0.401880 0.597100 -0.480953
O18   O     O_R   0.043450 0.677890 0.566230 -0.453978
O19   O     O_3   0.821250 0.666180 0.485090 -0.360374
O20   O     O_R   0.237900 0.972600 0.090980 -0.505496
O21   O     O_R   0.511190 0.220540 0.061620 -0.525920
O22   O     O_R   0.736920 0.257720 0.063840 -0.480363
O23   O     O_R   0.710450 0.984050 0.081720 -0.488404
O24   O     O_R   0.524090 0.765520 0.933110 -0.489144
O25   O     O_R   0.277300 0.791600 0.938160 -0.439447
O26   O     O_R   0.240210 0.981010 0.915190 -0.433555
F1    F     F_    0.173295 0.609403 0.686063 -0.554495
F2    F     F_    0.209028 0.618597 0.842277 -0.558417
I1    I     I_    0.364535 0.348329 0.327069 -0.222433
F3    F     F_    0.958629 0.515622 0.280666 -0.606299
I2    I     I_    0.007773 0.473823 0.112499 -0.130103
I3    I     I_    0.403678 0.488273 0.718410 -0.098163
F4    F     F_    0.053015 0.979627 0.821521 -0.602193

loop_
_geom_bond_atom_site_label_1
_geom_bond_atom_site_label_2
_ccdc_geom_bond_type
Cr3   O4    S    
C12   O22   A    
C13   I3    S    
Cr4   O13   S    
C35   C36   A    
Cr6   O11   S    
C29   O16   A    
C7    C8    T    
Cr2   O2    S    
C20   C30   S    
C12   O21   A    
C18   C24   A    
Cr5   O15   S    
C34   C35   A    
C1    O12   A    
C5    C6    T    
C31   O26   A    
C6    C25   S    
Cr2   O5    S    
C15   C16   A    
Cr6   O10   S    
C18   C19   A    
Cr5   O8    S    
C9    C32   S    
C19   C20   A    
C16   C17   A    
C30   O13   A    
Cr6   O18   S    
C4    C12   S    
C9    C10   T    
C28   O14   A    
Cr3   O5    S    
C29   O17   A    
Cr4   O19   S    
C13   C14   A    
C23   O23   A    
C17   C33   S    
C22   F2    S    
C16   H5    S    
C4    C34   A    
C35   I1    S    
C25   O7    A    
Cr1   O5    S    
C21   F1    S    
Cr4   O14   S    
Cr5   O9    S    
C5    C23   S    
Cr3   O22   S    
C20   C21   A    
Cr1   O1    S    
C32   O3    A    
Cr1   O12   S    
C26   C36   S    
C31   O25   A    
Cr2   O21   S    
Cr4   O7    S    
Cr1   O24   S    
C22   C24   A    
C11   H3    S    
Cr5   O16   S    
C3    C4    A    
Cr6   O17   S    
C19   H2    S    
C2    C36   A    
C11   C17   A    
C23   O1    A    
C1    C7    S    
C34   H1    S    
C25   O8    A    
C27   O11   A    
C26   O9    A    
C27   O6    A    
Cr5   O19   S    
C33   O4    A    
C2    C3    A    
C24   C31   S    
C2    F3    S    
C11   C13   A    
C10   C29   S    
C1    O20   A    
Cr3   O23   S    
C26   O10   A    
C32   O2    A    
C30   O18   A    
C33   O24   A    
Cr3   O3    S    
Cr2   O20   S    
C18   F4    S    
Cr4   O6    S    
Cr1   O25   S    
Cr6   O19   S    
C8    C27   S    
C14   C15   A    
C15   H4    S    
C14   C28   S    
C21   C22   A    
C3    I2    S    
Cr2   O26   S    
C28   O15   A    
