data_mof_unit_15835.cif
_audit_creation_date              2012-12-10T20:49:49-0500
_audit_creation_method            fapswitch 2.2
_symmetry_space_group_name_H-M    P1
_symmetry_Int_Tables_number       1
_space_group_crystal_system       triclinic
_cell_length_a                    8.10806
_cell_length_b                    8.932117
_cell_length_c                    16.883658
_cell_angle_alpha                 89.991257
_cell_angle_beta                  86.808704
_cell_angle_gamma                 90.001477
_cell_volume                      1220.85443623

loop_
_atom_site_label
_atom_site_type_symbol
_atom_type_description
_atom_site_fract_x
_atom_site_fract_y
_atom_site_fract_z
_atom_type_partial_charge
C1    C     C_R   0.500001 0.782007 0.500011 0.946364
C2    C     C_R   0.377245 0.448798 0.226487 -0.208104
C3    C     C_R   0.595139 0.334222 0.847933 0.238336
C4    C     C_R   0.357711 0.465602 0.145885 0.234122
C5    C     C_R   0.450248 0.366473 0.894539 0.042196
C6    C     C_R   0.490266 0.524946 0.097985 0.020801
C7    C     C_R   0.309154 0.424990 0.860025 -0.005564
C8    C     C_R   0.633814 0.581987 0.132281 -0.023955
C9    C     C_R   0.321793 0.470582 0.781273 -0.265051
C10   C     C_R   0.647115 0.565981 0.214265 -0.269338
C11   C     C_2   0.461198 0.375539 0.979997 -0.182804
C12   C     C_R   0.499997 0.217992 0.500023 0.933807
C13   C     C_2   0.481337 0.510778 0.012191 -0.220370
C14   C     C_2   0.146935 0.437165 0.904287 0.872921
C15   C     C_2   0.769586 0.661250 0.085934 0.908005
C16   C     C_3   0.072626 0.356334 0.157804 -0.673301
C17   C     C_3   0.857100 0.188308 0.832092 -0.688076
C18   C     C_1   0.500001 0.934811 0.500030 -0.188862
C19   C     C_1   0.499997 0.065196 0.500037 -0.188061
C20   C     C_R   0.479623 0.493403 0.653123 0.891580
C21   C     C_R   0.519627 0.499003 0.346676 0.885494
C22   C     C_R   0.470393 0.453610 0.736563 -0.102024
C23   C     C_R   0.519786 0.499496 0.260727 -0.103405
C24   C     C_R   0.604365 0.380783 0.768732 -0.207023
H1    H     H_    0.715713 0.361603 0.731860 0.172194
H2    H     H_    0.970616 0.329252 0.118946 0.258524
H3    H     H_    0.023266 0.431802 0.205749 0.237232
H4    H     H_    0.117013 0.249836 0.183083 0.229598
H5    H     H_    0.767585 0.302733 0.935241 0.254364
H6    H     H_    0.935176 0.117224 0.868844 0.268988
H7    H     H_    0.937000 0.273888 0.801561 0.230452
H8    H     H_    0.800446 0.115313 0.787774 0.236349
H9    H     H_    0.278856 0.400266 0.263974 0.169374
H10   H     H_    0.753434 0.609905 0.242720 0.201971
H11   H     H_    0.215253 0.518197 0.754459 0.201277
H12   H     H_    0.486948 0.610521 0.975276 0.212044
H13   H     H_    0.461309 0.273850 0.015349 0.194639
H14   H     H_    0.926675 0.541567 0.916466 0.370017
H15   H     H_    0.998352 0.750994 0.084987 0.350517
H16   H     H_    0.165556 0.509942 0.073142 0.271557
N1    N     N_1   0.926360 0.500000 0.499990 -0.033978
N2    N     N_1   0.073640 0.500000 0.500010 -0.034112
N3    N     N_2   0.205087 0.429305 0.111399 -0.268099
N4    N     N_2   0.730006 0.259703 0.882533 -0.303516
O1    O     O_R   0.363150 0.714660 0.500000 -0.610901
O2    O     O_R   0.035770 0.548944 0.884499 -0.798646
O3    O     O_2   0.752066 0.702582 0.017949 -0.643057
O4    O     O_R   0.916833 0.694532 0.121631 -0.825114
O5    O     O_R   0.636850 0.285340 0.500000 -0.617279
O6    O     O_R   0.636850 0.714660 0.500000 -0.611818
O7    O     O_R   0.363150 0.285340 0.500000 -0.616670
O8    O     O_R   0.346950 0.500000 0.615800 -0.620427
O9    O     O_R   0.653050 0.500000 0.384200 -0.618632
O10   O     O_R   0.620700 0.500000 0.615800 -0.623036
O11   O     O_R   0.379300 0.500000 0.384200 -0.624356
O12   O     O_2   0.107091 0.345166 0.955411 -0.639710
Zn1   Zn    Zn3+2 0.317220 0.500000 0.500010 0.991364
Zn2   Zn    Zn3+2 0.682780 0.500000 0.499990 0.991201

loop_
_geom_bond_atom_site_label_1
_geom_bond_atom_site_label_2
_ccdc_geom_bond_type
C16   H4    S    
C14   O12   D    
O9    Zn2   S    
C8    C10   A    
C20   O10   A    
O7    Zn1   S    
C4    N3    S    
C10   C23   A    
C7    C14   S    
N1    N2    T    
C2    C4    A    
C15   O3    D    
O1    Zn1   S    
C16   H3    S    
O11   Zn1   S    
C12   O5    A    
C1    C18   S    
C17   N4    S    
C21   O11   A    
C10   H10   S    
C6    C13   S    
C21   O9    A    
C17   H6    S    
C11   C13   D    
C16   N3    S    
C1    O1    A    
C3    C24   A    
C15   O4    S    
N2    Zn1   S    
C4    C6    A    
C20   C22   S    
N1    Zn2   S    
C5    C11   S    
C8    C15   S    
C5    C7    A    
C21   C23   S    
H5    N4    S    
C16   H2    S    
C17   H7    S    
C22   C24   A    
C3    N4    S    
H14   O2    S    
O8    Zn1   S    
C9    H11   S    
O6    Zn2   S    
C7    C9    A    
C12   O7    A    
O10   Zn2   S    
C24   H1    S    
C12   C19   S    
C13   H12   S    
C20   O8    A    
C9    C22   A    
C1    O6    A    
C2    C23   A    
C11   H13   S    
C17   H8    S    
C18   C19   T    
C6    C8    A    
C3    C5    A    
H16   N3    S    
O5    Zn2   S    
C2    H9    S    
H15   O4    S    
C14   O2    S    
