data_mof_unit_25449.cif
_audit_creation_date              2012-12-11T20:55:39-0500
_audit_creation_method            fapswitch 2.2
_symmetry_space_group_name_H-M    P1
_symmetry_Int_Tables_number       1
_space_group_crystal_system       triclinic
_cell_length_a                    8.261436
_cell_length_b                    19.116501
_cell_length_c                    22.769542
_cell_angle_alpha                 99.726431
_cell_angle_beta                  90.010759
_cell_angle_gamma                 92.0402
_cell_volume                      3541.98106465

loop_
_atom_site_label
_atom_site_type_symbol
_atom_type_description
_atom_site_fract_x
_atom_site_fract_y
_atom_site_fract_z
_atom_type_partial_charge
Ba1   Ba    Ba6+2 0.157290 0.533910 0.474710 1.662061
Ba2   Ba    Ba6+2 0.652900 0.466090 0.525240 1.660477
C1    C     C_3   0.358103 0.746009 0.266964 -0.340830
C2    C     C_R   0.991924 0.272309 0.479256 0.061579
C3    C     C_R   0.141850 0.186231 0.548503 -0.130266
C4    C     C_3   0.922468 0.722327 0.346341 0.394802
C5    C     C_R   0.206071 0.254324 0.545983 0.022710
C6    C     C_R   0.677293 0.809827 0.446616 -0.164096
C7    C     C_R   0.607751 0.743977 0.453623 -0.005554
C8    C     C_R   0.860399 0.801690 0.527407 -0.150034
C9    C     C_R   0.822168 0.727758 0.520099 0.054497
C10   C     C_R   0.026218 0.152872 0.505673 -0.006363
C11   C     C_R   0.119272 0.299357 0.517064 -0.233426
C12   C     C_3   0.415347 0.718441 0.322012 0.335400
C13   C     C_R   0.796244 0.844630 0.487295 0.002290
C14   C     C_R   0.688946 0.700997 0.485859 -0.240616
C15   C     C_R   0.236141 0.033901 0.532376 -0.083867
C16   C     C_3   0.941841 0.792869 0.324007 -0.372719
C17   C     C_R   0.330117 0.982526 0.550405 -0.088553
C18   C     C_R   0.282363 0.912065 0.535027 -0.065106
C19   C     C_R   0.135582 0.894445 0.505676 -0.074813
C20   C     C_R   0.018765 0.945568 0.502996 0.010546
C21   C     C_R   0.073571 0.018990 0.512825 0.035693
C22   C     C_R   0.854825 0.923260 0.487652 -0.019662
C23   C     C_3   0.483978 0.684039 0.619299 0.309740
C24   C     C_R   0.750571 0.977789 0.475291 0.034483
C25   C     C_R   0.805304 0.051263 0.485342 0.011241
C26   C     C_R   0.968550 0.073682 0.501927 -0.021045
C27   C     C_R   0.589353 0.962977 0.453802 -0.076856
C28   C     C_3   0.820719 0.375182 0.342100 0.308450
C29   C     C_R   0.496836 0.014465 0.435072 -0.077139
C30   C     C_R   0.543881 0.084873 0.451271 -0.074426
C31   C     C_R   0.688973 0.102250 0.481413 -0.082849
C32   C     C_R   0.644268 0.524280 0.335301 -0.301834
C33   C     C_R   0.359290 0.559604 0.948440 -0.025221
C34   C     C_3   0.490974 0.764414 0.636989 -0.381293
C35   C     C_R   0.310243 0.555295 0.888580 0.586481
C36   C     C_R   0.271395 0.428625 0.878560 0.589511
C37   C     C_R   0.320823 0.430989 0.938216 -0.020341
C38   C     C_R   0.365021 0.496964 0.973263 -0.054137
C39   C     C_R   0.402924 0.625092 0.984014 -0.075871
C40   C     C_3   0.816719 0.356434 0.274459 -0.345669
C41   C     C_R   0.451513 0.628428 0.043150 -0.078177
C42   C     C_R   0.458479 0.566347 0.068468 -0.019667
C43   C     C_R   0.415294 0.500334 0.033380 -0.053721
C44   C     C_R   0.328153 0.368915 0.963526 -0.074560
C45   C     C_3   0.877505 0.279880 0.647846 0.606599
C46   C     C_R   0.378672 0.372195 0.022506 -0.074049
C47   C     C_R   0.422555 0.437691 0.058102 -0.024554
C48   C     C_R   0.473765 0.441988 0.117806 0.587210
C49   C     C_R   0.506827 0.568915 0.128193 0.587656
C50   C     C_2   0.069432 0.468235 0.772993 -0.092072
C51   C     C_3   0.020331 0.477380 0.710591 -0.055039
C52   C     C_3   0.996498 0.630480 0.659679 0.297238
C53   C     C_1   0.301083 0.510567 0.693752 0.012107
C54   C     C_2   0.344357 0.509487 0.749549 -0.092583
C55   C     C_2   0.222767 0.487272 0.792397 0.219947
C56   C     C_3   0.859599 0.206114 0.665070 0.323537
C57   C     C_R   0.708666 0.544835 0.235793 -0.098226
C58   C     C_R   0.750484 0.550725 0.296076 -0.040204
C59   C     C_R   0.501886 0.487108 0.314324 0.030794
C60   C     C_R   0.458212 0.481600 0.254155 -0.082723
C61   C     C_R   0.560080 0.511418 0.214438 0.216466
C62   C     C_2   0.166692 0.477657 0.670739 -0.282988
C63   C     C_3   0.030576 0.658359 0.725370 -0.362293
C64   C     C_3   0.323950 0.318698 0.396859 0.372847
C65   C     C_3   0.328475 0.238038 0.383435 0.332078
C66   C     C_3   0.191247 0.136383 0.334391 0.271807
C67   C     C_3   0.352480 0.312985 0.686248 0.361356
C68   C     C_3   0.318303 0.097932 0.293580 -0.373457
C69   C     C_3   0.672554 0.114892 0.670922 0.297399
C70   C     C_3   0.496878 0.097675 0.684487 -0.304914
C71   C     C_3   0.271084 0.262012 0.722481 -0.330559
C72   C     C_R   0.963562 0.197784 0.467059 -0.144398
H1    H     H_    0.416008 0.659392 0.312202 0.039807
H2    H     H_    0.240951 0.719677 0.250717 0.158456
H3    H     H_    0.303734 0.218365 0.425841 -0.105558
H4    H     H_    0.452127 0.222889 0.368061 0.026275
H5    H     H_    0.540145 0.740476 0.331557 -0.045791
H6    H     H_    0.448953 0.735052 0.231085 0.135061
H7    H     H_    0.608125 0.666189 0.608099 0.016184
H8    H     H_    0.404581 0.670285 0.579360 0.075947
H9    H     H_    0.572032 0.780385 0.676237 0.128488
H10   H     H_    0.538553 0.789134 0.599424 0.056115
H11   H     H_    0.367699 0.783789 0.648138 0.124955
H12   H     H_    0.733289 0.309767 0.260324 0.137784
H13   H     H_    0.344179 0.804356 0.277445 0.094881
H14   H     H_    0.879148 0.835060 0.353882 0.067405
H15   H     H_    0.793664 0.281961 0.610032 0.061847
H16   H     H_    0.003671 0.288191 0.633910 -0.346291
H17   H     H_    0.913691 0.167711 0.628919 -0.084834
H18   H     H_    0.927514 0.205459 0.707111 0.018759
H19   H     H_    0.256765 0.340037 0.665218 -0.053491
H20   H     H_    0.421490 0.354730 0.717043 0.080309
H21   H     H_    0.169990 0.288289 0.748493 0.137542
H22   H     H_    0.360026 0.245442 0.753527 0.143979
H23   H     H_    0.940117 0.343719 0.257478 0.139494
H24   H     H_    0.976357 0.728441 0.391772 0.065652
H25   H     H_    0.221539 0.214330 0.692384 0.068451
H26   H     H_    0.885167 0.176269 0.429866 0.066815
H27   H     H_    0.183184 0.161006 0.584421 0.048110
H28   H     H_    0.637737 0.831984 0.408838 0.059136
H29   H     H_    0.945442 0.823927 0.562237 0.073888
H30   H     H_    0.157464 0.354665 0.520973 0.056525
H31   H     H_    0.642947 0.647496 0.486817 0.065043
H32   H     H_    0.300943 0.082686 0.530447 0.076800
H33   H     H_    0.450395 0.996483 0.568496 0.072114
H34   H     H_    0.110983 0.613160 0.637704 0.021656
H35   H     H_    0.365171 0.871617 0.541812 0.098537
H36   H     H_    0.791389 0.708423 0.348162 -0.092693
H37   H     H_    0.112386 0.840575 0.484772 0.127754
H38   H     H_    0.522778 0.914648 0.455093 0.075156
H39   H     H_    0.377756 0.000529 0.415761 0.072886
H40   H     H_    0.462479 0.125825 0.444674 0.076115
H41   H     H_    0.710309 0.156097 0.501720 0.131641
H42   H     H_    0.382855 0.323131 0.040208 0.124123
H43   H     H_    0.295261 0.317433 0.937704 0.120730
H44   H     H_    0.483848 0.679952 0.069017 0.118188
H45   H     H_    0.907623 0.584980 0.655399 0.040128
H46   H     H_    0.791825 0.565277 0.205510 0.102710
H47   H     H_    0.399598 0.674125 0.966227 0.122865
H48   H     H_    0.466816 0.525426 0.764727 0.100289
H49   H     H_    0.345970 0.453910 0.238194 0.112704
H50   H     H_    0.678120 0.528262 0.381683 0.080267
H51   H     H_    0.160668 0.452825 0.624189 0.073598
H52   H     H_    0.889673 0.787829 0.278468 0.119724
H53   H     H_    0.696793 0.386610 0.358237 -0.003294
H54   H     H_    0.902217 0.422756 0.355057 0.060403
H55   H     H_    0.774038 0.401637 0.254746 0.066371
H56   H     H_    0.113997 0.705867 0.730001 0.146451
H57   H     H_    0.199513 0.334698 0.408323 -0.022209
H58   H     H_    0.070185 0.120768 0.314200 0.077504
H59   H     H_    0.191045 0.117883 0.378262 0.016353
H60   H     H_    0.440069 0.106316 0.314711 0.103068
H61   H     H_    0.287985 0.040032 0.285112 0.074400
H62   H     H_    0.320815 0.117637 0.250409 0.149299
H63   H     H_    0.750926 0.096054 0.704468 0.020532
H64   H     H_    0.700287 0.085878 0.625581 0.028779
H65   H     H_    0.415818 0.115879 0.651632 0.123009
H66   H     H_    0.477920 0.039441 0.681918 0.051325
H67   H     H_    0.088037 0.617752 0.746901 0.085928
H68   H     H_    0.466055 0.124340 0.730050 0.120483
H69   H     H_    0.071651 0.809264 0.323030 0.140222
H70   H     H_    0.978081 0.454404 0.803754 0.093550
H71   H     H_    0.915654 0.673198 0.748747 0.120000
H72   H     H_    0.405136 0.337119 0.435634 0.003890
N1    N     N_R   0.267587 0.490291 0.854377 -0.427815
N2    N     N_R   0.513377 0.507243 0.152420 -0.425558
O1    O     O_2   0.108070 0.674980 0.540650 -0.457408
O2    O     O_2   0.687519 0.445201 0.696954 -0.479687
O3    O     O_3   0.844160 0.331883 0.697078 -0.601960
O4    O     O_3   0.861930 0.586170 0.535430 -0.487491
O5    O     O_3   0.451480 0.461630 0.428900 -0.496005
O6    O     O_2   0.599240 0.538720 0.642170 -0.459117
O7    O     O_3   0.422653 0.653268 0.666953 -0.635622
O8    O     O_2   0.540215 0.245186 0.532847 -0.518830
O9    O     O_3   0.461887 0.275681 0.646086 -0.543719
O10   O     O_2   0.304405 0.609475 0.866908 -0.594048
O11   O     O_2   0.233223 0.371646 0.847953 -0.615679
O12   O     O_3   0.373694 0.347152 0.346778 -0.627431
O13   O     O_2   0.484688 0.387576 0.138829 -0.594667
O14   O     O_2   0.541826 0.626246 0.158884 -0.621869
O15   O     O_3   0.366390 0.628250 0.433820 -0.461555
O16   O     O_2   0.290661 0.751586 0.486202 -0.503532
O17   O     O_3   0.932270 0.685397 0.634792 -0.636351
O18   O     O_3   0.312025 0.741245 0.369964 -0.588107
O19   O     O_2   0.211060 0.461230 0.357810 -0.456555
O20   O     O_3   0.958150 0.591500 0.402390 -0.485107
O21   O     O_2   0.084056 0.539079 0.296574 -0.476517
O22   O     O_3   0.211691 0.211028 0.339254 -0.618166
O23   O     O_3   0.002302 0.670245 0.307279 -0.585158
O24   O     O_3   0.694412 0.188885 0.673093 -0.605229
O25   O     O_2   0.702240 0.324970 0.459330 -0.485683
O26   O     O_3   0.948380 0.413820 0.464520 -0.492812
O27   O     O_3   0.443920 0.371740 0.566130 -0.463773
O28   O     O_3   0.877162 0.317125 0.364978 -0.608815
O29   O     O_3   0.358830 0.538360 0.571050 -0.481963
O30   O     O_3   0.852160 0.408490 0.597560 -0.485433
P1    P     P_3+3 0.933470 0.664380 0.557030 0.981269
P2    P     P_3+3 0.383600 0.440030 0.365120 0.996683
P3    P     P_3+3 0.948720 0.587102 0.325020 0.969445
P4    P     P_3+3 0.876840 0.335610 0.442930 0.992704
P5    P     P_3+3 0.853081 0.415882 0.675504 0.989263
P6    P     P_3+3 0.396515 0.718166 0.434130 0.935419
P7    P     P_3+3 0.417517 0.560771 0.645718 0.955607
P8    P     P_3+3 0.410723 0.284009 0.573208 0.958745

loop_
_geom_bond_atom_site_label_1
_geom_bond_atom_site_label_2
_ccdc_geom_bond_type
C32   C58   A    
C53   C54   D    
C57   H46   S    
C10   C72   A    
C23   O7    S    
C45   H15   S    
C27   H38   S    
C17   C18   A    
C65   H3    S    
O26   P4    S    
C64   O12   S    
C63   H56   S    
C69   H63   S    
C52   C63   S    
C25   C31   A    
C70   H68   S    
C24   C25   A    
C15   C21   A    
Ba1   O4    S    
C4    H24   S    
C16   H69   S    
C33   C35   A    
C7    C14   A    
C22   C24   A    
C36   O11   D    
C67   H19   S    
C8    C13   A    
C51   P5    S    
Ba2   O25   S    
C36   C37   A    
Ba1   P2    S    
Ba1   O19   S    
C34   H9    S    
O1    P1    D    
O29   P7    S    
C54   C55   S    
C49   O14   D    
Ba1   Ba2   S    
Ba2   P4    S    
C39   H47   S    
C2    C11   A    
C66   H58   S    
O12   P2    S    
C5    P8    S    
C15   C17   A    
Ba1   O29   S    
C70   H65   S    
C6    C7    A    
C67   O9    S    
C67   C71   S    
C40   H12   S    
Ba2   O29   S    
C12   O18   S    
C56   H17   S    
C2    C72   A    
O30   P5    S    
C23   H7    S    
C46   H42   S    
C66   H59   S    
O19   P2    D    
O5    P2    S    
C57   C58   A    
Ba2   O6    S    
C52   H45   S    
C48   O13   D    
C68   H62   S    
C39   C41   A    
C65   H4    S    
C66   O22   S    
C1    H6    S    
C28   O28   S    
C60   H49   S    
C19   H37   S    
C69   H64   S    
C28   H54   S    
C4    O23   S    
C65   O22   S    
Ba2   O4    S    
C38   C43   A    
C4    C16   S    
O6    P7    D    
C3    H27   S    
Ba1   O26   S    
C31   H41   S    
C1    H13   S    
O18   P6    S    
O9    P8    S    
C3    C10   A    
C67   H20   S    
O7    P7    S    
C40   H23   S    
C37   C38   A    
C3    C5    A    
C72   H26   S    
C23   C34   S    
Ba1   O20   S    
C12   H5    S    
C32   C59   A    
C16   H14   S    
C44   H43   S    
C54   H48   S    
C35   O10   D    
C4    H36   S    
C56   O24   S    
C41   C42   A    
C60   C61   A    
O16   P6    D    
Ba2   O27   S    
C63   H67   S    
C9    C14   A    
C29   C30   A    
C43   C47   A    
C53   C62   D    
C50   H70   S    
C21   C26   A    
C35   N1    Am   
C11   H30   S    
Ba1   O5    S    
C1    H2    S    
O21   P3    D    
C1    C12   S    
C14   H31   S    
C59   P2    S    
C37   C44   A    
C42   C49   A    
C13   C22   S    
C10   C26   S    
O25   P4    D    
C47   C48   A    
C6    C13   A    
C8    C9    A    
C55   N1    S    
C23   H8    S    
O17   P1    S    
C45   H16   S    
C20   C22   A    
C9    P1    S    
C71   H21   S    
C52   O17   S    
C63   H71   S    
C61   N2    S    
C50   C51   S    
C64   H57   S    
C48   N2    Am   
C58   P3    S    
C71   H25   S    
C28   H53   S    
C8    H29   S    
C32   H50   S    
O15   P6    S    
C69   O24   S    
O23   P3    S    
C42   C43   A    
C70   H66   S    
C45   O3    S    
Ba1   O1    S    
O3    P5    S    
O2    P5    D    
O8    P8    D    
C34   H11   S    
Ba2   O5    S    
C57   C61   A    
C52   H34   S    
C2    P4    S    
C30   C31   A    
O4    P1    S    
C33   C38   A    
C69   C70   S    
C27   C29   A    
C7    P6    S    
C15   H32   S    
C16   H52   S    
C45   C56   S    
Ba1   P1    S    
C62   H51   S    
C68   H61   S    
C6    H28   S    
C49   N2    Am   
C34   H10   S    
C46   C47   A    
C51   C62   S    
C64   C65   S    
C40   H55   S    
C53   P7    S    
C59   C60   A    
C33   C39   A    
C36   N1    Am   
C64   H72   S    
C50   C55   D    
O28   P4    S    
C41   H44   S    
C18   H35   S    
C44   C46   A    
C5    C11   A    
C18   C19   A    
Ba1   O15   S    
C24   C27   A    
C66   C68   S    
O20   P3    S    
C25   C26   A    
C68   H60   S    
C20   C21   A    
C28   C40   S    
Ba2   O30   S    
C71   H22   S    
C30   H40   S    
C19   C20   A    
C56   H18   S    
C29   H39   S    
Ba2   O26   S    
C12   H1    S    
O27   P8    S    
C17   H33   S    
