data_mof_unit_5576.cif
_audit_creation_date              2013-03-05T15:51:40-0500
_audit_creation_method            fapswitch 2.2
_symmetry_space_group_name_H-M    P1
_symmetry_Int_Tables_number       1
_space_group_crystal_system       triclinic
_cell_length_a                    11.519379
_cell_length_b                    11.560572
_cell_length_c                    19.468573
_cell_angle_alpha                 90.812363
_cell_angle_beta                  90.31736
_cell_angle_gamma                 60.081628
_cell_volume                      2246.90879963

loop_
_atom_site_label
_atom_site_type_symbol
_atom_site_description
_atom_site_fract_x
_atom_site_fract_y
_atom_site_fract_z
_atom_type_partial_charge
O1    O     O_R   0.267750 0.231960 0.575440 -0.503025
O2    O     O_R   0.527290 0.186640 0.570530 -0.494119
C1    C     C_R   0.640995 0.117677 0.598951 0.543173
O3    O     O_R   0.728110 0.003450 0.576380 -0.505297
O4    O     O_R   0.682980 0.789190 0.570500 -0.487395
C2    C     C_R   0.613029 0.745380 0.598406 0.553766
O5    O     O_R   0.499300 0.771880 0.575540 -0.508896
O6    O     O_R   0.285350 0.030870 0.569740 -0.494710
C3    C     C_R   0.240606 0.145567 0.597959 0.545996
O7    O     O_R   0.270960 0.227070 0.423890 -0.500435
O8    O     O_R   0.530270 0.182120 0.430040 -0.494065
C4    C     C_R   0.645518 0.115830 0.403831 0.540861
O9    O     O_R   0.731320 0.998570 0.424830 -0.532030
O10   O     O_R   0.685950 0.784660 0.430010 -0.509526
C5    C     C_R   0.580356 0.804582 0.395724 0.574607
O11   O     O_R   0.502510 0.767000 0.423980 -0.529232
O12   O     O_R   0.288320 0.026340 0.429250 -0.527057
C6    C     C_R   0.239756 0.141645 0.402860 0.541807
Cr1   Cr    Cr6+3 0.404720 0.198220 0.499960 1.033001
Cr2   Cr    Cr6+3 0.698290 0.897110 0.500380 1.013906
Cr3   Cr    Cr6+3 0.396970 0.904720 0.499610 1.003076
O13   O     O_3   0.499990 0.000020 0.499980 -0.272223
C7    C     C_1   0.669879 0.646979 0.860344 0.009029
C8    C     C_1   0.655467 0.683375 0.728378 -0.030898
C9    C     C_1   0.663394 0.666910 0.799783 -0.028361
C10   C     C_1   0.642213 0.703306 0.667792 0.002971
C11   C     C_1   0.127244 0.198142 0.859479 0.010388
C12   C     C_1   0.171092 0.170538 0.727593 -0.030120
C13   C     C_1   0.150370 0.181872 0.798962 -0.028188
C14   C     C_1   0.194633 0.161529 0.667137 0.004668
C15   C     C_1   0.677889 0.190879 0.861027 0.009925
C16   C     C_1   0.658771 0.167604 0.728950 -0.030557
C17   C     C_1   0.665199 0.180833 0.800396 -0.028525
C18   C     C_1   0.653661 0.150141 0.668375 0.004142
C19   C     C_R   0.637617 0.708207 0.183167 0.002783
C20   C     C_R   0.516535 0.740350 0.215887 0.043265
C21   C     C_R   0.498676 0.774954 0.284331 -0.045238
C22   C     C_R   0.701785 0.785037 0.285324 -0.151137
C23   C     C_R   0.722878 0.746147 0.215675 -0.160101
C24   C     C_3   0.449300 0.658073 0.223604 0.121220
C25   C     C_3   0.438110 0.690313 0.299307 -0.246637
C26   C     C_R   0.594989 0.787371 0.321481 0.010250
H1    H     H_    0.775200 0.800103 0.312146 0.128689
H2    H     H_    0.812382 0.731989 0.190159 0.134706
H3    H     H_    0.514155 0.549908 0.212473 0.149171
H4    H     H_    0.334818 0.745322 0.320079 0.171139
H5    H     H_    0.508510 0.602404 0.329478 0.127472
C27   C     C_R   0.132336 0.207902 0.195192 0.054226
C28   C     C_R   0.098045 0.314333 0.241058 0.057789
C29   C     C_R   0.117109 0.293847 0.310851 0.019293
C30   C     C_R   0.206843 0.058608 0.291640 -0.160846
C31   C     C_R   0.189249 0.078606 0.220923 -0.147023
C32   C     C_3   0.964376 0.436071 0.250952 -0.258229
C33   C     C_3   0.982239 0.410145 0.327105 -0.291119
C34   C     C_R   0.172803 0.166092 0.337053 0.009059
H6    H     H_    0.249522 0.959527 0.311074 0.140288
H7    H     H_    0.214870 0.994624 0.186821 0.180351
H8    H     H_    0.880662 0.426023 0.228665 0.130485
H9    H     H_    0.967991 0.526493 0.236225 0.154800
H10   H     H_    0.987587 0.489590 0.357104 0.142994
H11   H     H_    0.912427 0.379549 0.348588 0.137853
C35   C     C_R   0.687304 0.196412 0.199829 0.004132
C36   C     C_R   0.800874 0.127876 0.241155 -0.038186
C37   C     C_R   0.791542 0.114640 0.310213 -0.027573
C38   C     C_R   0.554100 0.274506 0.304954 -0.050923
C39   C     C_R   0.562075 0.273428 0.231871 0.155370
C40   C     C_3   0.920014 0.990837 0.234275 -0.204782
C41   C     C_3   0.913087 0.978949 0.311467 -0.249466
C42   C     C_R   0.666858 0.173075 0.341780 -0.026296
H12   H     H_    0.010703 0.992318 0.217208 0.182951
H13   H     H_    0.897399 0.921284 0.204810 0.165636
H14   H     H_    0.894224 0.898036 0.326443 0.149352
H15   H     H_    0.997678 0.979282 0.339066 0.140242
O14   O     O_R   0.821590 0.119350 0.952850 -0.500408
O15   O     O_R   0.037230 0.162540 0.957390 -0.488952
C43   C     C_R   0.082225 0.230856 0.928818 0.553344
O16   O     O_R   0.056530 0.344750 0.951370 -0.494055
O17   O     O_R   0.798000 0.560370 0.957490 -0.496321
C44   C     C_R   0.683602 0.604883 0.929710 0.544820
O18   O     O_R   0.596230 0.579400 0.952760 -0.490474
O19   O     O_R   0.639160 0.321170 0.958690 -0.486541
C45   C     C_R   0.707882 0.206345 0.930432 0.548305
O20   O     O_R   0.821370 0.124220 0.104400 -0.519843
O21   O     O_R   0.037020 0.167050 0.097880 -0.507461
C46   C     C_R   0.081164 0.237876 0.125901 0.560436
O22   O     O_R   0.056310 0.349620 0.102920 -0.478359
O23   O     O_R   0.797790 0.564880 0.097980 -0.512186
C47   C     C_R   0.679421 0.617804 0.123811 0.522409
O24   O     O_R   0.596000 0.584270 0.104310 -0.477134
O25   O     O_R   0.638950 0.325690 0.099180 -0.454069
C48   C     C_R   0.709478 0.211828 0.127788 0.570820
Cr4   Cr    Cr6+3 0.926290 0.152010 0.028150 1.065514
Cr5   Cr    Cr6+3 0.921440 0.451830 0.027490 1.065628
Cr6   Cr    Cr6+3 0.626370 0.446880 0.028730 1.125810
O26   O     O_3   0.824700 0.350240 0.028120 -0.287447
C49   C     C_R   0.439320 0.387933 0.342936 0.049801
C50   C     C_R   0.305083 0.445229 0.321309 -0.008868
C51   C     C_R   0.203446 0.557002 0.355425 -0.085504
C52   C     C_R   0.232732 0.609992 0.413355 -0.120052
C53   C     C_R   0.364187 0.552189 0.436985 -0.108892
C54   C     C_R   0.466778 0.443125 0.401806 -0.084839
H16   H     H_    0.276801 0.404381 0.278747 0.180092
H17   H     H_    0.101654 0.603175 0.336706 0.108296
H18   H     H_    0.153645 0.696209 0.439708 0.108651
H19   H     H_    0.387259 0.593673 0.481712 0.132553
H20   H     H_    0.568631 0.403350 0.419836 0.102008
N1    N     N_R   0.444144 0.324218 0.190314 0.050438
O27   O     O_R   0.403837 0.243023 0.168859 -0.346552
O28   O     O_R   0.389590 0.443381 0.165122 -0.284292
N2    N     N_R   0.319290 0.718751 0.188868 0.098119
O29   O     O_R   0.310716 0.752645 0.124805 -0.306937
O30   O     O_R   0.218804 0.715124 0.216816 -0.360467

loop_
_geom_bond_atom_site_label_1
_geom_bond_atom_site_label_2
_geom_bond_distance
_ccdc_geom_bond_type
C4    C42   1.464920 S    
O11   Cr3   2.050221 S    
C11   C13   1.200693 T    
C19   C20   1.405491 A    
C39   N1    1.431939 S    
O23   C47   1.285754 A    
O19   C45   1.275653 A    
C32   H9    1.108478 S    
O4    Cr2   1.929169 S    
C33   H10   1.108724 S    
C46   O22   1.263712 A    
O20   Cr4   2.046549 S    
O8    Cr1   1.930126 S    
C53   H19   1.082399 S    
C29   C33   1.493725 S    
C15   C45   1.423650 S    
C37   C41   1.493803 S    
C12   C13   1.404296 S    
C8    C10   1.199297 T    
C22   C26   1.409117 A    
O4    C2    1.273075 A    
C38   C42   1.438864 A    
O17   Cr5   1.923755 S    
C51   H17   1.081250 S    
C50   C51   1.398841 A    
O24   Cr6   2.048260 S    
O12   C6    1.275205 A    
C30   H6    1.070205 S    
O14   Cr4   2.040896 S    
C21   C26   1.386227 A    
C28   C29   1.380035 A    
N2    O29   1.301043 A    
O21   C46   1.275227 A    
C38   C49   1.506081 S    
O6    C3    1.275303 A    
C25   H4    1.107680 S    
C15   C17   1.199704 T    
C40   H13   1.112508 S    
C50   H16   1.074776 S    
C41   H14   1.103798 S    
C52   H18   1.082372 S    
Cr5   O26   1.981771 S    
C49   C54   1.413270 A    
C49   C50   1.409296 A    
N1    O28   1.298223 A    
O14   C45   1.268727 A    
C6    C34   1.448443 S    
O25   Cr6   1.927384 S    
C24   H3    1.109479 S    
C36   C40   1.496154 S    
O1    Cr1   2.048547 S    
C35   C39   1.405643 A    
C30   C31   1.396135 A    
O10   Cr2   1.928409 S    
C20   C24   1.505772 S    
Cr1   O13   1.986481 S    
O1    C3    1.270020 A    
C43   O16   1.268981 A    
O17   C44   1.271790 A    
C24   N2    1.465131 S    
C1    C18   1.423713 S    
C41   H15   1.111817 S    
C32   C33   1.509289 S    
Cr4   O26   1.986454 S    
O12   Cr3   1.923512 S    
C1    O3    1.269038 A    
C40   C41   1.517197 S    
C16   C18   1.199732 T    
C19   C23   1.404444 A    
O15   C43   1.275075 A    
C35   C36   1.399647 A    
O22   Cr5   2.039401 S    
C19   C47   1.459244 S    
C52   C53   1.393858 A    
O7    Cr1   2.038326 S    
N1    O27   1.301002 A    
C35   C48   1.456230 S    
O6    Cr3   1.933049 S    
C25   H5    1.106805 S    
C37   C42   1.388191 A    
C8    C9    1.402091 S    
C2    O5    1.267047 A    
C3    C14   1.425376 S    
O15   Cr4   1.930082 S    
C27   C28   1.398290 A    
Cr2   O13   1.980553 S    
C38   C39   1.425778 A    
O18   Cr6   2.045259 S    
C11   C43   1.425436 S    
C54   H20   1.083096 S    
C2    C10   1.422985 S    
C24   C25   1.505430 S    
O9    Cr2   2.045546 S    
O2    Cr1   1.922041 S    
C27   C46   1.444999 S    
C5    C26   1.455435 S    
C36   C37   1.366164 A    
C32   H8    1.112368 S    
C23   H2    1.082418 S    
C33   H11   1.112842 S    
O20   C48   1.259227 A    
C29   C34   1.387679 A    
C40   H12   1.106299 S    
C7    C44   1.423039 S    
C16   C17   1.402762 S    
C12   C14   1.200674 T    
O2    C1    1.272871 A    
C22   H1    1.075953 S    
O5    Cr3   2.042647 S    
O19   Cr6   1.930163 S    
O25   C48   1.285269 A    
C22   C23   1.406138 A    
O7    C6    1.270094 A    
C28   C32   1.490844 S    
O23   Cr5   1.932369 S    
O16   Cr5   2.049901 S    
C53   C54   1.397681 A    
C30   C34   1.402173 A    
C7    C9    1.199315 T    
C21   C25   1.490160 S    
Cr6   O26   1.980322 S    
N2    O30   1.301439 A    
C31   H7    1.081009 S    
C44   O18   1.267151 A    
O3    Cr2   2.045140 S    
C27   C31   1.398234 A    
C47   O24   1.257487 A    
C20   C21   1.372515 A    
C51   C52   1.394048 A    
O10   C5    1.301578 A    
O21   Cr4   1.922374 S    
C4    O9    1.286998 A    
Cr3   O13   1.981430 S    
C5    O11   1.302458 A    
O8    C4    1.261617 A    
