data_mof_unit_61566.cif
_audit_creation_date              2012-12-11T14:24:20-0500
_audit_creation_method            fapswitch 2.2
_symmetry_space_group_name_H-M    P1
_symmetry_Int_Tables_number       1
_space_group_crystal_system       triclinic
_cell_length_a                    6.949894
_cell_length_b                    17.46847
_cell_length_c                    18.895783
_cell_angle_alpha                 105.21546
_cell_angle_beta                  89.857717
_cell_angle_gamma                 90.542614
_cell_volume                      2213.50928093

loop_
_atom_site_label
_atom_site_type_symbol
_atom_type_description
_atom_site_fract_x
_atom_site_fract_y
_atom_site_fract_z
_atom_type_partial_charge
O1    O     O_R   0.494360 0.416740 0.414860 -0.512056
O2    O     O_R   0.818980 0.432970 0.557290 -0.530434
O3    O     O_R   0.994290 0.583260 0.585140 -0.510628
C1    C     C_R   0.650050 0.415948 0.580627 0.718548
O4    O     O_R   0.823740 0.407570 0.413690 -0.543785
O5    O     O_R   0.999090 0.557670 0.440510 -0.525817
C2    C     C_R   0.653450 0.382358 0.389389 0.755085
O6    O     O_R   0.489560 0.442330 0.559490 -0.522742
O7    O     O_3   0.662450 0.549280 0.508970 -0.358695
V1    V     V_3+5 0.935350 0.490860 0.498340 1.533143
O8    O     O_R   0.329100 0.567030 0.442710 -0.528918
C3    C     C_R   0.160889 0.584066 0.419381 0.720737
O9    O     O_R   0.324330 0.592430 0.586310 -0.552730
C4    C     C_R   0.154982 0.616698 0.611686 0.664598
V2    V     V_3+5 0.435960 0.509140 0.501660 1.526574
O10   O     O_3   0.158990 0.450720 0.491030 -0.349505
C5    C     C_2   0.262725 0.790287 0.781857 -0.123018
C6    C     C_2   0.113768 0.808252 0.829279 0.288034
H1    H     H_    0.385407 0.830497 0.788285 0.130846
C7    C     C_2   0.274362 0.715172 0.722517 -0.123251
C8    C     C_2   0.139516 0.691859 0.669744 0.287412
H2    H     H_    0.402225 0.679500 0.720982 0.139022
C9    C     C_1   0.110821 0.863972 0.132687 -0.180289
C10   C     C_1   0.118366 0.821413 0.176255 0.025954
C11   C     C_1   0.127809 0.771196 0.228143 0.021823
C12   C     C_1   0.135876 0.728903 0.271934 0.021282
C13   C     C_1   0.145325 0.678671 0.323808 0.024048
C14   C     C_1   0.152883 0.636082 0.367352 -0.182174
C15   C     C_1   0.641482 0.364003 0.632652 -0.179830
C16   C     C_1   0.637060 0.321417 0.676222 0.022741
C17   C     C_1   0.633270 0.271187 0.728118 0.021006
C18   C     C_1   0.630383 0.228879 0.771939 0.020890
C19   C     C_1   0.626601 0.178650 0.823837 0.022212
C20   C     C_1   0.622197 0.136066 0.867408 -0.179688
C21   C     C_2   0.766288 0.210098 0.220726 0.294660
C22   C     C_2   0.619058 0.190834 0.171782 0.109934
C23   C     C_2   0.769789 0.285803 0.279133 -0.143027
C24   C     C_2   0.636773 0.305575 0.333030 -0.193112
H3    H     H_    0.891055 0.325464 0.278919 0.175503
O11   O     O_R   0.774180 0.057760 0.940580 -0.528827
O12   O     O_R   0.439830 0.092440 0.086330 -0.504286
O13   O     O_R   0.264640 0.942310 0.059470 -0.528689
C25   C     C_R   0.609482 0.116201 0.112400 0.760305
O14   O     O_R   0.444740 0.067040 0.942730 -0.529571
O15   O     O_R   0.269590 0.916730 0.914840 -0.558906
C26   C     C_R   0.613665 0.084111 0.919428 0.708163
O16   O     O_R   0.769230 0.083340 0.085210 -0.519634
O17   O     O_3   0.601340 0.950770 0.991070 -0.368948
V3    V     V_3+5 0.328370 0.009130 0.001660 1.544702
O18   O     O_R   0.939550 0.907490 0.913620 -0.513386
C27   C     C_R   0.108275 0.883223 0.888183 0.652234
O19   O     O_R   0.934640 0.932890 0.057220 -0.522536
C28   C     C_R   0.102834 0.915938 0.080618 0.751263
V4    V     V_3+5 0.827780 0.990750 0.998250 1.552965
O20   O     O_3   0.104690 0.049230 0.008930 -0.344858
Cl1   Cl    Cl    0.926302 0.738815 0.829163 -0.596622
Cl2   Cl    Cl    0.944945 0.754004 0.662279 -0.591363
Cl3   Cl    Cl    0.965130 0.147647 0.219663 -0.606423
Cl4   Cl    Cl    0.430703 0.258881 0.172856 -0.613102
C29   C     C_2   0.480479 0.248908 0.340731 0.498314
H4    H     H_    0.472522 0.189666 0.304188 0.085869
O21   O     O_2   0.360001 0.267289 0.389240 -0.511018

loop_
_geom_bond_atom_site_label_1
_geom_bond_atom_site_label_2
_ccdc_geom_bond_type
O14   V3    S    
O5    V1    S    
O2    C1    A    
O8    C3    A    
C8    Cl2   S    
C23   C24   D    
O1    V2    S    
O15   V3    S    
O7    V1    S    
O11   V4    S    
C1    C15   S    
C6    Cl1   S    
C9    C10   T    
C22   Cl4   S    
V3    O20   S    
C18   C19   S    
C7    C8    D    
O9    V2    S    
C5    C6    D    
O7    V2    S    
O19   V4    S    
O4    V1    S    
C23   H3    S    
O3    V1    S    
O18   V4    S    
O9    C4    A    
C10   C11   S    
O11   C26   A    
O12   C25   A    
C12   C13   S    
C15   C16   T    
O3    C4    A    
C25   O16   A    
C3    C14   S    
C21   Cl3   S    
C20   C26   S    
C4    C8    S    
O12   V3    S    
O17   V3    S    
C5    H1    S    
C2    C24   S    
O14   C26   A    
C6    C27   S    
C9    C28   S    
O6    V2    S    
O4    C2    A    
O16   V4    S    
O13   C28   A    
O5    C3    A    
C16   C17   S    
C24   C29   S    
O15   C27   A    
O13   V3    S    
V2    O10   S    
O2    V1    S    
C13   C14   T    
C5    C7    S    
C19   C20   T    
O19   C28   A    
C29   O21   D    
C1    O6    A    
O17   V4    S    
V4    O20   S    
C22   C25   S    
V1    O10   S    
O18   C27   A    
C21   C23   S    
C11   C12   T    
O1    C2    A    
O8    V2    S    
C17   C18   T    
C21   C22   D    
C7    H2    S    
C29   H4    S    
