data_mof_unit_48357.cif
_audit_creation_date              2013-03-05T15:46:22-0500
_audit_creation_method            fapswitch 2.2
_symmetry_space_group_name_H-M    P1
_symmetry_Int_Tables_number       1
_space_group_crystal_system       triclinic
_cell_length_a                    10.996573
_cell_length_b                    11.039464
_cell_length_c                    18.677199
_cell_angle_alpha                 90.331305
_cell_angle_beta                  90.902882
_cell_angle_gamma                 58.89145
_cell_volume                      1941.02741838

loop_
_atom_site_label
_atom_site_type_symbol
_atom_site_description
_atom_site_fract_x
_atom_site_fract_y
_atom_site_fract_z
_atom_type_partial_charge
O1    O     O_R   0.748800 0.497470 0.428000 -0.517114
O2    O     O_R   0.476420 0.724060 0.429470 -0.493361
C1    C     C_R   0.357897 0.770721 0.396972 0.549636
O3    O     O_R   0.264580 0.744340 0.416750 -0.546718
O4    O     O_R   0.309380 0.472470 0.418200 -0.541087
C2    C     C_R   0.379351 0.352411 0.389023 0.541275
O5    O     O_R   0.501710 0.260430 0.414300 -0.460031
O6    O     O_R   0.728090 0.305600 0.428960 -0.448189
C3    C     C_R   0.779874 0.377322 0.404064 0.536751
O7    O     O_R   0.738760 0.495930 0.588610 -0.494479
O8    O     O_R   0.467110 0.722640 0.578360 -0.482347
C4    C     C_R   0.343793 0.771778 0.603727 0.607228
O9    O     O_R   0.254530 0.742800 0.577360 -0.444331
O10   O     O_R   0.300070 0.471040 0.567100 -0.463059
C5    C     C_R   0.364582 0.347630 0.592969 0.591828
O11   O     O_R   0.491670 0.258900 0.574910 -0.442630
O12   O     O_R   0.718780 0.304180 0.577850 -0.444203
C6    C     C_R   0.763351 0.376052 0.610195 0.589827
Cr1   Cr    Cr6+3 0.601770 0.606860 0.505860 1.110376
Cr2   Cr    Cr6+3 0.291380 0.601660 0.495070 1.080776
Cr3   Cr    Cr6+3 0.606880 0.291510 0.499120 1.169158
O13   O     O_3   0.500010 0.500010 0.500020 -0.302731
C7    C     C_R   0.857402 0.881127 0.103865 -0.149889
C8    C     C_R   0.872097 0.966565 0.153733 -0.070224
C9    C     C_R   0.758453 0.058638 0.198352 0.224805
C10   C     C_R   0.619425 0.081509 0.183163 0.018377
H1    H     H_    0.515678 0.116797 0.313762 0.170388
C11   C     C_R   0.369563 0.319140 0.165474 -0.013592
C12   C     C_R   0.446442 0.209407 0.281549 -0.112577
C13   C     C_R   0.478107 0.206534 0.209523 -0.009073
C14   C     C_R   0.051284 0.659331 0.345248 -0.079592
C15   C     C_R   0.910070 0.758737 0.362210 0.100189
C16   C     C_R   0.618678 0.973850 0.143594 -0.101186
C17   C     C_R   0.732058 0.880254 0.101081 -0.124428
C18   C     C_R   0.261998 0.441690 0.197836 -0.167849
C19   C     C_R   0.237375 0.448700 0.271327 -0.036778
C20   C     C_R   0.799918 0.760006 0.323871 0.009278
C21   C     C_R   0.831097 0.664911 0.267442 0.097414
C22   C     C_R   0.973038 0.566660 0.251558 -0.080380
C23   C     C_R   0.086637 0.556024 0.292691 -0.026680
C24   C     C_R   0.341112 0.333845 0.314944 -0.008685
H2    H     H_    0.722764 0.806161 0.066621 0.121035
H3    H     H_    0.946437 0.808400 0.071387 0.121491
H4    H     H_    0.976076 0.953127 0.161032 0.187218
H5    H     H_    0.130520 0.670153 0.370362 0.196536
H6    H     H_    0.527181 0.966323 0.143379 0.161877
H7    H     H_    0.183735 0.526814 0.163940 0.130880
H8    H     H_    0.690761 0.836220 0.337177 0.130686
H9    H     H_    0.994821 0.500414 0.205284 0.142447
C25   C     C_R   0.977731 0.284087 0.318672 -0.074700
H10   H     H_    0.054706 0.252362 0.362133 0.112378
C26   C     C_R   0.022302 0.263879 0.247988 -0.114412
H11   H     H_    0.132691 0.222060 0.237173 0.088277
C27   C     C_R   0.922578 0.308426 0.191663 0.042475
C28   C     C_R   0.777900 0.372746 0.205600 -0.064103
H12   H     H_    0.700166 0.408013 0.162301 0.117466
C29   C     C_R   0.733136 0.395061 0.275946 -0.020686
H13   H     H_    0.620748 0.446778 0.286705 0.110446
C30   C     C_R   0.833086 0.347618 0.332275 0.109608
C31   C     C_R   0.356442 0.705502 0.273131 -0.115324
H14   H     H_    0.358994 0.611297 0.291200 0.117900
C32   C     C_R   0.355309 0.729129 0.200474 -0.128696
H15   H     H_    0.351076 0.656655 0.162582 0.110059
C33   C     C_R   0.351795 0.850497 0.177272 0.028900
C34   C     C_R   0.350550 0.947159 0.226912 -0.155622
H16   H     H_    0.340411 0.044738 0.209163 0.098514
C35   C     C_R   0.354123 0.922429 0.299805 -0.140424
H17   H     H_    0.352656 0.997478 0.337938 0.111123
C36   C     C_R   0.353490 0.803174 0.322490 0.062785
C37   C     C_R   0.384001 0.187709 0.690237 0.153335
C38   C     C_R   0.380454 0.180056 0.764149 -0.142359
H18   H     H_    0.444773 0.077468 0.789427 0.191872
C39   C     C_R   0.293545 0.301261 0.805205 -0.082732
C40   C     C_R   0.196586 0.427290 0.770871 -0.156998
H19   H     H_    0.118980 0.516512 0.801843 0.179292
C41   C     C_R   0.198010 0.437330 0.696304 0.146074
C42   C     C_R   0.305435 0.321085 0.657077 -0.006190
C43   C     C_R   0.689387 0.365772 0.732133 0.100546
C44   C     C_R   0.717251 0.349878 0.805471 -0.127424
H20   H     H_    0.634101 0.370001 0.842623 0.109160
C45   C     C_R   0.851475 0.313160 0.830243 0.024561
C46   C     C_R   0.960148 0.287065 0.782927 -0.125551
H21   H     H_    0.065204 0.256004 0.802904 0.125088
C47   C     C_R   0.932851 0.304837 0.710106 -0.112325
H22   H     H_    0.015775 0.289127 0.673860 0.150328
C48   C     C_R   0.797784 0.344369 0.684785 0.118840
C49   C     C_R   0.183410 0.901411 0.704873 0.203887
C50   C     C_R   0.171093 0.910236 0.779009 -0.110295
H23   H     H_    0.066175 0.968554 0.801970 0.177731
C51   C     C_R   0.292567 0.854850 0.823357 -0.023865
C52   C     C_R   0.427257 0.791410 0.793992 -0.166945
H24   H     H_    0.521207 0.752913 0.827767 0.148427
C53   C     C_R   0.441398 0.777750 0.720730 -0.139215
H25   H     H_    0.547997 0.720410 0.699712 0.194284
C54   C     C_R   0.320736 0.828062 0.675825 0.034831
O14   O     O_R   0.186690 0.923650 0.086970 -0.525890
O15   O     O_R   0.957250 0.194250 0.084630 -0.493924
C55   C     C_R   0.969573 0.290607 0.118521 0.534736
O16   O     O_R   0.934970 0.407490 0.085330 -0.531465
O17   O     O_R   0.203780 0.365190 0.067090 -0.516782
C56   C     C_R   0.332029 0.292381 0.093005 0.534401
O18   O     O_R   0.417600 0.174890 0.067840 -0.515741
O19   O     O_R   0.375320 0.946260 0.070860 -0.532050
C57   C     C_R   0.309554 0.897455 0.104656 0.532320
O20   O     O_R   0.160600 0.919630 0.926660 -0.515123
O21   O     O_R   0.933060 0.190520 0.936020 -0.491719
C58   C     C_R   0.882398 0.309740 0.905037 0.542658
O22   O     O_R   0.908880 0.403460 0.925020 -0.509410
O23   O     O_R   0.179600 0.361450 0.918490 -0.498260
C59   C     C_R   0.290740 0.283038 0.882363 0.556174
O24   O     O_R   0.391510 0.170860 0.907530 -0.510684
O25   O     O_R   0.351130 0.942530 0.922260 -0.502865
C60   C     C_R   0.274284 0.895674 0.897601 0.543922
Cr4   Cr    Cr6+3 0.062440 0.063090 0.008210 1.018755
Cr5   Cr    Cr6+3 0.062880 0.375170 0.998920 1.006207
Cr6   Cr    Cr6+3 0.374700 0.061720 0.992470 1.008516
O26   O     O_3   0.166667 0.166667 0.999870 -0.268805
N1    N     N_3   0.719955 0.663898 0.227090 -0.643674
H26   H     H_    0.622837 0.753009 0.239529 0.231210
H27   H     H_    0.736477 0.670337 0.172775 0.238260
N2    N     N_R   0.471060 0.061014 0.649772 0.097649
O27   O     O_R   0.429403 0.045471 0.586576 -0.323391
O28   O     O_R   0.586549 0.956387 0.677935 -0.297541
N3    N     N_R   0.090332 0.564514 0.661383 0.102596
O29   O     O_R   0.032054 0.556513 0.601737 -0.312773
O30   O     O_R   0.033801 0.685244 0.694543 -0.279825
N4    N     N_3   0.550065 0.408006 0.705888 -0.609011
H28   H     H_    0.526952 0.332875 0.723839 0.243059
H29   H     H_    0.477702 0.504311 0.729638 0.215444
N5    N     N_R   0.057333 0.969463 0.660217 0.096308
O31   O     O_R   0.058648 0.024009 0.598839 -0.339754
O32   O     O_R   0.936405 0.994174 0.684676 -0.275500
N6    N     N_3   0.878012 0.859994 0.417901 -0.561847
H30   H     H_    0.924578 0.804498 0.465432 0.260844
H31   H     H_    0.926262 0.917642 0.405718 0.288017
N7    N     N_R   0.796076 0.100755 0.264103 0.047998
O33   O     O_R   0.929548 0.048269 0.280799 -0.380043
O34   O     O_R   0.704927 0.161991 0.314500 -0.351577

loop_
_geom_bond_atom_site_label_1
_geom_bond_atom_site_label_2
_geom_bond_distance
_ccdc_geom_bond_type
C49   C50   1.391321 A    
C45   C58   1.428583 S    
C53   H25   1.083407 S    
H1    C12   1.084080 S    
C39   C40   1.392712 A    
C18   C19   1.397211 A    
C17   H2    1.082566 S    
O25   Cr6   1.959541 S    
C28   H12   1.083620 S    
C18   H7    1.085612 S    
C45   C46   1.402385 A    
C51   C52   1.390794 A    
C39   C59   1.459224 S    
O4    Cr2   1.956539 S    
C14   C23   1.398660 A    
C4    O9    1.271138 A    
O8    Cr1   1.935828 S    
C56   O18   1.238708 A    
C40   C41   1.398708 A    
O21   Cr4   1.927284 S    
C25   C30   1.394415 A    
C49   N5    1.441091 S    
O20   C60   1.267054 A    
C1    C36   1.432345 S    
C47   C48   1.389461 A    
O2    C1    1.271772 A    
O16   Cr5   2.063180 S    
O4    C2    1.263615 A    
C29   C30   1.401532 A    
O21   C58   1.272170 A    
C5    O11   1.273902 A    
C55   O16   1.299418 A    
O15   C55   1.299629 A    
C7    H3    1.082580 S    
Cr6   O26   1.965741 S    
C31   C32   1.381991 A    
C51   C60   1.440252 S    
C9    N7    1.439314 S    
N1    H26   1.040111 S    
C32   C33   1.391814 A    
C59   O24   1.246913 A    
C11   C56   1.481029 S    
C11   C18   1.397951 A    
O6    C3    1.282924 A    
Cr5   O26   1.971369 S    
C2    C24   1.483436 S    
C49   C54   1.409845 A    
C25   C26   1.391712 A    
C7    C8    1.387738 A    
C4    C54   1.449815 S    
C37   C38   1.385927 A    
C12   C13   1.390981 A    
C43   C48   1.413680 A    
C8    C9    1.414153 A    
C53   C54   1.407575 A    
Cr3   O13   1.970884 S    
C37   C42   1.406122 A    
C16   H6    1.051442 S    
O14   Cr4   2.046906 S    
C19   C24   1.435507 A    
O17   Cr5   1.948588 S    
C43   N4    1.430296 S    
O25   C60   1.276885 A    
C26   C27   1.401239 A    
O6    Cr3   1.946682 S    
C21   C22   1.400805 A    
O1    Cr1   2.055091 S    
C40   H19   1.083264 S    
C35   H17   1.083352 S    
C41   N3    1.437758 S    
O10   Cr2   1.942756 S    
O20   Cr4   2.061720 S    
C19   C23   1.515463 S    
Cr1   O13   2.003512 S    
O1    C3    1.267083 A    
C41   C42   1.424438 A    
N7    O34   1.292224 A    
C52   H24   1.083866 S    
C38   C39   1.407681 A    
C43   C44   1.390998 A    
C34   C35   1.386038 A    
C9    C10   1.438693 A    
O5    Cr3   2.076276 S    
O12   Cr3   1.953055 S    
C31   H14   1.081586 S    
C35   C36   1.388805 A    
O3    Cr2   2.059369 S    
N5    O32   1.301648 A    
N4    H29   1.044861 S    
C20   C21   1.398950 A    
C52   C53   1.378173 A    
C10   C16   1.399469 A    
C14   C15   1.402370 A    
O7    Cr1   2.049371 S    
C58   O22   1.264111 A    
C7    C17   1.383519 A    
C32   H15   1.083539 S    
O12   C6    1.273448 A    
C25   H10   1.083217 S    
C6    C48   1.434826 S    
C15   C20   1.391192 A    
C47   H22   1.083783 S    
C20   H8    1.083467 S    
N2    O27   1.301655 A    
O24   Cr6   2.064973 S    
C22   H9    1.075817 S    
Cr2   O13   1.966079 S    
C10   C13   1.536957 S    
C46   C47   1.381227 A    
C28   C29   1.385855 A    
N6    H30   1.045674 S    
C8    H4    1.080746 S    
N4    H28   1.043388 S    
C22   C23   1.408444 A    
C26   H11   1.074732 S    
O22   Cr5   2.062832 S    
N3    O30   1.301084 A    
C33   C57   1.436443 S    
C27   C28   1.395247 A    
O9    Cr2   2.072108 S    
C12   C24   1.409409 A    
O2    Cr1   1.930325 S    
C50   C51   1.404032 A    
N7    O33   1.302348 A    
O8    C4    1.270750 A    
O11   Cr3   2.066915 S    
C2    O5    1.279889 A    
C15   N6    1.430608 S    
C44   C45   1.385415 A    
C33   C34   1.404405 A    
O14   C57   1.265498 A    
N5    O31   1.301710 A    
C38   H18   1.083382 S    
O23   C59   1.274486 A    
C37   N2    1.439059 S    
C29   H13   1.082191 S    
C5    C42   1.472464 S    
C31   C36   1.402435 A    
O7    C6    1.272771 A    
C11   C13   1.447240 A    
O17   C56   1.296499 A    
C16   C17   1.393944 A    
O19   Cr6   1.944373 S    
C34   H16   1.077764 S    
N1    H27   1.042681 S    
N2    O28   1.301479 A    
Cr4   O26   2.001802 S    
O18   Cr6   2.081529 S    
O23   Cr5   1.945313 S    
C44   H20   1.084076 S    
C21   N1    1.430680 S    
C50   H23   1.083683 S    
C46   H21   1.081654 S    
C14   H5    1.042849 S    
O19   C57   1.277771 A    
N6    H31   1.045318 S    
O10   C5    1.261309 A    
C27   C55   1.444316 S    
C3    C30   1.438426 S    
O15   Cr4   1.941445 S    
C1    O3    1.263448 A    
N3    O29   1.301686 A    
