data_mof_unit_60073.cif
_audit_creation_date              2012-12-11T15:59:41-0500
_audit_creation_method            fapswitch 2.2
_symmetry_space_group_name_H-M    P1
_symmetry_Int_Tables_number       1
_space_group_crystal_system       triclinic
_cell_length_a                    6.959376
_cell_length_b                    20.133461
_cell_length_c                    21.727316
_cell_angle_alpha                 92.833857
_cell_angle_beta                  89.129766
_cell_angle_gamma                 90.571561
_cell_volume                      3040.14831353

loop_
_atom_site_label
_atom_site_type_symbol
_atom_type_description
_atom_site_fract_x
_atom_site_fract_y
_atom_site_fract_z
_atom_type_partial_charge
O1    O     O_R   0.505910 0.557140 0.441630 -0.518967
O2    O     O_R   0.175760 0.566370 0.557960 -0.522687
O3    O     O_R   0.005440 0.442860 0.558370 -0.531072
C1    C     C_R   0.344340 0.584117 0.580694 0.718635
O4    O     O_R   0.176200 0.564760 0.442040 -0.520466
O5    O     O_R   0.005880 0.441250 0.441620 -0.519876
C2    C     C_R   0.346889 0.582505 0.419591 0.702813
O6    O     O_R   0.505470 0.558750 0.558380 -0.518754
O7    O     O_3   0.339200 0.459480 0.500000 -0.354011
V1    V     V_3+5 0.064350 0.507520 0.500000 1.412760
O8    O     O_R   0.676160 0.433630 0.442040 -0.522793
C3    C     C_R   0.845510 0.415472 0.419861 0.716905
O9    O     O_R   0.675730 0.435240 0.557960 -0.531548
C4    C     C_R   0.842904 0.420300 0.577494 0.740684
V2    V     V_3+5 0.564340 0.492480 0.500000 1.416589
O10   O     O_3   0.839360 0.540520 0.500000 -0.356617
C5    C     C_3   0.086976 0.268632 0.715552 -0.493608
C6    C     C_3   0.805317 0.323778 0.773732 0.277203
C7    C     C_3   0.814329 0.272916 0.825484 -0.023473
H1    H     H_    0.181345 0.255710 0.806478 0.155239
H2    H     H_    0.180925 0.313400 0.722267 0.160183
H3    H     H_    0.907423 0.365945 0.784188 0.075624
H4    H     H_    0.665840 0.262175 0.842403 0.182894
C8    C     C_1   0.929168 0.120195 0.884582 -0.152990
C9    C     C_3   0.873973 0.289760 0.711145 0.148640
C10   C     C_3   0.108154 0.223735 0.770718 0.333588
C11   C     C_3   0.905143 0.206778 0.798751 0.074019
C12   C     C_3   0.763482 0.178828 0.748880 -0.427767
C13   C     C_3   0.750077 0.226956 0.696181 -0.317802
C14   C     C_1   0.920282 0.159747 0.846147 0.038803
C15   C     C_1   0.858233 0.335447 0.662604 -0.015334
C16   C     C_1   0.849131 0.373939 0.623255 -0.197179
H5    H     H_    0.800336 0.201647 0.652242 0.133538
H6    H     H_    0.597262 0.240711 0.689936 0.202902
H7    H     H_    0.800494 0.128330 0.730357 0.137314
H8    H     H_    0.136114 0.243381 0.671594 0.175549
H9    H     H_    0.618318 0.173005 0.770158 0.217828
C17   C     C_1   0.921650 0.130507 0.138366 -0.197373
C18   C     C_1   0.910198 0.173870 0.181141 0.013572
C19   C     C_1   0.895593 0.225053 0.232008 0.009050
C20   C     C_1   0.883057 0.268182 0.274954 0.006062
C21   C     C_1   0.868454 0.319359 0.325826 0.004696
C22   C     C_1   0.857004 0.362712 0.368610 -0.211611
C23   C     C_1   0.354766 0.635353 0.633704 -0.218220
C24   C     C_1   0.366662 0.676959 0.678156 0.001466
C25   C     C_1   0.382489 0.725925 0.731192 -0.001940
C26   C     C_1   0.396174 0.767099 0.775927 -0.001469
C27   C     C_1   0.412000 0.816079 0.828952 0.002195
C28   C     C_1   0.423898 0.857709 0.873386 -0.217451
C29   C     C_1   0.360447 0.633877 0.368143 -0.206291
C30   C     C_1   0.371287 0.675728 0.325703 0.014874
C31   C     C_1   0.384134 0.725698 0.274794 0.000130
C32   C     C_1   0.394841 0.767424 0.232242 -0.000245
C33   C     C_1   0.407679 0.817394 0.181333 0.013718
C34   C     C_1   0.418495 0.859246 0.138893 -0.206808
O11   O     O_R   0.273200 0.934350 0.948680 -0.520590
O12   O     O_R   0.602630 0.928390 0.064980 -0.521815
O13   O     O_R   0.772790 0.051930 0.065390 -0.519985
C35   C     C_R   0.431974 0.910623 0.087448 0.697653
O14   O     O_R   0.602920 0.926780 0.949060 -0.523833
O15   O     O_R   0.773080 0.050310 0.948640 -0.530320
C36   C     C_R   0.434331 0.908987 0.926362 0.716102
O16   O     O_R   0.272900 0.935970 0.065430 -0.521177
O17   O     O_3   0.439420 0.033650 0.007040 -0.348929
V3    V     V_3+5 0.714330 0.985650 0.007020 1.422769
O18   O     O_R   0.102790 0.057980 0.949020 -0.528366
C37   C     C_R   0.935565 0.072957 0.929553 0.741843
O19   O     O_R   0.102500 0.059590 0.064940 -0.521462
C38   C     C_R   0.933152 0.077734 0.087129 0.723998
V4    V     V_3+5 0.214320 0.000760 0.006970 1.437735
O20   O     O_3   0.939360 0.952680 0.006990 -0.360276
O21   O     O_3   0.239566 0.170402 0.760011 -0.555613
C39   C     C_3   0.174716 0.118488 0.719225 0.131680
H10   H     H_    0.090194 0.136110 0.680472 0.116947
H11   H     H_    0.088645 0.082336 0.745363 0.123199
C40   C     C_3   0.347987 0.081876 0.691486 -0.759476
H12   H     H_    0.435806 0.062090 0.728601 0.222653
H13   H     H_    0.299367 0.039758 0.660438 0.182366
H14   H     H_    0.437740 0.116222 0.664459 0.220594
O22   O     O_3   0.613348 0.345862 0.767890 -0.554955
C41   C     C_3   0.580851 0.404392 0.804911 0.104928
H15   H     H_    0.668418 0.446309 0.787584 0.118501
H16   H     H_    0.616067 0.397028 0.853893 0.174411
C42   C     C_3   0.369834 0.422686 0.801954 -0.698845
H17   H     H_    0.279016 0.382202 0.820034 0.242659
H18   H     H_    0.342982 0.469140 0.830321 0.191462
H19   H     H_    0.329957 0.430593 0.753570 0.208974
Br1   Br    Br    0.946423 0.311638 0.897943 -0.613953

loop_
_geom_bond_atom_site_label_1
_geom_bond_atom_site_label_2
_ccdc_geom_bond_type
C9    C15   S    
C34   C35   S    
C10   O21   S    
C20   C21   S    
O2    C1    A    
C40   H14   S    
C1    O6    A    
C41   H15   S    
C24   C25   S    
C23   C24   T    
C10   C11   S    
C5    C10   S    
C12   C13   S    
C40   H13   S    
C3    C22   S    
O5    C3    A    
C17   C18   T    
O12   C35   A    
V2    O10   S    
C13   H5    S    
O14   C36   A    
C6    C7    S    
C39   H10   S    
C8    C37   S    
C25   C26   T    
O8    V2    S    
C26   C27   S    
C12   H7    S    
O19   C38   A    
C42   H19   S    
V4    O20   S    
O1    V2    S    
C5    H8    S    
O17   V4    S    
C7    C11   S    
O7    V1    S    
O18   C37   A    
C17   C38   S    
O1    C2    A    
O9    C4    A    
C11   C14   S    
C39   H11   S    
C6    C9    S    
C41   H16   S    
C9    C13   S    
C30   C31   S    
C40   H12   S    
C7    Br1   S    
O12   V3    S    
C18   C19   S    
O4    C2    A    
O22   C41   S    
C1    C23   S    
V3    O20   S    
C13   H6    S    
C5    H2    S    
C7    H4    S    
O15   C37   A    
O13   V3    S    
C15   C16   T    
O16   V4    S    
C29   C30   T    
C42   H17   S    
O3    C4    A    
C6    O22   S    
C19   C20   T    
O14   V3    S    
O6    V2    S    
O11   V4    S    
O9    V2    S    
C39   C40   S    
O11   C36   A    
C21   C22   T    
O2    V1    S    
C41   C42   S    
C31   C32   T    
C33   C34   T    
C27   C28   T    
C28   C36   S    
C6    H3    S    
C2    C29   S    
C4    C16   S    
O21   C39   S    
O5    V1    S    
O8    C3    A    
O13   C38   A    
C32   C33   S    
C35   O16   A    
C5    C9    S    
O17   V3    S    
O7    V2    S    
O4    V1    S    
O3    V1    S    
V1    O10   S    
O18   V4    S    
H1    C10   S    
C12   H9    S    
C8    C14   T    
O15   V3    S    
O19   V4    S    
C11   C12   S    
C42   H18   S    
