data_mof_unit_21749.cif
_audit_creation_date              2012-12-11T14:13:31-0500
_audit_creation_method            fapswitch 2.2
_symmetry_space_group_name_H-M    P1
_symmetry_Int_Tables_number       1
_space_group_crystal_system       triclinic
_cell_length_a                    17.382327
_cell_length_b                    17.403106
_cell_length_c                    17.229329
_cell_angle_alpha                 90.063383
_cell_angle_beta                  90.029254
_cell_angle_gamma                 89.972292
_cell_volume                      5211.9791801

loop_
_atom_site_label
_atom_site_type_symbol
_atom_type_description
_atom_site_fract_x
_atom_site_fract_y
_atom_site_fract_z
_atom_type_partial_charge
C1    C     C_R   0.606495 0.303191 0.097633 0.714518
C2    C     C_R   0.167288 0.077929 0.645383 0.664272
C3    C     C_R   0.892641 0.196592 0.597472 0.724898
C4    C     C_R   0.830326 0.921317 0.643447 0.696984
C5    C     C_R   0.106351 0.196817 0.402406 0.714828
C6    C     C_R   0.167126 0.922139 0.354550 0.664455
C7    C     C_R   0.892530 0.803278 0.403008 0.713973
C8    C     C_R   0.831219 0.078048 0.355801 0.657013
C9    C     C_R   0.578075 0.668663 0.144855 0.083419
C10   C     C_R   0.303053 0.606253 0.100302 0.195605
C11   C     C_R   0.421204 0.331915 0.145065 0.091803
C12   C     C_R   0.667284 0.577927 0.145386 0.664261
C13   C     C_R   0.696722 0.392413 0.100116 0.203134
C14   C     C_R   0.577935 0.331490 0.855042 0.084654
C15   C     C_R   0.302620 0.393097 0.901971 0.196951
C16   C     C_R   0.421376 0.668052 0.854881 0.087812
C17   C     C_R   0.696668 0.607599 0.899928 0.203687
C18   C     C_R   0.078076 0.168665 0.644854 0.083470
C19   C     C_R   0.803049 0.106253 0.600290 0.195631
C20   C     C_R   0.921203 0.831916 0.645066 0.091836
C21   C     C_R   0.196723 0.892413 0.600112 0.203162
C22   C     C_R   0.077925 0.831485 0.355048 0.084498
C23   C     C_R   0.392644 0.696591 0.097477 0.724923
C24   C     C_R   0.802621 0.893098 0.401963 0.196934
C25   C     C_R   0.921376 0.168054 0.354882 0.087803
C26   C     C_R   0.196666 0.107597 0.399920 0.203619
C27   C     C_R   0.681805 0.316000 0.116130 -0.148403
C28   C     C_R   0.635624 0.635805 0.190125 -0.104431
C29   C     C_R   0.317114 0.682943 0.115704 -0.187341
C30   C     C_R   0.362247 0.364295 0.188968 -0.132826
C31   C     C_R   0.681635 0.684024 0.884001 -0.148349
C32   C     C_R   0.635384 0.364361 0.809764 -0.104485
C33   C     C_R   0.316645 0.316628 0.885909 -0.151854
C34   C     C_R   0.330326 0.421315 0.143448 0.696977
C35   C     C_R   0.362969 0.635280 0.810490 -0.108934
C36   C     C_R   0.181806 0.816000 0.616126 -0.148389
C37   C     C_R   0.135630 0.135808 0.690122 -0.104532
C38   C     C_R   0.817107 0.182944 0.615690 -0.187380
C39   C     C_R   0.862244 0.864296 0.688968 -0.132846
C40   C     C_R   0.181632 0.184022 0.383991 -0.148347
C41   C     C_R   0.135365 0.864358 0.309758 -0.104154
C42   C     C_R   0.816649 0.816631 0.385896 -0.151740
C43   C     C_R   0.862970 0.135282 0.310490 -0.108930
C44   C     C_2   0.730469 0.813814 0.854835 -0.117450
C45   C     C_R   0.606353 0.696818 0.902410 0.714811
C46   C     C_2   0.272929 0.636119 0.698880 -0.109364
C47   C     C_2   0.266923 0.186763 0.857345 -0.125587
C48   C     C_2   0.725101 0.362833 0.697712 -0.110657
C49   C     C_2   0.731044 0.186099 0.144611 -0.119570
C50   C     C_2   0.272305 0.363581 0.300425 -0.108210
C51   C     C_2   0.266834 0.812990 0.143039 -0.125455
C52   C     C_2   0.725439 0.637219 0.302204 -0.110954
C53   C     C_2   0.230476 0.313809 0.354836 -0.117402
C54   C     C_2   0.772935 0.136119 0.198876 -0.109358
C55   C     C_2   0.766921 0.686767 0.357341 -0.125550
C56   C     C_R   0.667138 0.422140 0.854558 0.664524
C57   C     C_2   0.225068 0.862830 0.197694 -0.110691
C58   C     C_2   0.231039 0.686097 0.644613 -0.119612
C59   C     C_2   0.772294 0.863582 0.800418 -0.108232
C60   C     C_2   0.766852 0.313001 0.643038 -0.125561
C61   C     C_2   0.225448 0.137219 0.802201 -0.110922
C62   C     C_2   0.731915 0.737396 0.844417 -0.147675
C63   C     C_2   0.336265 0.662241 0.734639 -0.146778
C64   C     C_2   0.263231 0.263390 0.849787 -0.138038
C65   C     C_2   0.661190 0.337701 0.733196 -0.142546
C66   C     C_2   0.732478 0.262482 0.155256 -0.147929
C67   C     C_R   0.392529 0.303277 0.903018 0.714055
C68   C     C_2   0.335313 0.337037 0.264475 -0.145395
C69   C     C_2   0.263463 0.736406 0.151231 -0.136318
C70   C     C_2   0.661522 0.662438 0.266683 -0.141727
C71   C     C_2   0.231905 0.237392 0.344398 -0.147685
C72   C     C_2   0.836266 0.162245 0.234641 -0.146787
C73   C     C_2   0.763237 0.763393 0.349772 -0.138039
C74   C     C_2   0.161181 0.837675 0.233202 -0.142622
C75   C     C_2   0.232485 0.762480 0.655244 -0.147905
C76   C     C_2   0.835311 0.837046 0.764479 -0.145378
C77   C     C_2   0.763432 0.236412 0.651182 -0.136210
C78   C     C_R   0.331219 0.578047 0.855802 0.657005
C79   C     C_2   0.161524 0.162434 0.766685 -0.141725
C80   C     C_3   0.504032 0.754852 0.231274 -0.852101
C81   C     C_3   0.163907 0.588570 0.120324 -0.732744
C82   C     C_3   0.496831 0.250025 0.233634 -0.853662
C83   C     C_3   0.836946 0.402746 0.123020 -0.783513
C84   C     C_3   0.503313 0.246073 0.768415 -0.853426
C85   C     C_3   0.162421 0.409142 0.884910 -0.762207
C86   C     C_3   0.496298 0.751268 0.766938 -0.849182
C87   C     C_3   0.836905 0.597497 0.877106 -0.786015
C88   C     C_3   0.004030 0.254855 0.731264 -0.851982
C89   C     C_R   0.106496 0.803191 0.597632 0.714466
C90   C     C_3   0.663903 0.088535 0.620298 -0.732658
C91   C     C_3   0.996830 0.750023 0.733632 -0.853651
C92   C     C_3   0.336948 0.902752 0.623008 -0.783504
C93   C     C_3   0.003403 0.745939 0.268414 -0.853534
C94   C     C_3   0.662426 0.909147 0.384890 -0.762256
C95   C     C_3   0.996291 0.251281 0.266944 -0.849166
C96   C     C_3   0.336898 0.097495 0.377076 -0.785979
F1    F     F_    0.578232 0.233825 0.075914 -0.698600
F2    F     F_    0.225339 0.032017 0.667942 -0.753168
F3    F     F_    0.920154 0.266046 0.575321 -0.700865
F4    F     F_    0.766376 0.961760 0.659937 -0.734038
F5    F     F_    0.078097 0.266145 0.424321 -0.699142
F6    F     F_    0.225145 0.968009 0.331983 -0.752924
F7    F     F_    0.920483 0.733894 0.424947 -0.699919
F8    F     F_    0.769605 0.035010 0.337056 -0.752039
F9    F     F_    0.725337 0.532021 0.167944 -0.753174
F10   F     F_    0.420152 0.766048 0.075327 -0.700878
F11   F     F_    0.266369 0.461750 0.159936 -0.734003
F12   F     F_    0.578095 0.766145 0.924325 -0.699157
F13   F     F_    0.725147 0.468024 0.831994 -0.752935
F14   F     F_    0.420494 0.233894 0.924944 -0.699749
F15   F     F_    0.269607 0.535005 0.837055 -0.752048
F16   F     F_    0.078231 0.733826 0.575913 -0.698685
H1    H     H_    0.692735 0.840184 0.897264 0.204464
H2    H     H_    0.745777 0.082542 0.214749 0.212528
H3    H     H_    0.807792 0.660149 0.396464 0.208170
H4    H     H_    0.253596 0.915382 0.214497 0.215934
H5    H     H_    0.193052 0.659875 0.602306 0.205258
H6    H     H_    0.745582 0.917500 0.784738 0.208688
H7    H     H_    0.807704 0.339476 0.603874 0.208449
H8    H     H_    0.254150 0.084809 0.785208 0.215823
H9    H     H_    0.765334 0.711928 0.797986 0.147672
H10   H     H_    0.364533 0.711957 0.710769 0.149471
H11   H     H_    0.226039 0.289389 0.806789 0.143111
H12   H     H_    0.245766 0.582547 0.714759 0.212531
H13   H     H_    0.631664 0.289130 0.708457 0.148052
H14   H     H_    0.766230 0.287729 0.201586 0.146842
H15   H     H_    0.363441 0.287076 0.288088 0.150252
H16   H     H_    0.226215 0.710722 0.194276 0.143822
H17   H     H_    0.631889 0.710887 0.291539 0.148430
H18   H     H_    0.265306 0.211926 0.297952 0.147665
H19   H     H_    0.864529 0.211967 0.210777 0.149473
H20   H     H_    0.726052 0.789390 0.306771 0.143110
H21   H     H_    0.131692 0.789067 0.208496 0.148122
H22   H     H_    0.266249 0.787729 0.701563 0.146839
H23   H     H_    0.307801 0.160145 0.896463 0.208169
H24   H     H_    0.863450 0.787098 0.788106 0.150250
H25   H     H_    0.726133 0.210724 0.694186 0.143764
H26   H     H_    0.131880 0.210871 0.791553 0.148414
H27   H     H_    0.572357 0.787694 0.135433 0.221244
H28   H     H_    0.447811 0.782918 0.220298 0.278323
H29   H     H_    0.538027 0.794879 0.267947 0.222982
H30   H     H_    0.493227 0.700269 0.262931 0.232953
H31   H     H_    0.221363 0.594161 0.014378 0.155626
H32   H     H_    0.120639 0.544535 0.104035 0.244443
H33   H     H_    0.137666 0.646069 0.111347 0.196548
H34   H     H_    0.753668 0.415351 0.714555 0.215937
H35   H     H_    0.178663 0.580438 0.182549 0.263598
H36   H     H_    0.426977 0.212867 0.140787 0.219184
H37   H     H_    0.553901 0.223444 0.223416 0.276211
H38   H     H_    0.464276 0.209994 0.271490 0.223647
H39   H     H_    0.505803 0.305774 0.263917 0.234338
H40   H     H_    0.769616 0.475100 0.055293 0.203294
H41   H     H_    0.885740 0.439935 0.105141 0.235084
H42   H     H_    0.855421 0.342445 0.113755 0.222944
H43   H     H_    0.824764 0.413790 0.185349 0.267734
H44   H     H_    0.572269 0.212428 0.863569 0.220285
H45   H     H_    0.693069 0.159878 0.102291 0.205253
H46   H     H_    0.447008 0.218269 0.779419 0.277546
H47   H     H_    0.536955 0.206034 0.731421 0.222440
H48   H     H_    0.492651 0.300870 0.737056 0.233587
H49   H     H_    0.233620 0.471841 0.960108 0.210332
H50   H     H_    0.116756 0.449427 0.904445 0.234433
H51   H     H_    0.139985 0.350014 0.892748 0.217695
H52   H     H_    0.174427 0.420424 0.822618 0.267867
H53   H     H_    0.426550 0.787154 0.860439 0.218497
H54   H     H_    0.553057 0.778366 0.777452 0.277511
H55   H     H_    0.463278 0.791237 0.729360 0.223473
H56   H     H_    0.245609 0.417512 0.284763 0.208664
H57   H     H_    0.505947 0.695831 0.736279 0.234179
H58   H     H_    0.769757 0.524829 0.944530 0.203632
H59   H     H_    0.885894 0.560581 0.895169 0.234831
H60   H     H_    0.855016 0.657906 0.886286 0.222908
H61   H     H_    0.824852 0.586270 0.814775 0.268252
H62   H     H_    0.072448 0.287707 0.635484 0.221078
H63   H     H_    0.947817 0.282931 0.720283 0.278297
H64   H     H_    0.038024 0.294877 0.767949 0.222928
H65   H     H_    0.993211 0.200270 0.762913 0.232917
H66   H     H_    0.721367 0.094173 0.514353 0.155628
H67   H     H_    0.307638 0.839461 0.103826 0.208407
H68   H     H_    0.620664 0.044462 0.604023 0.244463
H69   H     H_    0.637622 0.146017 0.611305 0.196508
H70   H     H_    0.678669 0.080429 0.682526 0.263590
H71   H     H_    0.926965 0.712866 0.640792 0.219165
H72   H     H_    0.053896 0.723437 0.723412 0.276215
H73   H     H_    0.964273 0.709996 0.771491 0.223639
H74   H     H_    0.005808 0.805772 0.763913 0.234334
H75   H     H_    0.269610 0.975100 0.555279 0.203279
H76   H     H_    0.385738 0.939945 0.605128 0.235083
H77   H     H_    0.355428 0.842453 0.613741 0.222937
H78   H     H_    0.754128 0.584798 0.285224 0.215821
H79   H     H_    0.324767 0.913795 0.685337 0.267737
H80   H     H_    0.072004 0.712421 0.363941 0.220757
H81   H     H_    0.947060 0.718194 0.279393 0.277538
H82   H     H_    0.037092 0.705808 0.231563 0.222589
H83   H     H_    0.992816 0.800680 0.236926 0.233638
H84   H     H_    0.733615 0.971832 0.460106 0.210338
H85   H     H_    0.616770 0.949439 0.404415 0.234458
H86   H     H_    0.639979 0.850027 0.392727 0.217699
H87   H     H_    0.674439 0.920420 0.322601 0.267874
H88   H     H_    0.926545 0.287156 0.360452 0.218501
H89   H     H_    0.192760 0.340178 0.397284 0.204434
H90   H     H_    0.053046 0.278385 0.277458 0.277525
H91   H     H_    0.963265 0.291249 0.229369 0.223470
H92   H     H_    0.005945 0.195848 0.236282 0.234172
H93   H     H_    0.269761 0.024826 0.444511 0.203645
H94   H     H_    0.385890 0.060580 0.395132 0.234834
H95   H     H_    0.355009 0.157904 0.386252 0.222900
H96   H     H_    0.324836 0.086267 0.314747 0.268249
N1    N     N_R   0.574080 0.369570 0.076720 -0.123613
N2    N     N_R   0.130430 0.074080 0.576720 -0.145216
N3    N     N_R   0.925920 0.130430 0.576720 -0.125011
N4    N     N_R   0.869570 0.925920 0.576720 -0.140074
N5    N     N_R   0.074080 0.130430 0.423280 -0.123039
N6    N     N_R   0.130430 0.925920 0.423280 -0.145312
N7    N     N_R   0.925920 0.869570 0.423280 -0.123388
N8    N     N_R   0.869570 0.074080 0.423280 -0.146430
N9    N     N_R   0.574050 0.630410 0.076720 -0.095452
N10   N     N_R   0.369590 0.574050 0.076720 -0.128255
N11   N     N_R   0.425950 0.369590 0.076720 -0.096283
N12   N     N_R   0.630430 0.574080 0.076720 -0.145216
N13   N     N_R   0.630410 0.425950 0.076720 -0.130269
N14   N     N_R   0.574050 0.369590 0.923280 -0.095201
N15   N     N_R   0.369590 0.425950 0.923280 -0.130090
N16   N     N_R   0.425950 0.630410 0.923280 -0.094892
N17   N     N_R   0.630410 0.574050 0.923280 -0.129881
N18   N     N_R   0.074050 0.130410 0.576720 -0.095441
N19   N     N_R   0.869590 0.074050 0.576720 -0.128240
N20   N     N_R   0.925950 0.869590 0.576720 -0.096270
N21   N     N_R   0.130410 0.925950 0.576720 -0.130254
N22   N     N_R   0.074050 0.869590 0.423280 -0.095276
N23   N     N_R   0.425920 0.630430 0.076720 -0.125020
N24   N     N_R   0.869590 0.925950 0.423280 -0.130078
N25   N     N_R   0.925950 0.130410 0.423280 -0.094895
N26   N     N_R   0.130410 0.074050 0.423280 -0.129888
N27   N     N_2   0.543178 0.741370 0.158140 -0.057937
N28   N     N_2   0.231057 0.579542 0.071524 -0.072616
N29   N     N_2   0.457169 0.260115 0.160145 -0.055421
N30   N     N_2   0.770219 0.419913 0.075817 -0.088969
N31   N     N_2   0.542829 0.258959 0.841502 -0.057499
N32   N     N_2   0.230855 0.420001 0.931562 -0.080406
N33   N     N_2   0.456733 0.740215 0.840277 -0.057250
N34   N     N_R   0.369570 0.425920 0.076720 -0.140086
N35   N     N_2   0.770224 0.580083 0.924188 -0.088970
N36   N     N_2   0.043187 0.241377 0.658130 -0.057812
N37   N     N_2   0.731059 0.079541 0.571497 -0.072659
N38   N     N_2   0.957165 0.760113 0.660144 -0.055410
N39   N     N_2   0.270217 0.919914 0.575806 -0.088965
N40   N     N_2   0.042811 0.758955 0.341531 -0.057772
N41   N     N_2   0.730854 0.919998 0.431550 -0.080419
N42   N     N_2   0.956728 0.240219 0.340282 -0.057248
N43   N     N_2   0.270225 0.080079 0.424167 -0.088972
N44   N     N_R   0.574080 0.630430 0.923280 -0.123036
N45   N     N_R   0.630430 0.425920 0.923280 -0.145329
N46   N     N_R   0.425920 0.369570 0.923280 -0.123391
N47   N     N_R   0.369570 0.574080 0.923280 -0.146430
N48   N     N_R   0.074080 0.869570 0.576720 -0.123602
Ni1   Ni    Ni4+2 0.500000 0.370760 0.000000 0.280518
Ni2   Ni    Ni4+2 0.629240 0.500000 0.000000 0.180092
Ni3   Ni    Ni4+2 0.500000 0.629240 0.000000 0.278131
Ni4   Ni    Ni4+2 0.370760 0.500000 0.000000 0.195776
Ni5   Ni    Ni4+2 0.000000 0.870760 0.500000 0.280398
Ni6   Ni    Ni4+2 0.129240 0.000000 0.500000 0.180094
Ni7   Ni    Ni4+2 1.000000 0.129240 0.500000 0.278161
Ni8   Ni    Ni4+2 0.870760 0.000000 0.500000 0.195789

loop_
_geom_bond_atom_site_label_1
_geom_bond_atom_site_label_2
_ccdc_geom_bond_type
C36   C89   A    
N2    Ni6   S    
C22   N40   S    
C74   H21   S    
C14   C32   A    
C43   C72   S    
N8    N25   A    
C40   C71   S    
C12   N12   A    
C34   N34   A    
C86   H57   S    
C24   C42   A    
N7    Ni5   S    
C93   H82   S    
C31   C62   S    
C8    C43   A    
C12   F9    S    
C49   H45   S    
C25   C43   A    
C84   H48   S    
C75   H22   S    
C88   H65   S    
C21   N39   S    
H49   N32   S    
C2    C37   A    
N21   Ni6   S    
C92   H77   S    
N9    N12   A    
C21   C36   A    
C37   C79   S    
C89   F16   S    
C10   N10   A    
C88   H63   S    
C12   C28   A    
C78   N47   A    
C23   C29   A    
C24   N41   S    
C36   C75   S    
C18   C37   A    
C77   H25   S    
N17   Ni2   S    
C63   H10   S    
N16   N47   A    
C86   N33   S    
C45   N44   A    
N22   Ni5   S    
N15   Ni4   S    
C96   H96   S    
C22   C41   A    
C9    N27   S    
C44   C59   S    
C95   H91   S    
C49   C54   S    
C90   N37   S    
N1    N13   A    
C60   H7    S    
C94   H87   S    
C7    C42   A    
C19   N19   A    
H75   N39   S    
C18   N18   A    
H88   N42   S    
C41   C74   S    
C17   N17   A    
N45   Ni2   S    
C92   N39   S    
C81   H32   S    
C90   H70   S    
C11   C30   A    
C81   H35   S    
C6    C41   A    
C48   H34   S    
H84   N41   S    
C58   C75   D    
C4    C39   A    
C78   F15   S    
C51   C57   S    
C48   C65   D    
N24   Ni8   S    
C82   H39   S    
C52   C55   S    
H62   N36   S    
N25   Ni7   S    
C83   H43   S    
C16   N33   S    
C26   N26   A    
C20   N38   S    
C91   H73   S    
C73   H20   S    
C25   N25   A    
C83   N30   S    
C56   N45   A    
C46   C58   S    
C61   H8    S    
C85   H50   S    
N2    N18   A    
C80   N27   S    
C46   H12   S    
C93   H83   S    
C96   H94   S    
C51   H67   S    
C95   N42   S    
C10   N28   S    
C84   H47   S    
N6    Ni6   S    
N19   Ni8   S    
C48   C60   S    
C57   H4    S    
C29   C69   S    
N9    Ni3   S    
H44   N31   S    
C3    N3    A    
C87   H61   S    
C5    F5    S    
C60   C77   D    
C2    N2    A    
C50   C53   S    
C49   C66   D    
C30   C34   A    
C1    N1    A    
N7    N24   A    
C82   H37   S    
H58   N35   S    
C3    C38   A    
C1    F1    S    
C47   C64   D    
C83   H42   S    
C90   H68   S    
C84   H46   S    
C96   H95   S    
N46   Ni1   S    
C44   C62   D    
C95   H92   S    
C80   H28   S    
C23   F10   S    
N23   Ni3   S    
C15   N32   S    
C89   N48   A    
C58   H5    S    
C53   H89   S    
C66   H14   S    
C95   H90   S    
H71   N38   S    
C65   H13   S    
C57   C74   D    
N12   Ni2   S    
C47   C61   S    
H93   N43   S    
C93   N40   S    
H66   N37   S    
C25   N42   S    
C67   F14   S    
N1    Ni1   S    
C6    N6    A    
C90   H69   S    
C21   N21   A    
C62   H9    S    
C55   C73   D    
C5    N5    A    
C79   H26   S    
C92   H76   S    
C81   N28   S    
C54   C72   D    
C52   H78   S    
C39   C76   S    
N3    Ni7   S    
C8    F8    S    
C68   H15   S    
C17   N35   S    
C82   H38   S    
N16   Ni3   S    
N11   Ni1   S    
C10   C29   A    
C91   H74   S    
N5    Ni7   S    
C44   H1    S    
C59   H6    S    
C81   H33   S    
C22   N22   A    
C4    F4    S    
H27   N27   S    
C17   C31   A    
C16   N16   A    
C84   N31   S    
H53   N33   S    
C34   F11   S    
N5    N26   A    
C53   C71   D    
C94   N41   S    
C11   N11   A    
C56   F13   S    
N21   N48   A    
N20   Ni5   S    
C33   C67   A    
C72   H19   S    
C67   N46   A    
C9    N9    A    
C20   C39   A    
N47   Ni4   S    
N4    Ni8   S    
C42   C73   S    
H31   N28   S    
C47   H23   S    
C87   H59   S    
N34   Ni4   S    
C14   N14   A    
C28   C70   S    
C86   H55   S    
C13   N13   A    
C35   C63   S    
C8    N8    A    
C4    N4    A    
N18   Ni7   S    
C88   N36   S    
N3    N19   A    
H36   N29   S    
C45   F12   S    
C13   N30   S    
C83   H41   S    
C38   C77   S    
C11   N29   S    
C64   H11   S    
C92   H79   S    
C46   C63   D    
C35   C78   A    
C80   H30   S    
C20   N20   A    
N11   N34   A    
C24   N24   A    
H80   N40   S    
C85   N32   S    
N10   Ni4   S    
C94   H85   S    
C16   C35   A    
C27   C66   S    
C30   C68   S    
C71   H18   S    
C50   H56   S    
N17   N44   A    
N14   N45   A    
N15   N46   A    
C26   C40   A    
C14   N31   S    
C55   H3    S    
C2    F2    S    
C61   C79   D    
C33   C64   S    
C85   H51   S    
C87   H60   S    
C54   H2    S    
C18   N36   S    
C82   N29   S    
C32   C56   A    
C69   H16   S    
C70   H17   S    
C15   N15   A    
C7    N7    A    
N10   N23   A    
C91   N38   S    
N14   Ni1   S    
C52   C70   D    
C26   N43   S    
N8    Ni8   S    
N4    N20   A    
C3    F3    S    
C88   H64   S    
N26   Ni6   S    
C19   C38   A    
H40   N30   S    
C86   H54   S    
C9    C28   A    
C6    F6    S    
C80   H29   S    
C31   C45   A    
C5    C40   A    
C93   H81   S    
C1    C27   A    
C19   N37   S    
C13   C27   A    
C7    F7    S    
C76   H24   S    
C51   C69   D    
C96   N43   S    
C94   H86   S    
N48   Ni5   S    
C50   C68   D    
C59   C76   D    
C15   C33   A    
C85   H52   S    
C23   N23   A    
C87   N35   S    
N13   Ni2   S    
N44   Ni3   S    
C91   H72   S    
C32   C65   S    
N6    N22   A    
