data_mof_unit_55706.cif
_audit_creation_date              2012-12-11T15:57:01-0500
_audit_creation_method            fapswitch 2.2
_symmetry_space_group_name_H-M    P1
_symmetry_Int_Tables_number       1
_space_group_crystal_system       triclinic
_cell_length_a                    17.762047
_cell_length_b                    24.626907
_cell_length_c                    15.193385
_cell_angle_alpha                 89.306136
_cell_angle_beta                  127.386419
_cell_angle_gamma                 90.781271
_cell_volume                      5280.04857536

loop_
_atom_site_label
_atom_site_type_symbol
_atom_type_description
_atom_site_fract_x
_atom_site_fract_y
_atom_site_fract_z
_atom_type_partial_charge
C1    C     C_R   0.324442 0.140292 0.909566 0.163982
C2    C     C_R   0.543979 0.155673 0.914485 -0.138034
C3    C     C_R   0.849758 0.329737 0.001964 -0.030535
C4    C     C_R   0.568052 0.997489 0.368064 -0.006991
C5    C     C_R   0.067732 0.497510 0.367880 -0.007440
C6    C     C_R   0.191839 0.998688 0.633832 0.020106
C7    C     C_R   0.691768 0.498668 0.633920 0.019906
C8    C     C_R   0.468580 0.044858 0.703902 0.129054
C9    C     C_R   0.463726 0.953704 0.703675 0.110162
C10   C     C_R   0.968427 0.544863 0.703801 0.128900
C11   C     C_R   0.963621 0.453717 0.703595 0.109998
C12   C     C_R   0.768510 0.955036 0.246126 -0.141409
C13   C     C_R   0.062667 0.349901 0.911386 -0.154238
C14   C     C_R   0.768366 0.046504 0.246741 -0.127388
C15   C     C_R   0.268487 0.455031 0.246051 -0.141568
C16   C     C_R   0.268357 0.546503 0.246702 -0.127724
C17   C     C_3   0.245385 0.155927 0.790610 -0.482131
C18   C     C_3   0.283641 0.182363 0.733159 -0.239130
C19   C     C_3   0.203579 0.201614 0.616150 -0.962185
C20   C     C_3   0.285776 0.831127 0.790398 -0.475338
C21   C     C_3   0.293366 0.770658 0.773539 -0.283149
C22   C     C_3   0.288916 0.760176 0.671450 -0.960086
C23   C     C_3   0.745660 0.656141 0.790795 -0.481593
C24   C     C_R   0.043824 0.655693 0.914460 -0.138213
C25   C     C_3   0.783086 0.682565 0.732427 -0.239815
C26   C     C_3   0.702427 0.701472 0.615408 -0.961544
C27   C     C_3   0.786216 0.331007 0.790323 -0.475804
C28   C     C_3   0.793224 0.270497 0.773141 -0.283139
C29   C     C_3   0.788056 0.259956 0.670588 -0.959167
C30   C     C_3   0.907197 0.213381 0.067303 -0.400806
C31   C     C_3   0.961793 0.212820 0.193811 -0.192104
C32   C     C_3   0.043300 0.172546 0.249671 -1.006389
C33   C     C_3   0.893872 0.780384 0.004564 -0.377706
C34   C     C_3   0.932621 0.830014 0.082251 -0.227394
C35   C     C_R   0.473174 0.998575 0.654877 -0.088314
C36   C     C_3   0.037656 0.839496 0.138089 -0.996367
C37   C     C_3   0.406784 0.713998 0.067944 -0.397146
C38   C     C_3   0.460921 0.713237 0.194399 -0.196161
C39   C     C_3   0.542293 0.672865 0.250462 -1.000934
C40   C     C_3   0.394344 0.278944 0.007130 -0.374624
C41   C     C_3   0.433885 0.328052 0.086180 -0.230352
C42   C     C_3   0.538905 0.337283 0.141673 -0.993273
C43   C     C_3   0.152333 0.870681 0.906049 -0.430993
C44   C     C_3   0.066466 0.889545 0.790865 -0.238068
C45   C     C_3   0.049945 0.950360 0.789276 -0.950304
C46   C     C_R   0.972926 0.498590 0.654701 -0.088092
C47   C     C_3   0.187776 0.127208 0.024456 -0.424202
C48   C     C_3   0.098078 0.091008 0.953894 -0.220402
C49   C     C_3   0.023393 0.103123 0.970840 -0.935347
C50   C     C_3   0.652825 0.370194 0.905166 -0.427408
C51   C     C_3   0.567238 0.388784 0.789501 -0.249939
C52   C     C_3   0.550507 0.449603 0.786876 -0.932661
C53   C     C_3   0.692293 0.628181 0.028479 -0.435412
C54   C     C_3   0.599037 0.595507 0.961621 -0.253117
C55   C     C_3   0.606066 0.544913 0.025261 -0.941349
C56   C     C_3   0.538691 0.246548 0.782863 -1.118135
C57   C     C_R   0.822732 0.001266 0.269740 0.023639
C58   C     C_3   0.534019 0.728965 0.838473 -1.136052
C59   C     C_3   0.037709 0.747208 0.783192 -1.118834
C60   C     C_3   0.032883 0.229642 0.836388 -1.131428
C61   C     C_3   0.440125 0.101200 0.652984 -0.455367
C62   C     C_3   0.335613 0.105749 0.550886 -0.239983
C63   C     C_3   0.320231 0.155274 0.480235 -0.960346
C64   C     C_3   0.405832 0.902984 0.644675 -0.441859
C65   C     C_3   0.309676 0.915614 0.532575 -0.232243
C66   C     C_3   0.241399 0.867421 0.488193 -0.968074
C67   C     C_3   0.939775 0.601175 0.652760 -0.455356
C68   C     C_R   0.322722 0.501262 0.269697 0.023729
C69   C     C_3   0.835198 0.605605 0.550774 -0.239935
C70   C     C_3   0.819475 0.655168 0.480065 -0.960700
C71   C     C_3   0.905744 0.402998 0.644601 -0.442105
C72   C     C_3   0.809501 0.415643 0.532626 -0.232274
C73   C     C_3   0.741209 0.367469 0.488380 -0.967816
C74   C     C_R   0.603603 0.187741 0.005194 0.023848
C75   C     C_R   0.628511 0.820783 0.006321 0.052785
C76   C     C_R   0.103252 0.687814 0.005189 0.024096
C77   C     C_R   0.337048 0.852235 0.907825 0.151438
C78   C     C_R   0.128094 0.320649 0.006187 0.054917
C79   C     C_3   0.033946 0.949136 0.479550 -0.152972
C80   C     C_3   0.023747 0.033835 0.515108 -0.145751
C81   C     C_3   0.534068 0.449042 0.479178 -0.152864
C82   C     C_3   0.523568 0.533560 0.515361 -0.145819
C83   C     C_3   0.957557 0.984324 0.467561 -0.137288
C84   C     C_3   0.457531 0.483991 0.467380 -0.137802
C85   C     C_3   0.924591 0.001488 0.351726 0.182896
C86   C     C_3   0.424588 0.501477 0.351706 0.183280
C87   C     C_3   0.000211 0.966222 0.362568 -0.153417
C88   C     C_R   0.825288 0.640863 0.909700 0.165384
C89   C     C_3   0.990621 0.051174 0.398953 -0.168991
C90   C     C_3   0.500349 0.466447 0.362347 -0.153474
C91   C     C_3   0.490479 0.551217 0.399381 -0.169144
C92   C     C_3   0.068877 0.016056 0.412348 -0.156364
C93   C     C_3   0.568869 0.516339 0.412571 -0.156509
C94   C     C_R   0.424315 0.857037 0.093881 -0.178530
C95   C     C_R   0.422590 0.138276 0.096823 -0.193295
C96   C     C_R   0.924860 0.356687 0.093842 -0.178570
C97   C     C_R   0.923897 0.639133 0.096907 -0.194396
C98   C     C_3   0.099932 0.998731 0.527100 0.188535
C99   C     C_R   0.837508 0.352022 0.907822 0.151622
C100  C     C_3   0.599894 0.498697 0.527158 0.188709
C101  C     C_3   0.290629 0.801578 0.113517 -0.390750
C102  C     C_3   0.332578 0.218844 0.136975 -0.395045
C103  C     C_3   0.791237 0.301235 0.113243 -0.391040
C104  C     C_3   0.835244 0.720570 0.137202 -0.394864
C105  C     C_3   0.720687 0.263075 0.110792 -0.510552
C106  C     C_3   0.771330 0.763168 0.134038 -0.490356
C107  C     C_3   0.220313 0.763192 0.111122 -0.510721
C108  C     C_3   0.269376 0.261967 0.133829 -0.489166
C109  C     C_3   0.802809 0.233648 0.996059 -0.024529
C110  C     C_R   0.641119 0.153172 0.094092 -0.156887
C111  C     C_3   0.792353 0.757756 0.958215 -0.017066
C112  C     C_3   0.302309 0.734189 0.996233 -0.024074
C113  C     C_3   0.292229 0.256876 0.959566 -0.013719
C114  C     C_3   0.177740 0.809966 0.907023 -0.087106
C115  C     C_3   0.187014 0.179019 0.962759 -0.030429
C116  C     C_3   0.678450 0.309473 0.906714 -0.087395
C117  C     C_3   0.689602 0.679486 0.964774 -0.074335
C118  C     C_3   0.282637 0.794675 0.005961 0.250242
C119  C     C_3   0.289674 0.203098 0.015874 0.225601
C120  C     C_3   0.783319 0.294200 0.005773 0.249456
C121  C     C_R   0.651851 0.850070 0.095624 -0.168745
C122  C     C_3   0.791480 0.704183 0.016124 0.246523
C123  C     C_3   0.663877 0.228803 0.002619 0.303992
C124  C     C_3   0.685237 0.776886 0.011284 0.301357
C125  C     C_3   0.163358 0.729076 0.002716 0.304445
C126  C     C_3   0.184288 0.276422 0.011060 0.284292
C127  C     C_3   0.736733 0.195831 0.000353 -0.416648
C128  C     C_3   0.725005 0.798622 0.950547 -0.424094
C129  C     C_3   0.236086 0.696261 0.999986 -0.417859
C130  C     C_3   0.225408 0.298130 0.951898 -0.422229
C131  C     C_3   0.606876 0.270131 0.901946 0.124402
C132  C     C_R   0.140925 0.653208 0.094072 -0.156801
C133  C     C_3   0.625479 0.723800 0.958123 0.110184
C134  C     C_3   0.106249 0.770577 0.902372 0.124364
C135  C     C_3   0.123652 0.223734 0.956347 0.120527
C136  C     C_3   0.597153 0.030181 0.633054 -0.399033
C137  C     C_3   0.526176 0.938071 0.568049 -0.404520
C138  C     C_3   0.096786 0.530216 0.632772 -0.399253
C139  C     C_3   0.025819 0.438100 0.567771 -0.404715
C140  C     C_R   0.553712 0.043758 0.306963 -0.150572
C141  C     C_R   0.551623 0.953430 0.304050 -0.144171
C142  C     C_R   0.053482 0.543781 0.306835 -0.149893
C143  C     C_R   0.151647 0.349993 0.095550 -0.167404
C144  C     C_R   0.051467 0.453434 0.303973 -0.143859
C145  C     C_3   0.614251 0.037048 0.545279 -0.420659
C146  C     C_3   0.567113 0.938872 0.503892 -0.434189
C147  C     C_3   0.113874 0.537080 0.545001 -0.421556
C148  C     C_3   0.066746 0.438900 0.503625 -0.434195
C149  C     C_3   0.423987 0.020886 0.467820 -0.433977
C150  C     C_3   0.923600 0.520900 0.467539 -0.434170
C151  C     C_3   0.503464 0.996986 0.582441 0.423127
C152  C     C_3   0.003116 0.497012 0.582178 0.423191
C153  C     C_3   0.550598 0.995933 0.450383 0.424168
C154  C     C_R   0.562743 0.849898 0.911444 -0.154291
C155  C     C_3   0.050224 0.495959 0.450123 0.423708
C156  C     C_3   0.444281 0.010385 0.386344 -0.402506
C157  C     C_3   0.943901 0.510414 0.386057 -0.400736
C158  C     C_R   0.238477 0.954354 0.696252 -0.129723
C159  C     C_R   0.242196 0.043560 0.691153 -0.178748
C160  C     C_R   0.738481 0.454335 0.696302 -0.129315
C161  C     C_R   0.742088 0.543560 0.691233 -0.178536
C162  C     C_R   0.342739 0.161498 0.006725 -0.058838
C163  C     C_R   0.348963 0.830235 0.002004 -0.031301
C164  C     C_R   0.844473 0.662633 0.006909 -0.061844
H1    H     H_    0.052352 0.907221 0.513764 0.102962
H2    H     H_    0.617858 0.529405 0.393835 0.107583
H3    H     H_    0.328934 0.217906 0.781923 0.183930
H4    H     H_    0.327796 0.153061 0.729214 0.190983
H5    H     H_    0.198160 0.120971 0.748062 0.184756
H6    H     H_    0.193423 0.184063 0.780080 0.173019
H7    H     H_    0.217385 0.770083 0.595024 0.265669
H8    H     H_    0.343032 0.784480 0.673566 0.274969
H9    H     H_    0.302042 0.716505 0.668576 0.257269
H10   H     H_    0.360003 0.753581 0.847647 0.203028
H11   H     H_    0.230293 0.749049 0.755487 0.197576
H12   H     H_    0.210228 0.842850 0.737728 0.163149
H13   H     H_    0.362488 0.793199 0.189428 0.152910
H14   H     H_    0.319830 0.852705 0.759528 0.208565
H15   H     H_    0.655550 0.666845 0.564517 0.260767
H16   H     H_    0.659734 0.732825 0.618527 0.260031
H17   H     H_    0.732192 0.719570 0.575178 0.258503
H18   H     H_    0.828167 0.718269 0.780615 0.183883
H19   H     H_    0.827310 0.653360 0.728395 0.190999
H20   H     H_    0.698741 0.621009 0.748907 0.185222
H21   H     H_    0.693567 0.684092 0.780524 0.173134
H22   H     H_    0.716343 0.269854 0.594460 0.265336
H23   H     H_    0.841871 0.284247 0.672091 0.275076
H24   H     H_    0.405933 0.234812 0.181729 0.173575
H25   H     H_    0.801092 0.216277 0.667637 0.258490
H26   H     H_    0.859842 0.253255 0.846984 0.202658
H27   H     H_    0.730144 0.249057 0.755390 0.197832
H28   H     H_    0.710759 0.342877 0.737728 0.163454
H29   H     H_    0.820357 0.352526 0.759533 0.208257
H30   H     H_    0.015759 0.130511 0.222008 0.267304
H31   H     H_    0.092265 0.182733 0.229276 0.266157
H32   H     H_    0.082867 0.174359 0.340844 0.259005
H33   H     H_    0.992634 0.253663 0.227354 0.181603
H34   H     H_    0.915343 0.201672 0.217146 0.190883
H35   H     H_    0.863047 0.292715 0.189164 0.153010
H36   H     H_    0.905015 0.171398 0.039368 0.197605
H37   H     H_    0.948429 0.237867 0.047768 0.173024
H38   H     H_    0.079640 0.803962 0.190328 0.265121
H39   H     H_    0.048897 0.846676 0.074500 0.259547
H40   H     H_    0.062748 0.875903 0.191759 0.255039
H41   H     H_    0.894950 0.867243 0.033591 0.188607
H42   H     H_    0.923330 0.824949 0.147574 0.198188
H43   H     H_    0.946677 0.747344 0.046816 0.197933
H44   H     H_    0.893048 0.792220 0.933005 0.162192
H45   H     H_    0.514634 0.630862 0.222657 0.267422
H46   H     H_    0.908058 0.737160 0.180559 0.172894
H47   H     H_    0.591508 0.682990 0.230413 0.265746
H48   H     H_    0.581655 0.674643 0.341604 0.258022
H49   H     H_    0.491898 0.754016 0.228298 0.181690
H50   H     H_    0.414121 0.702084 0.217232 0.191378
H51   H     H_    0.404852 0.672090 0.039880 0.192406
H52   H     H_    0.448239 0.738638 0.048936 0.172258
H53   H     H_    0.580639 0.301404 0.192634 0.265138
H54   H     H_    0.549732 0.345086 0.077898 0.259470
H55   H     H_    0.564611 0.373290 0.196438 0.255288
H56   H     H_    0.396700 0.365609 0.038691 0.188707
H57   H     H_    0.276701 0.844197 0.122585 0.160027
H58   H     H_    0.424847 0.322476 0.151627 0.198408
H59   H     H_    0.446481 0.245563 0.048701 0.198269
H60   H     H_    0.394096 0.291146 0.936133 0.161738
H61   H     H_    0.036935 0.960111 0.850195 0.259352
H62   H     H_    0.112381 0.973922 0.809343 0.267072
H63   H     H_    0.987077 0.962617 0.705454 0.247676
H64   H     H_    0.078123 0.881202 0.728256 0.187843
H65   H     H_    0.001852 0.867218 0.767091 0.204336
H66   H     H_    0.137131 0.876889 0.966202 0.185415
H67   H     H_    0.212944 0.897764 0.932148 0.207770
H68   H     H_    0.338501 0.183320 0.186473 0.150368
H69   H     H_    0.055196 0.101992 0.060287 0.259529
H70   H     H_    0.990276 0.143162 0.935688 0.263568
H71   H     H_    0.966433 0.071818 0.927799 0.243909
H72   H     H_    0.065754 0.093801 0.864400 0.188616
H73   H     H_    0.119531 0.047990 0.978866 0.185250
H74   H     H_    0.248345 0.101231 0.049012 0.169579
H75   H     H_    0.200000 0.138246 0.102950 0.192211
H76   H     H_    0.536243 0.459483 0.846554 0.266251
H77   H     H_    0.613299 0.473118 0.807933 0.270396
H78   H     H_    0.488267 0.461704 0.702530 0.243926
H79   H     H_    0.777470 0.343919 0.122203 0.160588
H80   H     H_    0.579271 0.380145 0.727333 0.188754
H81   H     H_    0.502529 0.366519 0.765572 0.205140
H82   H     H_    0.637174 0.376541 0.964887 0.186075
H83   H     H_    0.713462 0.397306 0.931510 0.208004
H84   H     H_    0.661592 0.517360 0.039566 0.265428
H85   H     H_    0.623453 0.556405 0.106261 0.263608
H86   H     H_    0.537113 0.522899 0.976623 0.246988
H87   H     H_    0.540122 0.620773 0.944467 0.202528
H88   H     H_    0.582109 0.582802 0.881375 0.198459
H89   H     H_    0.749670 0.600577 0.048308 0.209296
H90   H     H_    0.843048 0.685308 0.188269 0.150745
H91   H     H_    0.707334 0.640070 0.108112 0.192310
H92   H     H_    0.565956 0.208493 0.773820 0.267788
H93   H     H_    0.466226 0.241197 0.758275 0.251046
H94   H     H_    0.527322 0.275323 0.719048 0.253686
H95   H     H_    0.547877 0.745705 0.781447 0.263589
H96   H     H_    0.499390 0.688657 0.806447 0.262921
H97   H     H_    0.482919 0.754343 0.837284 0.281619
H98   H     H_    0.064857 0.709264 0.773588 0.267843
H99   H     H_    0.965426 0.741723 0.759081 0.250956
H100  H     H_    0.026029 0.776183 0.719487 0.253711
H101  H     H_    0.171196 0.787037 0.117258 0.171663
H102  H     H_    0.047618 0.247023 0.780577 0.260022
H103  H     H_    0.998102 0.189535 0.802574 0.275288
H104  H     H_    0.981614 0.254763 0.835306 0.279408
H105  H     H_    0.341710 0.192945 0.529952 0.271290
H106  H     H_    0.361895 0.152135 0.448159 0.254444
H107  H     H_    0.244351 0.158038 0.408620 0.259344
H108  H     H_    0.309009 0.068752 0.499487 0.186870
H109  H     H_    0.290746 0.110717 0.577159 0.199221
H110  H     H_    0.450578 0.129700 0.713121 0.185774
H111  H     H_    0.486627 0.116286 0.632655 0.187479
H112  H     H_    0.034775 0.061313 0.579536 0.109327
H113  H     H_    0.242400 0.246270 0.179062 0.156498
H114  H     H_    0.274441 0.830970 0.482631 0.271920
H115  H     H_    0.220567 0.858693 0.542316 0.266045
H116  H     H_    0.176209 0.877259 0.404264 0.254360
H117  H     H_    0.276075 0.950908 0.540654 0.201385
H118  H     H_    0.319312 0.925852 0.469204 0.186767
H119  H     H_    0.446535 0.872797 0.635944 0.163491
H120  H     H_    0.391060 0.883383 0.698018 0.190820
H121  H     H_    0.841064 0.692817 0.529854 0.271410
H122  H     H_    0.860850 0.652093 0.447613 0.254612
H123  H     H_    0.743506 0.657911 0.408729 0.259397
H124  H     H_    0.671500 0.287104 0.116514 0.171694
H125  H     H_    0.808688 0.568613 0.499376 0.186795
H126  H     H_    0.790407 0.610433 0.577164 0.199202
H127  H     H_    0.950289 0.629711 0.712882 0.185502
H128  H     H_    0.986111 0.616273 0.632202 0.187321
H129  H     H_    0.773967 0.331087 0.482141 0.272076
H130  H     H_    0.720883 0.358569 0.542925 0.266121
H131  H     H_    0.675754 0.377440 0.404802 0.254147
H132  H     H_    0.775999 0.450946 0.540833 0.201419
H133  H     H_    0.818975 0.425878 0.469117 0.187024
H134  H     H_    0.946381 0.372829 0.635729 0.163626
H135  H     H_    0.745357 0.747252 0.180199 0.156328
H136  H     H_    0.891143 0.383359 0.698030 0.190732
H137  H     H_    0.761878 0.236864 0.185786 0.170768
H138  H     H_    0.814560 0.800132 0.177834 0.168991
H139  H     H_    0.261720 0.736870 0.185918 0.170613
H140  H     H_    0.313417 0.298569 0.178549 0.169912
H141  H     H_    0.777873 0.168708 0.073964 0.173945
H142  H     H_    0.758227 0.838811 0.984559 0.162238
H143  H     H_    0.277131 0.668884 0.073194 0.174181
H144  H     H_    0.552604 0.407073 0.513082 0.103185
H145  H     H_    0.259408 0.338016 0.987185 0.162970
H146  H     H_    0.171840 0.803614 0.831755 0.148819
H147  H     H_    0.155280 0.164935 0.878632 0.132340
H148  H     H_    0.672718 0.302999 0.831618 0.149162
H149  H     H_    0.657057 0.664578 0.880832 0.141984
H150  H     H_    0.458252 0.848980 0.180329 0.098732
H151  H     H_    0.460453 0.146792 0.183775 0.109116
H152  H     H_    0.958945 0.348533 0.180296 0.098569
H153  H     H_    0.962295 0.647890 0.183858 0.109217
H154  H     H_    0.060393 0.793843 0.915351 0.123741
H155  H     H_    0.534471 0.560826 0.579990 0.109655
H156  H     H_    0.099485 0.211709 0.006396 0.143729
H157  H     H_    0.560768 0.293450 0.914464 0.123399
H158  H     H_    0.601617 0.711526 0.008528 0.129482
H159  H     H_    0.779118 0.228220 0.912153 0.095724
H160  H     H_    0.761010 0.750057 0.871689 0.112898
H161  H     H_    0.278936 0.728892 0.912450 0.094959
H162  H     H_    0.261242 0.249516 0.873032 0.111861
H163  H     H_    0.700166 0.167924 0.927992 0.146837
H164  H     H_    0.667028 0.806896 0.861645 0.135388
H165  H     H_    0.199398 0.668617 0.927215 0.146358
H166  H     H_    0.987974 0.938821 0.297443 0.109591
H167  H     H_    0.168168 0.307045 0.863048 0.134881
H168  H     H_    0.598472 0.070556 0.664288 0.143335
H169  H     H_    0.460796 0.913323 0.518456 0.170150
H170  H     H_    0.098086 0.570593 0.663985 0.143002
H171  H     H_    0.960422 0.413367 0.518148 0.170242
H172  H     H_    0.657749 0.008041 0.706216 0.159462
H173  H     H_    0.577218 0.917893 0.649683 0.149081
H174  H     H_    0.157388 0.508082 0.705935 0.159379
H175  H     H_    0.076863 0.417912 0.649393 0.149109
H176  H     H_    0.690332 0.030248 0.584082 0.153819
H177  H     H_    0.971279 0.092915 0.363896 0.115799
H178  H     H_    0.644169 0.929607 0.560118 0.163152
H179  H     H_    0.189956 0.530282 0.583801 0.153140
H180  H     H_    0.143804 0.429634 0.559847 0.163100
H181  H     H_    0.596629 0.079317 0.512392 0.155384
H182  H     H_    0.530875 0.905949 0.441587 0.146937
H183  H     H_    0.096242 0.579347 0.512109 0.155201
H184  H     H_    0.030498 0.405976 0.441320 0.147007
H185  H     H_    0.422683 0.065410 0.474033 0.194643
H186  H     H_    0.352999 0.004422 0.434223 0.141519
H187  H     H_    0.922239 0.565425 0.473717 0.194602
H188  H     H_    0.488247 0.439253 0.297032 0.109669
H189  H     H_    0.852629 0.504405 0.433944 0.141952
H190  H     H_    0.563456 0.085471 0.333523 0.087468
H191  H     H_    0.565449 0.911189 0.328160 0.087290
H192  H     H_    0.063053 0.585504 0.333290 0.087207
H193  H     H_    0.065227 0.411189 0.328068 0.087245
H194  H     H_    0.423566 0.047135 0.332986 0.152942
H195  H     H_    0.398792 0.976273 0.330758 0.166419
H196  H     H_    0.923198 0.547169 0.332709 0.154666
H197  H     H_    0.898405 0.476311 0.330439 0.167184
H198  H     H_    0.221985 0.914510 0.662864 0.096448
H199  H     H_    0.471060 0.593022 0.364682 0.115672
H200  H     H_    0.229666 0.082323 0.653159 0.119968
H201  H     H_    0.722109 0.414486 0.662955 0.096564
H202  H     H_    0.729413 0.582346 0.653298 0.119905
H203  H     H_    0.792593 0.913541 0.262326 0.098719
H204  H     H_    0.791191 0.088495 0.261680 0.092591
H205  H     H_    0.292539 0.413530 0.262182 0.098783
H206  H     H_    0.291166 0.588497 0.261612 0.092590
H207  H     H_    0.683226 0.164404 0.180386 0.091070
H208  H     H_    0.693957 0.837670 0.181579 0.095214
H209  H     H_    0.182947 0.664436 0.180362 0.090993
H210  H     H_    0.117861 0.028871 0.393452 0.107494
H211  H     H_    0.193644 0.337563 0.181481 0.095085
H212  H     H_    0.528452 0.838874 0.826587 0.111434
H213  H     H_    0.478737 0.171752 0.845933 0.101928
H214  H     H_    0.028583 0.339023 0.826524 0.111855
H215  H     H_    0.978563 0.671689 0.845768 0.102168
H216  H     H_    0.910758 0.971411 0.489683 0.111772
H217  H     H_    0.410691 0.470822 0.489286 0.111351
H218  H     H_    0.156512 0.167156 0.564702 0.260889
H219  H     H_    0.160944 0.233050 0.619170 0.260113
H220  H     H_    0.233943 0.219714 0.576600 0.258457
N1    N     N_R   0.392450 0.103580 0.942190 -0.051316
N2    N     N_R   0.525490 0.971610 0.207550 -0.034650
N3    N     N_R   0.025490 0.528390 0.207550 -0.033579
N4    N     N_R   0.025490 0.471610 0.207550 -0.034499
N5    N     N_R   0.317450 0.971190 0.792000 -0.040663
N6    N     N_R   0.317450 0.028810 0.792000 -0.034755
N7    N     N_R   0.817450 0.471190 0.792000 -0.040451
N8    N     N_R   0.817450 0.528810 0.792000 -0.034486
N9    N     N_R   0.473900 0.028390 0.792280 -0.065699
N10   N     N_R   0.473900 0.971610 0.792280 -0.067433
N11   N     N_R   0.973900 0.528390 0.792280 -0.065768
N12   N     N_R   0.392450 0.896420 0.942190 -0.060632
N13   N     N_R   0.973900 0.471610 0.792280 -0.067501
N14   N     N_R   0.682310 0.971180 0.208170 -0.037732
N15   N     N_R   0.682310 0.028820 0.208170 -0.037693
N16   N     N_R   0.182310 0.471180 0.208170 -0.037842
N17   N     N_R   0.182310 0.528820 0.208170 -0.037795
N18   N     N_R   0.606470 0.103570 0.057210 -0.034334
N19   N     N_R   0.606470 0.896430 0.057210 -0.030921
N20   N     N_R   0.106470 0.603570 0.057210 -0.034383
N21   N     N_R   0.106470 0.396430 0.057210 -0.031225
N22   N     N_R   0.549740 0.896000 0.943240 -0.041569
N23   N     N_R   0.892450 0.603580 0.942190 -0.051082
N24   N     N_R   0.549740 0.104000 0.943240 -0.046400
N25   N     N_R   0.049740 0.396000 0.943240 -0.041766
N26   N     N_R   0.049740 0.604000 0.943240 -0.046451
N27   N     N_R   0.892450 0.396420 0.942190 -0.060632
N28   N     N_R   0.450490 0.896000 0.057360 -0.044566
N29   N     N_R   0.450490 0.104000 0.057360 -0.041897
N30   N     N_R   0.950490 0.396000 0.057360 -0.044570
N31   N     N_R   0.950490 0.604000 0.057360 -0.041433
N32   N     N_R   0.525490 0.028390 0.207550 -0.033843
Ni1   Ni    Ni4+2 0.433780 0.065390 0.868430 0.190727
Ni2   Ni    Ni4+2 0.433780 0.934610 0.868430 0.191315
Ni3   Ni    Ni4+2 0.933780 0.565390 0.868430 0.191222
Ni4   Ni    Ni4+2 0.933780 0.434610 0.868430 0.191464
Ni5   Ni    Ni4+2 0.565800 0.934190 0.131570 0.201930
Ni6   Ni    Ni4+2 0.565800 0.065810 0.131570 0.200326
Ni7   Ni    Ni4+2 0.065800 0.434190 0.131570 0.201985
Ni8   Ni    Ni4+2 0.065800 0.565810 0.131570 0.200574

loop_
_geom_bond_atom_site_label_1
_geom_bond_atom_site_label_2
_ccdc_geom_bond_type
C101  C107  S    
C33   H44   S    
C9    C64   S    
N7    Ni4   S    
C59   H98   S    
C51   H80   S    
N21   Ni7   S    
N4    Ni7   S    
C32   H32   S    
C117  C133  S    
N5    Ni2   S    
C79   C87   S    
C48   H73   S    
C27   C99   S    
C149  H185  S    
C124  C133  S    
C159  N6    A    
C63   H106  S    
C84   C86   S    
C109  H159  S    
C88   N23   A    
C135  H156  S    
C10   N11   A    
C67   H127  S    
C139  C152  S    
C154  N22   A    
N31   Ni8   S    
C105  C123  S    
N2    N32   A    
C9    N10   A    
C84   H217  S    
C136  H172  S    
C109  C127  S    
C130  H167  S    
C56   H93   S    
C137  H173  S    
C107  H101  S    
C54   H87   S    
C55   H85   S    
C90   H188  S    
C33   C111  S    
C112  C129  S    
C147  C155  S    
C19   H218  S    
C158  N5    A    
C80   C98   S    
C4    C153  S    
N18   Ni6   S    
C21   C22   S    
C102  H68   S    
C76   C125  S    
N20   N26   A    
C38   H50   S    
C80   C83   S    
N1    N29   A    
C105  H124  S    
C128  H142  S    
C30   C109  S    
C51   C52   S    
N26   Ni3   S    
C94   N28   A    
C86   C90   S    
C24   C76   A    
C5    C155  S    
C110  H207  S    
C82   C91   S    
C58   H96   S    
C8    C35   A    
C115  H147  S    
C43   C44   S    
C74   C110  A    
C37   C38   S    
C47   H74   S    
C87   H166  S    
C44   H65   S    
C97   C164  A    
C97   H153  S    
C105  H137  S    
C153  C156  S    
C72   H132  S    
C93   C100  S    
C157  H197  S    
C107  H139  S    
N18   N24   A    
C81   C90   S    
C108  H140  S    
C1    C162  A    
N23   Ni3   S    
C58   H97   S    
N5    N6    A    
N20   Ni8   S    
C29   H25   S    
C160  H201  S    
C60   H103  S    
N3    N4    A    
C148  H180  S    
C41   H56   S    
C145  H181  S    
C90   C93   S    
C14   C57   A    
C157  H196  S    
C72   C73   S    
C42   H54   S    
C99   N27   A    
C141  H191  S    
C14   H204  S    
N9    N10   A    
C137  H169  S    
C52   H77   S    
N14   Ni5   S    
C129  H143  S    
N28   Ni5   S    
C1    N1    A    
C57   C85   S    
C43   H67   S    
C69   C70   S    
C132  H209  S    
C56   C131  S    
C132  N20   A    
C125  C129  S    
C20   C21   S    
C70   H123  S    
C106  C124  S    
C11   C46   A    
C108  C126  S    
C50   H82   S    
C94   C163  A    
C31   H34   S    
C102  C119  S    
C109  C120  S    
C133  H158  S    
C30   H36   S    
C141  N2    A    
C142  H192  S    
C150  C157  S    
C80   H112  S    
C111  H160  S    
C113  H162  S    
C72   H133  S    
C43   H66   S    
C117  H149  S    
C26   H15   S    
C29   H22   S    
C7    C161  A    
C13   N25   A    
C101  C118  S    
C59   H99   S    
C51   H81   S    
C142  N3    A    
C149  C151  S    
C38   C39   S    
C104  C122  S    
C122  C164  S    
C45   H63   S    
C63   H107  S    
C14   N15   A    
C123  C127  S    
C31   C32   S    
C21   H11   S    
C61   H110  S    
C65   H118  S    
C148  C155  S    
N32   Ni6   S    
C37   H52   S    
C41   H58   S    
C111  C122  S    
C19   H219  S    
C6    C158  A    
C154  H212  S    
C34   H41   S    
C139  C148  S    
C113  C130  S    
C40   H59   S    
C75   C124  S    
C136  H168  S    
C107  C125  S    
C17   H6    S    
C25   C26   S    
C88   C164  A    
C116  C120  S    
C73   H130  S    
C96   N30   A    
C117  C122  S    
N15   Ni6   S    
C49   H70   S    
C91   H199  S    
C64   H120  S    
C140  H190  S    
C40   C113  S    
C70   H121  S    
C17   C18   S    
C114  C134  S    
C66   H115  S    
C103  C105  S    
C131  H157  S    
C79   H1    S    
C47   H75   S    
C12   C57   A    
C93   H2    S    
C115  C119  S    
C23   C88   S    
C56   H92   S    
C27   H28   S    
C108  H113  S    
C28   H27   S    
C22   H9    S    
C25   H18   S    
C13   C78   A    
C33   H43   S    
C39   H45   S    
C139  H175  S    
C114  H146  S    
N24   Ni1   S    
C60   H102  S    
N16   N17   A    
N29   Ni6   S    
N3    Ni8   S    
C18   H3    S    
N27   Ni4   S    
C59   C134  S    
C1    C17   S    
C55   H84   S    
C63   H105  S    
C71   C72   S    
N9    Ni1   S    
C76   C132  A    
C5    C142  A    
C20   H12   S    
C115  C135  S    
C24   N26   A    
C39   H48   S    
C74   C123  S    
C34   C36   S    
C138  H170  S    
C61   C62   S    
C52   H76   S    
C3    C99   A    
C112  H161  S    
C89   H177  S    
C111  C128  S    
C54   H88   S    
N17   Ni8   S    
C125  C134  S    
C155  C157  S    
C41   C42   S    
C103  C120  S    
C145  H176  S    
C104  C106  S    
C47   C115  S    
C156  H195  S    
C53   H89   S    
C20   C77   S    
C6    C98   S    
C28   C29   S    
C114  C118  S    
C143  H211  S    
C86   C91   S    
C43   C114  S    
C30   C31   S    
C11   C71   S    
C147  H183  S    
C126  C130  S    
C144  H193  S    
C69   H126  S    
C18   C19   S    
C2    H213  S    
C80   C89   S    
N21   N25   A    
C161  H202  S    
C113  C119  S    
C36   H39   S    
C104  H46   S    
C106  H135  S    
C96   H152  S    
C22   H7    S    
C124  C128  S    
C87   C92   S    
N27   N30   A    
C13   H214  S    
C146  H178  S    
C35   C151  S    
C60   H104  S    
C32   H31   S    
C119  C162  S    
N30   Ni7   S    
C58   C133  S    
C118  C163  S    
C149  H186  S    
N16   Ni7   S    
C15   N16   A    
N19   N22   A    
C42   H55   S    
C7    C100  S    
C4    C141  A    
C23   H21   S    
C85   C89   S    
C5    C144  A    
C20   H14   S    
C7    C160  A    
N25   Ni4   S    
C138  C152  S    
C53   C54   S    
C67   H128  S    
C12   H203  S    
C94   H150  S    
N23   N31   A    
C62   C63   S    
C52   H78   S    
C91   C93   S    
C137  C146  S    
C77   N12   A    
C50   C51   S    
C55   H86   S    
N1    Ni1   S    
N10   Ni2   S    
C158  H198  S    
C44   H64   S    
N12   N28   A    
C97   N31   A    
C48   C49   S    
C83   C85   S    
C126  C135  S    
C38   H49   S    
C50   H83   S    
C146  H182  S    
C31   H33   S    
C136  C151  S    
C44   C45   S    
C101  H57   S    
C30   H37   S    
C92   H210  S    
C123  C131  S    
C28   H26   S    
C121  N19   A    
C81   C100  S    
C26   H16   S    
C82   H155  S    
N6    Ni1   S    
C58   H95   S    
C64   C65   S    
C95   H151  S    
C79   C83   S    
N2    Ni5   S    
C146  C153  S    
C53   C117  S    
C45   H62   S    
C106  H138  S    
C101  H13   S    
C26   H17   S    
C29   H23   S    
C21   H10   S    
C9    C35   A    
C65   H117  S    
C53   H91   S    
C37   H51   S    
C24   H215  S    
C127  H163  S    
C16   N17   A    
C77   C163  A    
C46   C152  S    
C68   C86   S    
C54   C55   S    
C79   C98   S    
C75   C154  A    
C42   H53   S    
C129  H165  S    
C134  H154  S    
C6    C159  A    
C92   C98   S    
N7    N8    A    
C10   C67   S    
C34   H42   S    
C11   N13   A    
C40   H60   S    
C149  C156  S    
C17   H5    S    
N12   Ni2   S    
C127  H141  S    
C156  H194  S    
C104  H90   S    
C73   H129  S    
C71   H136  S    
C37   C112  S    
C49   H69   S    
N19   Ni5   S    
C95   N29   A    
C70   H122  S    
C16   H206  S    
C10   C46   A    
C121  H208  S    
C103  H79   S    
C128  H164  S    
C66   H116  S    
C3    C96   A    
C16   C68   A    
C150  H187  S    
C136  C145  S    
C2    C74   A    
C8    C61   S    
C145  C153  S    
C140  N32   A    
C2    N24   A    
C148  H184  S    
C36   H38   S    
C147  H179  S    
C85   C87   S    
N22   Ni2   S    
C59   H100  S    
C143  N21   A    
C32   H30   S    
C95   C162  A    
C18   H4    S    
C45   H61   S    
C110  N18   A    
C102  H24   S    
C67   C69   S    
C62   H109  S    
C160  N7    A    
C4    C140  A    
C47   C48   S    
C161  N8    A    
C138  C147  S    
C33   C34   S    
C61   H111  S    
C39   H47   S    
C150  H189  S    
C103  H35   S    
C89   C92   S    
C102  C108  S    
C60   C135  S    
C48   H72   S    
C27   H29   S    
C116  H148  S    
C40   C41   S    
C150  C152  S    
C19   H220  S    
C81   C84   S    
C159  H200  S    
C75   C121  A    
C82   C100  S    
C138  H174  S    
C56   H94   S    
C15   H205  S    
C83   H216  S    
C82   C84   S    
C73   H131  S    
N11   Ni3   S    
C71   H134  S    
C23   H20   S    
C49   H71   S    
C78   C143  A    
C112  C118  S    
N11   N13   A    
C64   H119  S    
C116  C131  S    
C139  H171  S    
C144  N4    A    
C15   C68   A    
C69   H125  S    
C66   H114  S    
C50   C116  S    
C23   C25   S    
C3    C120  S    
N13   Ni4   S    
C65   C66   S    
C27   C28   S    
N14   N15   A    
C137  C151  S    
C36   H40   S    
C130  H145  S    
C22   H8    S    
C25   H19   S    
C81   H144  S    
C62   H108  S    
C8    N9    A    
C12   N14   A    
N8    Ni3   S    
C78   C126  S    
