data_mof_unit_32702.cif
_audit_creation_date              2013-03-05T16:12:53-0500
_audit_creation_method            fapswitch 2.2
_symmetry_space_group_name_H-M    P1
_symmetry_Int_Tables_number       1
_space_group_crystal_system       triclinic
_cell_length_a                    10.709613
_cell_length_b                    9.820498
_cell_length_c                    27.704331
_cell_angle_alpha                 90.05553
_cell_angle_beta                  90.16944
_cell_angle_gamma                 89.981548
_cell_volume                      2913.75365473

loop_
_atom_site_label
_atom_site_type_symbol
_atom_site_description
_atom_site_fract_x
_atom_site_fract_y
_atom_site_fract_z
_atom_type_partial_charge
O1    O     O_R   0.316770 0.614620 0.500000 -0.627583
O2    O     O_R   0.683230 0.385380 0.500000 -0.627529
O3    O     O_R   0.683230 0.614620 0.500000 -0.625866
O4    O     O_R   0.316770 0.385380 0.500000 -0.625895
C1    C     C_R   0.259823 0.500016 0.499964 0.876359
C2    C     C_R   0.740177 0.499984 0.500035 0.876563
O5    O     O_R   0.500030 0.614650 0.428760 -0.621475
O6    O     O_R   0.499970 0.385350 0.571240 -0.620395
O7    O     O_R   0.499970 0.614650 0.571240 -0.623826
O8    O     O_R   0.500030 0.385350 0.428760 -0.622931
C3    C     C_R   0.499690 0.499986 0.405938 0.877473
C4    C     C_R   0.500063 0.500134 0.594060 0.877466
Zn1   Zn    Zn3+2 0.500000 0.653120 0.500000 0.953216
Zn2   Zn    Zn3+2 0.500000 0.346880 0.500000 0.954083
C5    C     C_R   0.379719 0.491980 0.177641 0.520710
C6    C     C_R   0.594620 0.566833 0.823031 0.520464
O9    O     O_2   0.273278 0.475295 0.202931 -0.552064
O10   O     O_2   0.692234 0.618079 0.798249 -0.557501
N1    N     N_R   0.491124 0.504193 0.201345 -0.358797
N2    N     N_R   0.497818 0.506611 0.798877 -0.357305
C7    C     C_R   0.600966 0.521913 0.177293 0.504402
C8    C     C_R   0.398093 0.452083 0.822665 0.505253
C9    C     C_R   0.485381 0.378721 0.277331 -0.100251
C10   C     C_R   0.488364 0.626393 0.721837 -0.100057
C11   C     C_R   0.488203 0.377452 0.327504 -0.213640
C12   C     C_R   0.489017 0.624995 0.671749 -0.215321
C13   C     C_R   0.504728 0.624335 0.328090 -0.210185
C14   C     C_R   0.510653 0.378655 0.672642 -0.214500
C15   C     C_R   0.502282 0.625156 0.277995 -0.104483
C16   C     C_R   0.510465 0.380456 0.722827 -0.095683
C17   C     C_R   0.492568 0.502531 0.252697 0.322461
C18   C     C_R   0.499197 0.504314 0.747414 0.311895
C19   C     C_R   0.487632 0.516724 0.101591 -0.056972
C20   C     C_R   0.491075 0.520107 0.898704 -0.059438
C21   C     C_R   0.375900 0.497470 0.127170 -0.070190
C22   C     C_R   0.593009 0.574902 0.873441 -0.052969
C23   C     C_R   0.262748 0.488941 0.102153 -0.176105
C24   C     C_R   0.688951 0.640087 0.898710 -0.204887
C25   C     C_R   0.601354 0.529240 0.126928 -0.006464
C26   C     C_R   0.392844 0.457652 0.873053 -0.006792
C27   C     C_R   0.497846 0.500409 0.353203 -0.042765
C28   C     C_R   0.499951 0.501063 0.646795 -0.043599
H1    H     H_    0.512171 0.720493 0.347060 0.162257
H2    H     H_    0.519511 0.281894 0.654172 0.160791
H3    H     H_    0.507836 0.720855 0.258727 0.135860
H4    H     H_    0.519125 0.285941 0.742662 0.143662
H5    H     H_    0.175909 0.484779 0.121976 0.203148
H6    H     H_    0.763667 0.690266 0.879335 0.190951
C29   C     C_R   0.380446 0.479766 0.974518 0.066477
C30   C     C_R   0.597273 0.556299 0.025700 0.061021
C31   C     C_R   0.592445 0.577705 0.975218 0.002129
C32   C     C_R   0.373342 0.497344 0.025254 -0.024082
C33   C     C_R   0.487765 0.526571 0.949595 0.029314
C34   C     C_R   0.485877 0.523766 0.050732 0.028914
C35   C     C_R   0.287372 0.410238 0.948096 -0.193308
C36   C     C_R   0.710700 0.559800 0.051692 -0.190940
C37   C     C_R   0.292822 0.400641 0.898176 -0.157879
C38   C     C_R   0.712600 0.547266 0.101538 -0.158645
O11   O     O_2   0.303772 0.394315 0.797531 -0.556481
O12   O     O_2   0.709106 0.532747 0.202167 -0.550045
C39   C     C_R   0.259479 0.488978 0.051627 0.184538
C40   C     C_R   0.688198 0.646069 0.949075 0.181724
H7    H     H_    0.480361 0.720738 0.652655 0.163238
H8    H     H_    0.482486 0.280674 0.346082 0.160003
H9    H     H_    0.479043 0.722197 0.740888 0.143173
H10   H     H_    0.478072 0.283887 0.257547 0.136696
H11   H     H_    0.218665 0.347216 0.879402 0.192434
H12   H     H_    0.801724 0.552010 0.120068 0.189283
H13   H     H_    0.212602 0.355955 0.965481 0.188762
H14   H     H_    0.799914 0.566614 0.033921 0.177780
C41   C     C_R   0.063894 0.378729 0.490369 -0.184330
C42   C     C_R   0.936107 0.621273 0.509628 -0.184573
C43   C     C_R   0.936031 0.378691 0.490428 -0.186322
C44   C     C_R   0.063970 0.621311 0.509570 -0.186783
H15   H     H_    0.112597 0.284537 0.482557 0.154719
H16   H     H_    0.887405 0.715466 0.517439 0.154853
H17   H     H_    0.887266 0.284473 0.482664 0.158963
H18   H     H_    0.112736 0.715528 0.517335 0.158724
C45   C     C_R   0.872579 0.499969 0.500045 -0.015129
C46   C     C_R   0.127421 0.500032 0.499953 -0.014748
C47   C     C_R   0.577968 0.072075 0.529960 -0.072940
C48   C     C_R   0.422031 0.927925 0.470040 -0.074349
C49   C     C_R   0.422030 0.071972 0.470040 -0.073472
C50   C     C_R   0.577972 0.928029 0.529959 -0.074036
H19   H     H_    0.640227 0.126857 0.553888 0.128287
H20   H     H_    0.359772 0.873143 0.446113 0.129758
H21   H     H_    0.359763 0.126672 0.446115 0.125175
H22   H     H_    0.640243 0.873329 0.553882 0.126890
N3    N     N_R   0.500000 0.857200 0.500000 -0.081154
N4    N     N_R   0.500000 0.142800 0.500000 -0.080581
N5    N     N_2   0.141840 0.501953 0.027874 -0.316920
H23   H     H_    0.109624 0.600811 0.026362 0.235764
C51   C     C_3   0.046457 0.403802 0.040510 -0.827688
H24   H     H_    0.973065 0.403627 0.012144 0.245129
H25   H     H_    0.002391 0.431159 0.075426 0.241529
H26   H     H_    0.086733 0.299656 0.042727 0.256960
N6    N     N_2   0.777502 0.731562 0.972370 -0.325604
H27   H     H_    0.859610 0.744448 0.953518 0.226229
C52   C     C_3   0.727545 0.859125 0.989985 -0.754981
H28   H     H_    0.801782 0.915835 0.009538 0.238787
H29   H     H_    0.649336 0.840958 0.015417 0.255306
H30   H     H_    0.693983 0.922268 0.959300 0.240889

loop_
_geom_bond_atom_site_label_1
_geom_bond_atom_site_label_2
_geom_bond_distance
_ccdc_geom_bond_type
C49   H21   1.081864 S    
C51   H24   1.109839 S    
C13   C15   1.388052 A    
C42   H16   1.083741 S    
O3    C2    1.280196 A    
N1    C17   1.422815 S    
N6    H27   1.031961 S    
O5    C3    1.290883 A    
C19   C25   1.409264 A    
C48   N3    1.365738 A    
O1    C1    1.280262 A    
C9    H10   1.082915 S    
N1    C7    1.364964 A    
C10   C12   1.387753 A    
C42   C45   1.396903 A    
C32   C39   1.425859 A    
C14   C28   1.404296 A    
O7    Zn1   2.009848 S    
Zn2   N4    2.004167 S    
C4    C28   1.461014 S    
C23   H5    1.082263 S    
C24   H6    1.083772 S    
O3    Zn1   1.998295 S    
C6    N2    1.366682 A    
Zn1   N3    2.004167 S    
C51   H25   1.110281 S    
C44   C46   1.396853 A    
O2    C2    1.280264 A    
C31   C40   1.425738 A    
C37   H11   1.083428 S    
C5    C21   1.399833 A    
C41   C46   1.396900 A    
N6    C52   1.446955 S    
C32   C34   1.418768 A    
C16   C18   1.398875 A    
C7    O12   1.350061 S    
C42   C44   1.369374 A    
O8    Zn2   2.009853 S    
C11   C27   1.404851 A    
C8    O11   1.350011 S    
C41   C43   1.369374 A    
C48   H20   1.081831 S    
C25   C38   1.396745 A    
C14   H2    1.083091 S    
C30   C36   1.410741 A    
C15   H3    1.083015 S    
C31   C33   1.417005 A    
C11   H8    1.083098 S    
C9    C17   1.397158 A    
C5    N1    1.365444 A    
C12   H7    1.083104 S    
C10   C18   1.397825 A    
N5    C51   1.448636 S    
C40   N6    1.425475 S    
C13   C27   1.404505 A    
C52   H28   1.110344 S    
C7    C25   1.397277 A    
O6    C4    1.291890 A    
C29   C32   1.418246 A    
C8    C26   1.398282 A    
C30   C31   1.415248 A    
C43   C45   1.396854 A    
C30   C34   1.418409 A    
C1    C46   1.417968 S    
C35   H13   1.077224 S    
C10   H9    1.083046 S    
C47   N4    1.365736 A    
C38   H12   1.083431 S    
C52   H29   1.110686 S    
N2    C8    1.366363 A    
C51   H26   1.111555 S    
C36   H14   1.078255 S    
C35   C37   1.387522 A    
C20   C26   1.408219 A    
O1    Zn1   1.998534 S    
C50   N3    1.365713 A    
N5    H23   1.031059 S    
C47   C50   1.414603 A    
C12   C28   1.404167 A    
N2    C18   1.426038 S    
C19   C34   1.410847 A    
C5    O9    1.349925 S    
C49   N4    1.365721 A    
O6    Zn2   2.009128 S    
C26   C37   1.396753 A    
C21   C23   1.396715 A    
C16   H4    1.082933 S    
C50   H22   1.081854 S    
O4    C1    1.280196 A    
C23   C39   1.400127 A    
C22   C24   1.396757 A    
C15   C17   1.396511 A    
C29   C35   1.410956 A    
C6    C22   1.398894 A    
C41   H15   1.083743 S    
C2    C45   1.417974 S    
C29   C33   1.419399 A    
C14   C16   1.390436 A    
C19   C21   1.405424 A    
C36   C38   1.386616 A    
C3    C27   1.461078 S    
C20   C22   1.405998 A    
C9    C11   1.390311 A    
O4    Zn2   1.998295 S    
O2    Zn2   1.998534 S    
O7    C4    1.290655 A    
O8    C3    1.291705 A    
C13   H1    1.083112 S    
O5    Zn1   2.009134 S    
C52   H30   1.111507 S    
C20   C33   1.411804 A    
C6    O10   1.350100 S    
C48   C49   1.414606 A    
C44   H18   1.083697 S    
C43   H17   1.083697 S    
C47   H19   1.081838 S    
C39   N5    1.425381 S    
C24   C40   1.396550 A    
