data_mof_unit_24014.cif
_audit_creation_date              2012-12-11T15:08:29-0500
_audit_creation_method            fapswitch 2.2
_symmetry_space_group_name_H-M    P1
_symmetry_Int_Tables_number       1
_space_group_crystal_system       triclinic
_cell_length_a                    26.703799
_cell_length_b                    7.100763
_cell_length_c                    12.093095
_cell_angle_alpha                 89.999909
_cell_angle_beta                  103.700999
_cell_angle_gamma                 89.999918
_cell_volume                      2227.81154029

loop_
_atom_site_label
_atom_site_type_symbol
_atom_type_description
_atom_site_fract_x
_atom_site_fract_y
_atom_site_fract_z
_atom_type_partial_charge
O1    O     O_R   0.437360 0.505910 0.042120 -0.541580
O2    O     O_R   0.562640 0.005910 0.957880 -0.541582
O3    O     O_R   0.542480 0.176660 0.157100 -0.543591
O4    O     O_R   0.457520 0.676660 0.842900 -0.543591
C1    C     C_R   0.555937 0.344743 0.198385 0.709402
C2    C     C_R   0.444063 0.844743 0.801615 0.709403
O5    O     O_R   0.436520 0.176250 0.054800 -0.539740
O6    O     O_R   0.563480 0.676250 0.945200 -0.539740
O7    O     O_R   0.455920 0.005040 0.854840 -0.539347
O8    O     O_R   0.544080 0.505040 0.145160 -0.539347
C3    C     C_R   0.417898 0.345210 0.065131 0.690618
C4    C     C_R   0.582102 0.845210 0.934869 0.690617
O9    O     O_3   0.506490 0.338900 0.934520 -0.377082
O10   O     O_3   0.493510 0.838900 0.065480 -0.377082
V1    V     V_3+5 0.498800 0.064400 0.012150 1.398559
V2    V     V_3+5 0.501200 0.564400 0.987850 1.398560
C5    C     C_R   0.680342 0.851248 0.756921 -0.160052
C6    C     C_R   0.319658 0.351267 0.243079 -0.160051
H1    H     H_    0.597988 0.835231 0.720614 0.115311
H2    H     H_    0.402012 0.335253 0.279386 0.115313
H3    H     H_    0.774594 0.876267 0.721708 0.136062
H4    H     H_    0.225406 0.376295 0.278290 0.136063
H5    H     H_    0.680860 0.852204 0.667551 0.130077
H6    H     H_    0.319140 0.352233 0.332448 0.130077
C7    C     C_R   0.631323 0.854095 0.901180 -0.033290
C8    C     C_R   0.368677 0.354096 0.098820 -0.033290
C9    C     C_R   0.867871 0.834642 0.206952 -0.222470
C10   C     C_R   0.132129 0.334634 0.793049 -0.222468
C11   C     C_R   0.823211 0.785049 0.242317 0.164005
C12   C     C_R   0.176789 0.285038 0.757685 0.164002
C13   C     C_R   0.775724 0.766612 0.158708 0.080954
C14   C     C_R   0.224276 0.266602 0.841294 0.080953
C15   C     C_R   0.772892 0.826335 0.043667 0.000304
C16   C     C_R   0.227108 0.326332 0.956334 0.000305
C17   C     C_R   0.819974 0.854993 0.009789 0.040016
C18   C     C_R   0.180026 0.354996 0.990211 0.040016
C19   C     C_R   0.725537 0.845939 0.958508 0.080313
C20   C     C_R   0.274463 0.345939 0.041492 0.080314
C21   C     C_R   0.726536 0.853597 0.841668 0.142395
C22   C     C_R   0.273464 0.353609 0.158332 0.142395
C23   C     C_R   0.773435 0.866591 0.810560 -0.211290
C24   C     C_R   0.226566 0.366610 0.189439 -0.211290
C25   C     C_R   0.819308 0.874559 0.893368 -0.183375
C26   C     C_R   0.180692 0.374572 0.106631 -0.183377
C27   C     C_R   0.677185 0.867039 0.985223 -0.239932
C28   C     C_R   0.322815 0.367033 0.014776 -0.239933
C29   C     C_R   0.633049 0.844050 0.786783 -0.193043
C30   C     C_R   0.366951 0.344064 0.213217 -0.193046
C31   C     C_R   0.867150 0.857499 0.092428 -0.118891
C32   C     C_R   0.132850 0.357498 0.907572 -0.118891
H7    H     H_    0.674358 0.892661 0.071090 0.138734
H8    H     H_    0.325642 0.392648 0.928909 0.138736
H9    H     H_    0.904824 0.844158 0.267190 0.124013
H10   H     H_    0.095176 0.344148 0.732810 0.124013
H11   H     H_    0.854524 0.892223 0.864881 0.124858
H12   H     H_    0.145476 0.392242 0.135117 0.124859
C33   C     C_R   0.092115 0.853397 0.308928 -0.033091
C34   C     C_R   0.907886 0.353399 0.691071 -0.033088
C35   C     C_R   0.410814 0.853990 0.685890 -0.058976
C36   C     C_R   0.589187 0.353989 0.314110 -0.058975
C37   C     C_R   0.107428 0.764010 0.506327 -0.174758
C38   C     C_R   0.892573 0.264024 0.493671 -0.174759
C39   C     C_R   0.073282 0.803267 0.402948 -0.182549
C40   C     C_R   0.926718 0.303278 0.597050 -0.182551
C41   C     C_R   0.145274 0.865386 0.318249 -0.228141
C42   C     C_R   0.854726 0.365382 0.681752 -0.228139
C43   C     C_R   0.180973 0.823240 0.422045 0.080452
C44   C     C_R   0.819028 0.323240 0.577955 0.080452
C45   C     C_R   0.160824 0.769982 0.516097 0.155918
C46   C     C_R   0.839176 0.269992 0.483901 0.155917
C47   C     C_R   0.235682 0.834195 0.436123 0.042595
C48   C     C_R   0.764319 0.334192 0.563876 0.042594
C49   C     C_R   0.269077 0.797527 0.545323 0.069690
C50   C     C_R   0.730924 0.297528 0.454676 0.069693
C51   C     C_R   0.246947 0.734325 0.633659 -0.232491
C52   C     C_R   0.753054 0.234333 0.366339 -0.232493
C53   C     C_R   0.193984 0.723916 0.619663 -0.241430
C54   C     C_R   0.806017 0.223928 0.380335 -0.241429
C55   C     C_R   0.258151 0.881682 0.345181 -0.193695
C56   C     C_R   0.741849 0.381672 0.654819 -0.193695
C57   C     C_R   0.311044 0.902478 0.361584 -0.194504
C58   C     C_R   0.688956 0.402465 0.638416 -0.194505
C59   C     C_R   0.343647 0.881747 0.469377 0.104249
C60   C     C_R   0.656353 0.381739 0.530623 0.104249
C61   C     C_R   0.323413 0.828019 0.562887 0.087330
C62   C     C_R   0.676587 0.328018 0.437112 0.087333
C63   C     C_R   0.396469 0.916741 0.483978 -0.208918
C64   C     C_R   0.603531 0.416731 0.516022 -0.208918
C65   C     C_R   0.430479 0.903279 0.591377 0.141402
C66   C     C_R   0.569521 0.403272 0.408623 0.141402
C67   C     C_R   0.358197 0.814683 0.671076 -0.265420
C68   C     C_R   0.641803 0.314686 0.328923 -0.265423
H13   H     H_    0.178819 0.681592 0.691465 0.147231
H14   H     H_    0.821182 0.181610 0.308532 0.147231
H15   H     H_    0.345497 0.781006 0.746930 0.112692
H16   H     H_    0.654504 0.281014 0.253068 0.112690
H17   H     H_    0.326485 0.939718 0.289262 0.140624
H18   H     H_    0.673515 0.439700 0.710739 0.140624
H19   H     H_    0.092044 0.726337 0.578634 0.113131
H20   H     H_    0.907957 0.226357 0.421363 0.113132
H21   H     H_    0.032172 0.791342 0.395660 0.103060
H22   H     H_    0.967828 0.291358 0.604338 0.103060
H23   H     H_    0.157182 0.904196 0.242244 0.105036
H24   H     H_    0.842818 0.404183 0.757757 0.105035
H25   H     H_    0.235993 0.903902 0.259500 0.136384
H26   H     H_    0.764007 0.403888 0.740501 0.136384
H27   H     H_    0.411214 0.957022 0.411139 0.113600
H28   H     H_    0.588785 0.457009 0.588861 0.113599
O11   O     O_R   0.955980 0.206520 0.854760 -0.538082
O12   O     O_R   0.044020 0.706520 0.145240 -0.538083
O13   O     O_R   0.063490 0.536770 0.945200 -0.541941
O14   O     O_R   0.936510 0.036770 0.054800 -0.541941
C69   C     C_R   0.083031 0.368439 0.939055 0.697919
C70   C     C_R   0.916969 0.868439 0.060945 0.697919
O15   O     O_R   0.957530 0.536190 0.842880 -0.544191
O16   O     O_R   0.042470 0.036190 0.157120 -0.544191
O17   O     O_R   0.937350 0.707210 0.042130 -0.536660
O18   O     O_R   0.062650 0.207210 0.957870 -0.536660
C71   C     C_R   0.943140 0.367250 0.803152 0.693140
C72   C     C_R   0.056861 0.867250 0.196848 0.693141
O19   O     O_3   0.993540 0.373870 0.065440 -0.375072
O20   O     O_3   0.006460 0.873870 0.934560 -0.375072
V3    V     V_3+5 0.001200 0.648440 0.987860 1.417379
V4    V     V_3+5 0.998800 0.148440 0.012140 1.417380
C73   C     C_3   0.487479 0.933080 0.601114 -0.387579
C74   C     C_3   0.506143 0.125207 0.650988 -0.745105
H29   H     H_    0.477018 0.235869 0.618341 0.223081
H30   H     H_    0.514545 0.122793 0.744868 0.251167
H31   H     H_    0.542643 0.161617 0.627302 0.206882
H32   H     H_    0.509747 0.818510 0.652899 0.156559
H33   H     H_    0.495891 0.924672 0.515728 0.185025
C75   C     C_3   0.512522 0.433074 0.398885 -0.387577
C76   C     C_3   0.493858 0.625206 0.349017 -0.745112
H34   H     H_    0.522983 0.735863 0.381671 0.223081
H35   H     H_    0.485458 0.622801 0.255138 0.251168
H36   H     H_    0.457358 0.661612 0.372703 0.206884
H37   H     H_    0.490253 0.318508 0.347097 0.156558
H38   H     H_    0.504109 0.424657 0.484271 0.185027
H39   H     H_    0.269503 0.695516 0.716481 0.126963
H40   H     H_    0.730498 0.195525 0.283516 0.126963
C77   C     C_3   0.734109 0.638960 0.185894 -0.369900
C78   C     C_3   0.704409 0.726295 0.267492 -0.760806
H41   H     H_    0.721044 0.681550 0.356436 0.226474
H42   H     H_    0.704758 0.882040 0.264010 0.219874
H43   H     H_    0.663673 0.678541 0.244168 0.227628
H44   H     H_    0.706729 0.587673 0.108116 0.181834
H45   H     H_    0.752428 0.506447 0.222117 0.183696
C79   C     C_3   0.265890 0.138946 0.814111 -0.369898
C80   C     C_3   0.295591 0.226278 0.732511 -0.760820
H46   H     H_    0.278958 0.181519 0.643569 0.226478
H47   H     H_    0.295238 0.382022 0.735985 0.219877
H48   H     H_    0.336327 0.178536 0.755841 0.227629
H49   H     H_    0.293270 0.087661 0.891889 0.181835
H50   H     H_    0.247571 0.006433 0.777889 0.183695
C81   C     C_3   0.825896 0.744237 0.367850 -0.334376
C82   C     C_3   0.879373 0.748876 0.449170 -0.771202
H51   H     H_    0.905036 0.642880 0.423576 0.229580
H52   H     H_    0.896849 0.890360 0.450983 0.225509
H53   H     H_    0.875909 0.715068 0.536708 0.235850
H54   H     H_    0.801162 0.846382 0.399366 0.203014
H55   H     H_    0.810293 0.602795 0.376104 0.201984
C83   C     C_3   0.174104 0.244222 0.632152 -0.334377
C84   C     C_3   0.120627 0.248861 0.550832 -0.771205
H56   H     H_    0.094964 0.142867 0.576426 0.229581
H57   H     H_    0.103151 0.390345 0.549017 0.225509
H58   H     H_    0.124091 0.215051 0.463294 0.235851
H59   H     H_    0.198838 0.346365 0.600636 0.203014
H60   H     H_    0.189707 0.102779 0.623901 0.201986

loop_
_geom_bond_atom_site_label_1
_geom_bond_atom_site_label_2
_ccdc_geom_bond_type
C59   C63   A    
O4    V2    S    
C74   H29   S    
C28   H8    S    
C9    C11   A    
C58   H18   S    
C45   C53   A    
C42   C44   A    
C84   H56   S    
O1    C3    A    
C39   H21   S    
O2    C4    A    
C2    O7    A    
O14   C70   A    
C61   C67   A    
O3    V1    S    
C21   C23   A    
C65   C73   S    
C81   H55   S    
C40   H22   S    
C38   C46   A    
C5    H5    S    
C50   C52   A    
C51   H39   S    
C6    H6    S    
C82   H51   S    
C84   H57   S    
C52   C54   A    
O14   V4    S    
C80   H47   S    
C35   C65   A    
C64   H28   S    
H1    C29   S    
C46   C54   A    
C27   H7    S    
C75   H38   S    
C56   H26   S    
C68   H16   S    
C48   C56   A    
C55   H25   S    
C5    C21   A    
C53   H13   S    
C37   C39   A    
C6    C22   A    
O19   V4    S    
C38   C40   A    
C10   C32   A    
C73   H32   S    
C34   C42   A    
C78   H41   S    
C75   C76   S    
C41   C43   A    
C17   C31   A    
C76   H36   S    
C13   C15   A    
C12   C14   A    
O19   V3    S    
C17   C25   A    
C7    C29   A    
C16   C18   A    
C8    C30   A    
C11   C81   S    
C66   C75   S    
C69   O18   A    
C22   C24   A    
C31   C70   S    
O6    V2    S    
C49   C51   A    
C78   H43   S    
C83   H60   S    
C37   H19   S    
C24   C26   A    
C47   C55   A    
C57   C59   A    
C33   C39   A    
C36   C68   A    
C34   C40   A    
O15   V3    S    
C77   H45   S    
O13   V3    S    
C42   H24   S    
C84   H58   S    
C79   C80   S    
C56   C58   A    
C80   H48   S    
O12   C72   A    
C47   C49   A    
C10   H10   S    
C35   C67   A    
C3    C8    S    
C75   H37   S    
C15   C19   A    
O16   C72   A    
C44   C48   A    
C43   C45   A    
C14   C16   A    
C13   C77   S    
O5    C3    A    
O12   V3    S    
C73   H33   S    
O6    C4    A    
O13   C69   A    
O1    V2    S    
O18   V4    S    
C50   C62   A    
O2    V1    S    
C51   C53   A    
C49   C61   A    
H2    C30   S    
C77   H44   S    
C33   C72   S    
C38   H20   S    
C48   C50   A    
C59   C61   A    
C64   C66   A    
C58   C60   A    
C63   C65   A    
C73   C74   S    
H3    C23   S    
C18   C26   A    
O4    C2    A    
C79   H49   S    
C12   C83   S    
C52   H40   S    
C19   C27   A    
C7    C27   A    
C78   H42   S    
C18   C32   A    
O11   C71   A    
C55   C57   A    
C83   C84   S    
C25   H11   S    
C79   H50   S    
C74   H30   S    
O16   V4    S    
C1    C36   S    
C81   H54   S    
C16   C20   A    
C2    C35   S    
C82   H53   S    
C23   C25   A    
C5    C29   A    
C33   C41   A    
O3    C1    A    
C6    C30   A    
C9    H9    S    
O11   V4    S    
C14   C79   S    
C36   C66   A    
O15   C71   A    
C74   H31   S    
C4    C7    S    
C32   C69   S    
C37   C45   A    
C82   H52   S    
O17   V3    S    
C10   C12   A    
C19   C21   A    
C62   C68   A    
C80   H46   S    
C20   C22   A    
C26   H12   S    
C76   H34   S    
C60   C64   A    
C57   H17   S    
C54   H14   S    
O5    V1    S    
C34   C71   S    
C15   C17   A    
C43   C47   A    
O7    V1    S    
C20   C28   A    
C70   O17   A    
C8    C28   A    
C67   H15   S    
C83   H59   S    
C1    O8    A    
C63   H27   S    
C11   C13   A    
O9    V2    S    
H4    C24   S    
C81   C82   S    
C76   H35   S    
C44   C46   A    
C41   H23   S    
O10   V1    S    
C60   C62   A    
O8    V2    S    
O20   V3    S    
C77   C78   S    
O20   V4    S    
C9    C31   A    
