data_mof_unit_25274.cif
_audit_creation_date              2012-12-10T17:53:17-0500
_audit_creation_method            fapswitch 2.2
_symmetry_space_group_name_H-M    P1
_symmetry_Int_Tables_number       1
_space_group_crystal_system       triclinic
_cell_length_a                    23.42932
_cell_length_b                    10.660102
_cell_length_c                    9.948004
_cell_angle_alpha                 87.713488
_cell_angle_beta                  89.346119
_cell_angle_gamma                 94.595995
_cell_volume                      2474.37559789

loop_
_atom_site_label
_atom_site_type_symbol
_atom_type_description
_atom_site_fract_x
_atom_site_fract_y
_atom_site_fract_z
_atom_type_partial_charge
C1    C     C_R   0.506469 0.261931 0.503272 1.021517
C2    C     C_R   0.966946 0.278351 0.454870 0.586003
C3    C     C_R   0.026618 0.283563 0.458989 0.390306
C4    C     C_R   0.058995 0.401550 0.454212 -0.207377
C5    C     C_R   0.030679 0.513942 0.452228 -0.140887
C6    C     C_R   0.062538 0.632549 0.450702 -0.209750
C7    C     C_R   0.033754 0.744180 0.443350 0.389928
C8    C     C_R   0.974064 0.737204 0.450144 0.588804
C9    C     C_R   0.119040 0.411003 0.454634 0.625805
C10   C     C_R   0.122321 0.635430 0.459651 0.627565
C11   C     C_R   0.244926 0.577291 0.371362 0.435343
C12   C     C_R   0.389472 0.503716 0.500206 1.099461
C13   C     C_R   0.304132 0.575316 0.381876 0.261119
C14   C     C_R   0.327671 0.518830 0.497607 -0.420258
C15   C     C_R   0.291990 0.479883 0.609364 0.383508
C16   C     C_R   0.232390 0.484333 0.599315 0.404412
C17   C     C_R   0.209278 0.530997 0.478805 -0.067566
C18   C     C_R   0.760140 0.507371 0.359941 0.654241
C19   C     C_R   0.701267 0.510039 0.368501 -0.364178
C20   C     C_R   0.672913 0.495325 0.494043 -0.316414
C21   C     C_R   0.704492 0.475480 0.611407 0.477645
C22   C     C_R   0.763956 0.470119 0.602591 0.386698
C23   C     C_R   0.497643 0.740012 0.497724 0.911418
C24   C     C_R   0.791444 0.489261 0.476512 -0.024289
C25   C     C_R   0.508703 0.096503 0.764714 0.412126
C26   C     C_R   0.478179 0.028096 0.869107 0.465641
C27   C     C_R   0.442431 0.921850 0.841363 0.480050
C28   C     C_R   0.441750 0.875438 0.711496 0.416014
C29   C     C_R   0.479464 0.934125 0.610835 -0.213837
C30   C     C_R   0.502698 0.056262 0.630058 -0.245393
C31   C     C_R   0.517491 0.130970 0.512159 -0.277300
C32   C     C_R   0.532555 0.074509 0.393975 0.552490
C33   C     C_R   0.527818 0.945070 0.389883 0.405836
C34   C     C_R   0.610633 0.499537 0.498993 0.916647
C35   C     C_R   0.497340 0.874715 0.494389 -0.233394
C36   C     C_R   0.419452 0.329776 0.146771 0.575724
C37   C     C_R   0.379834 0.251583 0.080334 0.270223
C38   C     C_R   0.382466 0.247691 0.943508 0.449501
C39   C     C_R   0.421984 0.326666 0.870428 0.555316
C40   C     C_R   0.461718 0.415334 0.932001 -0.208480
C41   C     C_R   0.461185 0.416046 0.076877 -0.183796
C42   C     C_R   0.535676 0.580691 0.067344 0.569743
C43   C     C_R   0.536375 0.580610 0.922920 0.484081
C44   C     C_R   0.882139 0.610488 0.464443 0.693936
C45   C     C_R   0.878533 0.386096 0.459235 0.654258
C46   C     C_R   0.938429 0.389474 0.455169 -0.208024
C47   C     C_R   0.970380 0.507710 0.453960 -0.159025
C48   C     C_R   0.942039 0.619707 0.456021 -0.216380
H1    H     H_    0.678083 0.525495 0.276496 0.241288
N1    N     N_R   0.852251 0.495205 0.466982 -0.319263
N2    N     N_R   0.148712 0.525846 0.462617 -0.314087
N3    N     N_R   0.499460 0.498800 0.142780 -0.116879
N4    N     N_R   0.499440 0.498720 0.857170 -0.102595
O1    O     O_R   0.500000 0.316780 0.614690 -0.526506
O2    O     O_2   0.846499 0.275320 0.455888 -0.480463
O3    O     O_2   0.148052 0.306988 0.447899 -0.505337
O4    O     O_2   0.154123 0.745917 0.469273 -0.498079
O5    O     O_R   0.500000 0.316750 0.385360 -0.506222
O6    O     O_R   0.416160 0.499970 0.614690 -0.517600
O7    O     O_R   0.416150 0.499950 0.385360 -0.545415
O8    O     O_R   0.500000 0.683250 0.614640 -0.567913
O9    O     O_R   0.500000 0.683220 0.385310 -0.560934
O10   O     O_R   0.583850 0.500050 0.614640 -0.544226
O11   O     O_R   0.583840 0.500030 0.385310 -0.606573
O12   O     O_2   0.853591 0.715238 0.470472 -0.443365
Zn1   Zn    Zn3+2 0.500000 0.500020 0.653130 1.124179
Zn2   Zn    Zn3+2 0.500000 0.499980 0.346870 1.118975
F1    F     F_    0.937437 0.163289 0.454393 -0.553121
F2    F     F_    0.678209 0.462906 0.733888 -0.676239
O13   O     O_3   0.796448 0.459064 0.717134 -0.565184
C49   C     C_3   0.788504 0.334328 0.771035 -0.158558
H2    H     H_    0.793955 0.263619 0.693488 0.168323
H3    H     H_    0.745977 0.316003 0.821521 0.194395
H4    H     H_    0.821435 0.321215 0.848463 0.198975
F3    F     F_    0.554131 0.143968 0.284643 -0.601177
O14   O     O_3   0.546308 0.196705 0.798905 -0.539717
C50   C     C_3   0.603021 0.165525 0.777903 -0.165867
H5    H     H_    0.614099 0.168081 0.668871 0.128615
H6    H     H_    0.610617 0.072077 0.825678 0.145346
H7    H     H_    0.632424 0.236866 0.825446 0.223653
F4    F     F_    0.482719 0.066129 0.997391 -0.572071
F5    F     F_    0.409569 0.861588 0.940999 -0.608808
O15   O     O_3   0.402599 0.776962 0.681469 -0.586549
C51   C     C_3   0.350184 0.827825 0.651401 -0.262730
H8    H     H_    0.355286 0.902148 0.569183 0.172474
H9    H     H_    0.330926 0.865834 0.742459 0.233252
H10   H     H_    0.319581 0.752134 0.616065 0.145203
O16   O     O_3   0.551732 0.888705 0.282225 -0.501499
C52   C     C_3   0.610894 0.883560 0.305716 -0.071290
H11   H     H_    0.631470 0.848047 0.215475 0.218194
H12   H     H_    0.618101 0.817612 0.392318 0.106783
H13   H     H_    0.632699 0.978183 0.322673 0.139962
F6    F     F_    0.570209 0.664930 0.132578 -0.663321
O17   O     O_3   0.052877 0.171893 0.465930 -0.542800
C53   C     C_3   0.054804 0.130653 0.602311 -0.041615
H14   H     H_    0.075968 0.204265 0.665578 0.128127
H15   H     H_    0.080547 0.047877 0.609807 0.222674
H16   H     H_    0.011163 0.100659 0.642687 0.175770
F7    F     F_    0.413769 0.312260 0.279427 -0.600741
O18   O     O_3   0.340905 0.169447 0.151888 -0.499134
C54   C     C_3   0.291756 0.233000 0.178826 -0.152699
H17   H     H_    0.301870 0.314190 0.243855 0.162629
H18   H     H_    0.259993 0.166754 0.234108 0.205193
H19   H     H_    0.271468 0.264915 0.084103 0.141940
F8    F     F_    0.345594 0.166087 0.879339 -0.569721
F9    F     F_    0.417316 0.311034 0.739283 -0.574545
O19   O     O_3   0.570074 0.669308 0.844895 -0.606739
C55   C     C_3   0.627683 0.678400 0.886117 -0.106505
H20   H     H_    0.655411 0.702482 0.796145 0.193085
H21   H     H_    0.635117 0.756636 0.955781 0.184924
H22   H     H_    0.641457 0.589071 0.932704 0.195899
O20   O     O_3   0.063554 0.861582 0.436563 -0.548561
C56   C     C_3   0.069220 0.902686 0.300170 -0.057942
H23   H     H_    0.091490 0.835057 0.239748 0.129217
H24   H     H_    0.095705 0.993815 0.293833 0.214110
H25   H     H_    0.026837 0.918723 0.256172 0.175580
F10   F     F_    0.948058 0.846668 0.450611 -0.553488
O21   O     O_3   0.221643 0.630205 0.257484 -0.547834
C57   C     C_3   0.215448 0.538261 0.159754 -0.266373
H26   H     H_    0.185641 0.456818 0.195124 0.158412
H27   H     H_    0.257515 0.505623 0.130258 0.163304
H28   H     H_    0.196957 0.581358 0.068671 0.175197
O22   O     O_3   0.338336 0.621914 0.273927 -0.584762
C58   C     C_3   0.354824 0.749928 0.293184 -0.078974
H29   H     H_    0.380712 0.788293 0.204697 0.250805
H30   H     H_    0.382166 0.761130 0.383071 0.114241
H31   H     H_    0.317006 0.806246 0.301430 0.181104
O23   O     O_3   0.315489 0.428748 0.724275 -0.505932
C59   C     C_3   0.306282 0.503545 0.835680 -0.114786
H32   H     H_    0.298986 0.603350 0.808474 0.133563
H33   H     H_    0.344617 0.506240 0.899918 0.146031
H34   H     H_    0.269809 0.459407 0.897228 0.156951
O24   O     O_3   0.197345 0.427954 0.701606 -0.548265
C60   C     C_3   0.167240 0.519104 0.765694 -0.314638
H35   H     H_    0.157900 0.485089 0.870970 0.174793
H36   H     H_    0.125283 0.528643 0.717696 0.177838
H37   H     H_    0.191845 0.612892 0.769184 0.148959
F11   F     F_    0.787115 0.524699 0.238377 -0.621329

loop_
_geom_bond_atom_site_label_1
_geom_bond_atom_site_label_2
_ccdc_geom_bond_type
C39   F9    S    
C54   H17   S    
C42   F6    S    
C36   F7    S    
C53   H14   S    
C9    N2    A    
C51   H10   S    
O23   C59   S    
C17   N2    S    
C60   H37   S    
C44   O12   S    
C53   H16   S    
O22   C58   S    
C50   H5    S    
C2    C46   A    
C5    C47   A    
C28   C29   A    
C26   C27   A    
C29   C30   A    
O9    Zn2   S    
C18   C24   A    
C36   C37   A    
C33   O16   S    
C51   H9    S    
C59   H32   S    
C2    F1    S    
O6    Zn1   S    
C30   C31   A    
C13   O22   S    
C50   H7    S    
C10   N2    A    
C15   C16   A    
C1    C31   S    
C55   H20   S    
C18   C19   A    
C18   F11   S    
O21   C57   S    
O18   C54   S    
C12   O6    A    
O8    Zn1   S    
C43   N4    A    
C23   O9    A    
O15   C51   S    
O7    Zn2   S    
C16   C17   A    
C47   C48   A    
O19   C55   S    
O13   C49   S    
C52   H12   S    
C41   N3    A    
C56   H25   S    
C20   C34   S    
O16   C52   S    
C57   H27   S    
O10   Zn1   S    
C54   H18   S    
C21   C22   A    
C28   O15   S    
C36   C41   A    
C32   F3    S    
C16   O24   S    
O20   C56   S    
C8    F10   S    
C50   H6    S    
C24   N1    S    
C38   C39   A    
O11   Zn2   S    
C7    C8    A    
C10   O4    S    
O14   C50   S    
C39   C40   A    
C49   H3    S    
C60   H36   S    
C25   C26   A    
C45   C46   A    
C21   F2    S    
C1    O1    A    
C8    C48   A    
C37   C38   A    
C19   H1    S    
C31   C32   A    
C34   O11   A    
C9    O3    S    
C43   O19   S    
C51   H8    S    
C52   H13   S    
N4    Zn1   S    
C60   H35   S    
N3    Zn2   S    
C58   H31   S    
C40   C41   A    
C12   C14   S    
C26   F4    S    
C23   C35   S    
C15   O23   S    
C7    O20   S    
O24   C60   S    
C22   C24   A    
C42   C43   A    
C3    C4    A    
C58   H30   S    
C56   H23   S    
C57   H28   S    
C44   N1    A    
C25   C30   A    
C46   C47   A    
C11   C17   A    
C27   F5    S    
C4    C5    A    
C6    C10   A    
C49   H4    S    
C57   H26   S    
C53   H15   S    
C6    C7    A    
O1    Zn1   S    
C54   H19   S    
C29   C35   A    
C55   H22   S    
C25   O14   S    
C32   C33   A    
C59   H34   S    
C19   C20   A    
C2    C3    A    
C52   H11   S    
C49   H2    S    
C1    O5    A    
C11   C13   A    
C5    C6    A    
C45   N1    A    
C38   F8    S    
C34   O10   A    
C33   C35   A    
C55   H21   S    
C3    O17   S    
O17   C53   S    
C12   O7    A    
O5    Zn2   S    
C23   O8    A    
C20   C21   A    
C45   O2    S    
C40   N4    A    
C27   C28   A    
C14   C15   A    
C59   H33   S    
C4    C9    A    
C13   C14   A    
C11   O21   S    
C22   O13   S    
C37   O18   S    
C44   C48   A    
C42   N3    A    
C58   H29   S    
C56   H24   S    
