data_mof_unit_41104.cif
_audit_creation_date              2012-12-10T18:07:32-0500
_audit_creation_method            fapswitch 2.2
_symmetry_space_group_name_H-M    P1
_symmetry_Int_Tables_number       1
_space_group_crystal_system       triclinic
_cell_length_a                    11.502451
_cell_length_b                    12.720403
_cell_length_c                    13.042976
_cell_angle_alpha                 81.2046
_cell_angle_beta                  93.220059
_cell_angle_gamma                 101.807989
_cell_volume                      1845.43250985

loop_
_atom_site_label
_atom_site_type_symbol
_atom_type_description
_atom_site_fract_x
_atom_site_fract_y
_atom_site_fract_z
_atom_type_partial_charge
C1    C     C_R   0.491024 0.438939 0.691392 0.867751
C2    C     C_R   0.540004 0.597316 0.200454 -0.045610
C3    C     C_R   0.411455 0.301246 0.837747 -0.143953
C4    C     C_R   0.386987 0.273659 0.942490 -0.148902
C5    C     C_R   0.431531 0.347037 0.010808 -0.190284
C6    C     C_R   0.507180 0.447540 0.975490 0.084118
C7    C     C_R   0.546990 0.466541 0.873120 0.082357
C8    C     C_R   0.544553 0.529966 0.038183 0.083658
C9    C     C_R   0.636039 0.620334 0.005381 0.174513
C10   C     C_R   0.686989 0.629064 0.909325 -0.242147
C11   C     C_R   0.642863 0.553186 0.843666 -0.191780
C12   C     C_R   0.717403 0.500785 0.500528 0.900118
C13   C     C_R   0.491603 0.525641 0.132194 -0.247475
C14   C     C_R   0.630254 0.686650 0.169017 -0.194311
C15   C     C_R   0.487824 0.399462 0.802169 -0.099911
C16   C     C_R   0.312421 0.089524 0.358725 -0.299862
C17   C     C_R   0.672125 0.804733 0.592061 0.017553
C18   C     C_R   0.739080 0.907725 0.558901 0.157214
C19   C     C_R   0.681724 0.984441 0.500206 -0.077400
C20   C     C_R   0.557180 0.963173 0.488622 0.010093
C21   C     C_R   0.502657 0.853109 0.497858 0.204050
C22   C     C_R   0.487761 0.044025 0.455688 -0.119486
C23   C     C_R   0.514096 0.561092 0.308893 0.835576
C24   C     C_R   0.380523 0.012979 0.399160 0.141995
C25   C     C_R   0.341690 0.904718 0.384874 -0.248531
C26   C     C_R   0.400484 0.825428 0.435672 -0.179892
C27   C     C_R   0.512652 0.149921 0.485667 0.490851
C28   C     C_R   0.345398 0.194767 0.380974 -0.076329
C29   C     C_R   0.282592 0.499205 0.499549 0.874100
C30   C     C_1   0.838534 0.502166 0.500929 -0.148585
C31   C     C_1   0.940757 0.501059 0.500660 0.021521
C32   C     C_1   0.059190 0.498762 0.499947 0.006621
C33   C     C_1   0.161431 0.497742 0.499477 -0.179186
C34   C     C_R   0.676496 0.699438 0.070320 -0.192494
H1    H     H_    0.669080 0.742574 0.222226 0.159450
H2    H     H_    0.262830 0.880517 0.337797 0.150866
H3    H     H_    0.232669 0.067471 0.312073 0.154395
H4    H     H_    0.715457 0.741993 0.632661 0.133131
H5    H     H_    0.734065 0.059987 0.465095 0.197411
H6    H     H_    0.368371 0.745585 0.418244 0.201255
H7    H     H_    0.759333 0.695622 0.884073 0.149082
H8    H     H_    0.747217 0.768070 0.046653 0.142876
H9    H     H_    0.415622 0.463331 0.156878 0.141767
H10   H     H_    0.367457 0.247656 0.784184 0.171073
H11   H     H_    0.407915 0.321991 0.091018 0.137469
H12   H     H_    0.328894 0.197397 0.970102 0.148145
H13   H     H_    0.685257 0.562328 0.769950 0.155566
H14   H     H_    0.292874 0.254457 0.350183 0.156066
N1    N     N_R   0.440320 0.222190 0.444690 -0.152025
N2    N     N_R   0.559060 0.776980 0.554780 -0.147383
O1    O     O_R   0.471500 0.366730 0.627160 -0.537696
O2    O     O_R   0.509620 0.544830 0.662520 -0.615329
O3    O     O_R   0.646490 0.410960 0.482310 -0.520115
O4    O     O_R   0.684610 0.589050 0.517670 -0.645195
O5    O     O_R   0.490380 0.455170 0.337480 -0.616877
O6    O     O_R   0.528500 0.633270 0.372840 -0.627153
O7    O     O_R   0.315390 0.410950 0.482330 -0.615936
O8    O     O_R   0.353510 0.589040 0.517690 -0.626329
Zn1   Zn    Zn3+2 0.474550 0.381080 0.476390 1.011046
Zn2   Zn    Zn3+2 0.525450 0.618920 0.523610 0.925715
S1    S     S_3+6 0.631126 0.181093 0.582332 0.019313
O9    O     O_2   0.639131 0.079781 0.656367 -0.323540
O10   O     O_2   0.746161 0.221750 0.526561 -0.355334
O11   O     O_3   0.625070 0.270652 0.661282 -0.524601
H15   H     H_    0.702832 0.280848 0.699047 0.365447
C35   C     C_3   0.870181 0.935049 0.581620 -0.880713
H16   H     H_    0.902224 0.865511 0.628431 0.226912
H17   H     H_    0.918670 0.956929 0.507698 0.236789
H18   H     H_    0.890371 0.005071 0.625602 0.278496

loop_
_geom_bond_atom_site_label_1
_geom_bond_atom_site_label_2
_ccdc_geom_bond_type
C17   N2    A    
C16   C28   A    
S1    O11   S    
C35   H17   S    
C21   C26   A    
C14   C34   A    
C6    C7    A    
C1    C15   S    
O5    Zn1   S    
C18   C35   S    
C27   S1    S    
C9    C10   A    
C11   H13   S    
C19   C20   A    
N1    Zn1   S    
C16   H3    S    
C17   H4    S    
N2    Zn2   S    
C32   C33   T    
C20   C21   A    
C7    C15   A    
C35   H16   S    
O3    Zn1   S    
C23   O6    A    
C16   C24   A    
C4    H12   S    
C29   O8    A    
C10   H7    S    
C7    C11   A    
C1    O1    A    
C30   C31   T    
C26   H6    S    
C5    C6    A    
C19   H5    S    
C27   N1    A    
C6    C8    A    
C23   O5    A    
C21   N2    A    
C29   O7    A    
C9    C34   A    
C17   C18   A    
C22   C27   A    
S1    O9    D    
C2    C14   A    
C1    O2    A    
C22   C24   A    
C3    H10   S    
O7    Zn1   S    
C35   H18   S    
O1    Zn1   S    
C10   C11   A    
C25   H2    S    
O8    Zn2   S    
C3    C4    A    
C8    C13   A    
O6    Zn2   S    
C13   H9    S    
C3    C15   A    
C24   C25   A    
C8    C9    A    
C18   C19   A    
C28   N1    A    
C2    C23   S    
S1    O10   D    
C2    C13   A    
C28   H14   S    
O4    Zn2   S    
O2    Zn2   S    
C12   C30   S    
C25   C26   A    
C5    H11   S    
C14   H1    S    
C31   C32   S    
C12   O4    A    
C12   O3    A    
C29   C33   S    
C20   C22   A    
C4    C5    A    
O11   H15   S    
C34   H8    S    
