data_mof_unit_22857.cif
_audit_creation_date              2012-12-10T19:08:05-0500
_audit_creation_method            fapswitch 2.2
_symmetry_space_group_name_H-M    P1
_symmetry_Int_Tables_number       1
_space_group_crystal_system       triclinic
_cell_length_a                    9.077727
_cell_length_b                    10.809018
_cell_length_c                    9.547082
_cell_angle_alpha                 90.00212
_cell_angle_beta                  90.017276
_cell_angle_gamma                 90.103842
_cell_volume                      936.770654111

loop_
_atom_site_label
_atom_site_type_symbol
_atom_type_description
_atom_site_fract_x
_atom_site_fract_y
_atom_site_fract_z
_atom_type_partial_charge
C1    C     C_R   0.508471 0.262454 0.499919 0.796024
C2    C     C_R   0.571807 0.933598 0.382175 -0.210948
C3    C     C_R   0.519978 0.870581 0.501065 -0.185724
C4    C     C_R   0.497686 0.936723 0.624296 0.118843
C5    C     C_3   0.372173 0.932659 0.725255 -0.442302
C6    C     C_3   0.376595 0.073162 0.725044 -0.447447
C7    C     C_R   0.565185 0.594375 0.073615 0.254710
C8    C     C_R   0.423094 0.413842 0.074392 -0.047288
C9    C     C_R   0.422941 0.413936 0.925516 -0.067859
C10   C     C_R   0.565132 0.594373 0.926326 0.255244
C11   C     C_3   0.722952 0.632378 0.920323 -0.492302
C12   C     C_R   0.220675 0.499944 0.499968 0.847158
C13   C     C_3   0.723142 0.632190 0.079384 -0.495748
C14   C     C_R   0.502841 0.737670 0.500046 0.819798
C15   C     C_R   0.779322 0.500102 0.500034 0.834339
C16   C     C_1   0.065535 0.500027 0.499975 -0.190346
C17   C     C_1   0.934438 0.500087 0.500032 -0.194636
C18   C     C_R   0.501684 0.063705 0.623930 0.097056
C19   C     C_R   0.531073 0.129414 0.501114 -0.214414
C20   C     C_R   0.582545 0.062724 0.382319 0.382342
Cu1   Cu    Cu3+1 0.499990 0.499980 0.640670 0.944248
Cu2   Cu    Cu3+1 0.500010 0.500020 0.359330 0.948111
H1    H     H_    0.736888 0.726234 0.874545 0.197749
H2    H     H_    0.795416 0.559526 0.124606 0.224826
H3    H     H_    0.737615 0.725908 0.125290 0.194205
H4    H     H_    0.602929 0.883167 0.288715 0.175426
H5    H     H_    0.270005 0.893737 0.678218 0.193001
H6    H     H_    0.404677 0.891535 0.827413 0.201660
H7    H     H_    0.276911 0.116131 0.678060 0.190692
H8    H     H_    0.411712 0.112758 0.827209 0.204014
H9    H     H_    0.363092 0.342698 0.130106 0.151963
H10   H     H_    0.362491 0.343124 0.869743 0.137887
H11   H     H_    0.795267 0.559926 0.874775 0.224168
N1    N     N_R   0.500920 0.500930 0.147930 -0.188924
N2    N     N_R   0.500930 0.500890 0.852020 -0.186820
O1    O     O_R   0.500000 0.319640 0.618810 -0.578061
O2    O     O_R   0.500020 0.319680 0.381230 -0.573048
O3    O     O_R   0.288380 0.499980 0.618770 -0.579370
O4    O     O_R   0.288400 0.500020 0.381190 -0.576182
O5    O     O_R   0.499980 0.680320 0.618770 -0.578164
O6    O     O_R   0.500000 0.680360 0.381190 -0.586077
O7    O     O_R   0.711600 0.499980 0.618810 -0.579754
O8    O     O_R   0.711620 0.500020 0.381230 -0.585851
O9    O     O_3   0.639406 0.118886 0.264510 -0.723845
H12   H     H_    0.693145 0.194151 0.294576 0.331650

loop_
_geom_bond_atom_site_label_1
_geom_bond_atom_site_label_2
_ccdc_geom_bond_type
C7    C10   A    
C10   N2    A    
Cu1   N2    S    
C5    H6    S    
C19   C20   A    
C1    O2    A    
C4    C18   A    
C12   O4    A    
C7    C13   S    
C2    C3    A    
C15   O8    A    
C2    H4    S    
Cu1   O1    S    
C8    N1    A    
Cu1   Cu2   S    
C11   C13   S    
C13   H3    S    
C16   C17   T    
C3    C14   S    
C14   O6    A    
Cu2   N1    S    
Cu2   O4    S    
C13   H2    S    
C11   H1    S    
C6    H8    S    
C12   O3    A    
C5    C6    S    
C6    C18   S    
C7    N1    A    
C1    C19   S    
Cu2   O6    S    
C10   C11   S    
Cu1   O3    S    
C2    C20   A    
C3    C4    A    
C11   H11   S    
C6    H7    S    
O9    H12   S    
C15   O7    A    
C15   C17   S    
C18   C19   A    
C9    N2    A    
C8    C9    A    
Cu1   O7    S    
C9    H10   S    
C20   O9    S    
C5    H5    S    
Cu2   O2    S    
C14   O5    A    
Cu2   O8    S    
C8    H9    S    
C12   C16   S    
C1    O1    A    
C4    C5    S    
Cu1   O5    S    
