data_mof_unit_39386.cif
_audit_creation_date              2012-12-11T14:25:03-0500
_audit_creation_method            fapswitch 2.2
_symmetry_space_group_name_H-M    P1
_symmetry_Int_Tables_number       1
_space_group_crystal_system       triclinic
_cell_length_a                    19.059234
_cell_length_b                    10.987629
_cell_length_c                    18.789825
_cell_angle_alpha                 89.588293
_cell_angle_beta                  91.055536
_cell_angle_gamma                 91.151331
_cell_volume                      3933.33267907

loop_
_atom_site_label
_atom_site_type_symbol
_atom_type_description
_atom_site_fract_x
_atom_site_fract_y
_atom_site_fract_z
_atom_type_partial_charge
C1    C     C_R   0.729203 0.373582 0.144858 0.563067
C2    C     C_R   0.271071 0.372749 0.855550 0.583589
C3    C     C_R   0.229144 0.873415 0.144854 0.567399
C4    C     C_R   0.770822 0.873202 0.855392 0.579507
C5    C     C_3   0.493334 0.047875 0.023974 -0.101063
C6    C     C_3   0.546452 0.089517 0.967352 -0.116135
C7    C     C_3   0.950647 0.593996 0.033426 -0.119850
C8    C     C_3   0.001296 0.546825 0.977192 -0.098437
C9    C     C_R   0.756535 0.899720 0.930939 0.006631
C10   C     C_R   0.243243 0.900963 0.069291 0.013153
C11   C     C_R   0.257446 0.398268 0.931285 0.014556
C12   C     C_R   0.743462 0.401505 0.069274 0.004398
C13   C     C_R   0.698831 0.847827 0.968478 -0.010527
C14   C     C_R   0.300093 0.851060 0.031865 -0.007812
C15   C     C_R   0.198985 0.348763 0.968545 -0.009701
C16   C     C_R   0.800144 0.351031 0.031864 -0.009850
C17   C     C_R   0.702534 0.840091 0.044270 0.037441
C18   C     C_R   0.295267 0.841656 0.956379 0.030299
C19   C     C_R   0.202505 0.340312 0.044279 0.031237
C20   C     C_R   0.795428 0.341742 0.956346 0.036066
C21   C     C_R   0.812275 0.955450 0.043151 -0.164164
C22   C     C_R   0.187944 0.956229 0.957285 -0.172940
C23   C     C_R   0.312866 0.453609 0.043637 -0.169433
C24   C     C_R   0.687414 0.454390 0.957028 -0.165757
C25   C     C_R   0.812950 0.950362 0.970185 -0.150222
C26   C     C_R   0.187084 0.949550 0.030096 -0.139233
C27   C     C_R   0.314645 0.445634 0.970817 -0.138866
C28   C     C_R   0.687453 0.450614 0.030013 -0.150205
C29   C     C_R   0.638426 0.800566 0.933270 -0.106424
C30   C     C_R   0.360526 0.807032 0.066885 -0.104119
C31   C     C_R   0.138274 0.303565 0.933113 -0.104680
C32   C     C_R   0.860610 0.307129 0.066959 -0.103806
C33   C     C_R   0.088950 0.233801 0.969463 -0.175381
C34   C     C_R   0.909295 0.240785 0.030317 -0.168107
C35   C     C_R   0.588818 0.732289 0.970173 -0.168616
C36   C     C_R   0.408398 0.738514 0.030417 -0.174338
C37   C     C_R   0.597972 0.709744 0.042523 -0.112473
C38   C     C_R   0.397793 0.713843 0.958582 -0.101684
C39   C     C_R   0.098081 0.209789 0.041680 -0.107178
C40   C     C_R   0.898850 0.216159 0.958463 -0.112197
C41   C     C_R   0.654557 0.761559 0.080013 0.179820
C42   C     C_R   0.341396 0.763328 0.921168 0.183260
C43   C     C_R   0.154339 0.261677 0.079653 0.181555
C44   C     C_R   0.842028 0.264302 0.921133 0.180573
C45   C     C_R   0.533712 0.154814 0.143526 0.553126
C46   C     C_R   0.467477 0.155926 0.855730 0.551204
C47   C     C_R   0.033179 0.655297 0.143923 0.552580
C48   C     C_R   0.966309 0.655233 0.856419 0.553447
C49   C     C_R   0.755075 0.909123 0.080794 0.019175
C50   C     C_R   0.243794 0.909792 0.919641 0.010568
C51   C     C_R   0.255138 0.408738 0.080994 0.013767
C52   C     C_R   0.743605 0.408913 0.919479 0.018332
C53   C     C_R   0.493056 0.152806 0.572665 0.021327
C54   C     C_R   0.550471 0.142049 0.436895 0.012360
C55   C     C_R   0.993056 0.652807 0.572665 0.021162
C56   C     C_R   0.050470 0.642049 0.436895 0.012460
C57   C     C_R   0.479668 0.048001 0.528752 -0.025315
C58   C     C_R   0.516552 0.035491 0.466000 -0.015932
C59   C     C_R   0.979667 0.548002 0.528752 -0.025364
C60   C     C_R   0.016551 0.535492 0.466000 -0.015900
C61   C     C_R   0.567262 0.239800 0.481755 -0.161097
C62   C     C_R   0.541914 0.241345 0.550983 -0.153018
C63   C     C_R   0.067262 0.739801 0.481754 -0.161052
C64   C     C_R   0.041914 0.741345 0.550982 -0.152964
C65   C     C_R   0.433344 0.950874 0.547382 -0.141379
C66   C     C_R   0.515279 0.917907 0.433427 -0.150352
C67   C     C_R   0.933343 0.450876 0.547381 -0.141400
C68   C     C_R   0.015278 0.417907 0.433426 -0.150375
C69   C     C_R   0.938197 0.334473 0.518568 0.290063
C70   C     C_R   0.971210 0.322906 0.454890 0.274624
C71   C     C_R   0.438198 0.834471 0.518567 0.290032
C72   C     C_R   0.471212 0.822905 0.454889 0.274657
C73   C     C_R   0.780358 0.861595 0.563917 0.012391
C74   C     C_R   0.250763 0.911810 0.426319 -0.019342
C75   C     C_R   0.280359 0.361595 0.563917 0.012422
C76   C     C_R   0.750764 0.411809 0.426319 -0.019425
C77   C     C_R   0.838469 0.883985 0.518345 0.015593
C78   C     C_R   0.217682 0.011932 0.454906 0.010292
C79   C     C_R   0.338470 0.383985 0.518345 0.015621
C80   C     C_R   0.717683 0.511932 0.454906 0.010257
C81   C     C_R   0.825462 0.888344 0.444554 0.028361
C82   C     C_R   0.198826 0.005669 0.526241 0.030241
C83   C     C_R   0.325462 0.388344 0.444554 0.028366
C84   C     C_R   0.698826 0.505670 0.526240 0.030299
C85   C     C_R   0.701435 0.906778 0.468395 -0.158475
C86   C     C_R   0.271051 0.829380 0.544898 -0.153183
C87   C     C_R   0.201434 0.406776 0.468394 -0.158477
C88   C     C_R   0.771050 0.329379 0.544898 -0.153203
C89   C     C_R   0.742575 0.966007 0.149982 0.582982
C90   C     C_R   0.257071 0.966615 0.850075 0.579657
C91   C     C_R   0.242567 0.465997 0.150013 0.579981
C92   C     C_R   0.757015 0.466422 0.850030 0.582508
C93   C     C_R   0.712244 0.875802 0.538083 -0.130030
C94   C     C_R   0.276503 0.819320 0.471616 -0.129209
C95   C     C_R   0.212244 0.375801 0.538082 -0.129992
C96   C     C_R   0.776503 0.319319 0.471616 -0.129218
C97   C     C_R   0.907212 0.915171 0.542479 -0.082673
C98   C     C_R   0.191651 0.105571 0.411015 -0.080151
C99   C     C_R   0.407212 0.415170 0.542479 -0.082616
C100  C     C_R   0.691654 0.605571 0.411015 -0.080170
C101  C     C_R   0.959502 0.945772 0.494330 -0.054679
C102  C     C_R   0.134446 0.170232 0.432175 -0.085366
C103  C     C_R   0.459503 0.445772 0.494331 -0.054675
C104  C     C_R   0.634448 0.670233 0.432173 -0.085357
C105  C     C_R   0.948756 0.926212 0.422184 -0.058314
C106  C     C_R   0.108790 0.154147 0.500416 -0.127426
C107  C     C_R   0.448756 0.426213 0.422184 -0.058289
C108  C     C_R   0.608792 0.654149 0.500415 -0.127419
C109  C     C_R   0.882308 0.892849 0.397271 -0.084276
C110  C     C_R   0.140153 0.072701 0.547053 -0.106830
C111  C     C_R   0.382308 0.392850 0.397271 -0.084246
C112  C     C_R   0.640154 0.572703 0.547052 -0.106806
C113  C     C_R   0.756355 0.906729 0.420671 0.009218
C114  C     C_R   0.237324 0.927877 0.572751 -0.018935
C115  C     C_R   0.256355 0.406729 0.420671 0.009138
C116  C     C_R   0.737324 0.427877 0.572751 -0.018888
C117  C     C_R   0.731280 0.377642 0.354322 0.530542
C118  C     C_R   0.289036 0.332281 0.638490 0.559335
C119  C     C_R   0.231280 0.877642 0.354322 0.530469
C120  C     C_R   0.789035 0.832281 0.638490 0.559260
C121  C     C_R   0.566112 0.150438 0.360377 0.556488
C122  C     C_R   0.463976 0.155785 0.644622 0.530150
C123  C     C_R   0.066111 0.650438 0.360377 0.556312
C124  C     C_R   0.963976 0.655786 0.644622 0.530717
C125  C     C_R   0.743346 0.966387 0.353879 0.541099
C126  C     C_R   0.255190 0.969996 0.644402 0.541360
C127  C     C_R   0.243346 0.466387 0.353879 0.541005
C128  C     C_R   0.755191 0.469997 0.644402 0.541165
C129  C     C_3   0.508486 0.277178 0.974661 -0.122117
C130  C     C_3   0.455361 0.235260 0.031838 -0.134622
C131  C     C_3   0.048940 0.730287 0.966828 -0.134503
C132  C     C_3   0.998354 0.777696 0.023615 -0.121825
C133  C     C_3   0.566479 0.202444 0.012359 -0.115828
C134  C     C_3   0.435362 0.122119 0.986757 -0.104115
C135  C     C_3   0.063115 0.616333 0.013283 -0.103735
C136  C     C_3   0.936450 0.707794 0.987063 -0.118208
C137  C     C_3   0.512811 0.160918 0.068149 0.045189
C138  C     C_3   0.489067 0.163701 0.930772 0.053293
C139  C     C_3   0.011891 0.663339 0.068862 0.052054
C140  C     C_3   0.987592 0.660825 0.931651 0.046330
Cr1   Cr    Cr6+3 0.772820 0.169820 0.252640 0.985418
Cr2   Cr    Cr6+3 0.227180 0.169820 0.747360 1.004494
Cr3   Cr    Cr6+3 0.272820 0.669820 0.252640 0.985584
Cr4   Cr    Cr6+3 0.727180 0.669820 0.747360 1.003901
Cr5   Cr    Cr6+3 0.615040 0.323610 0.249150 1.029727
Cr6   Cr    Cr6+3 0.384960 0.323610 0.750850 1.015592
Cr7   Cr    Cr6+3 0.115040 0.823610 0.249150 1.029432
Cr8   Cr    Cr6+3 0.884960 0.823610 0.750850 1.016439
Cr9   Cr    Cr6+3 0.616720 0.011130 0.250660 1.023883
Cr10  Cr    Cr6+3 0.383280 0.011130 0.749340 1.027397
Cr11  Cr    Cr6+3 0.116720 0.511130 0.250660 1.024493
Cr12  Cr    Cr6+3 0.883280 0.511130 0.749340 1.026995
H1    H     H_    0.621168 0.231998 0.024902 0.128639
H2    H     H_    0.381027 0.088845 0.974801 0.126435
H3    H     H_    0.115618 0.578504 0.025531 0.129292
H4    H     H_    0.883510 0.742196 0.974192 0.127321
H5    H     H_    0.598605 0.316115 0.462667 0.135027
H6    H     H_    0.556941 0.315616 0.586047 0.111242
H7    H     H_    0.098605 0.816115 0.462666 0.135048
H8    H     H_    0.056941 0.815616 0.586046 0.111300
H9    H     H_    0.392629 0.963233 0.583471 0.181922
H10   H     H_    0.551681 0.892202 0.394067 0.150858
H11   H     H_    0.892628 0.463237 0.583471 0.181898
H12   H     H_    0.051679 0.392202 0.394066 0.150884
H13   H     H_    0.650027 0.934648 0.452352 0.121294
H14   H     H_    0.291376 0.760289 0.580343 0.190857
H15   H     H_    0.150027 0.434644 0.452351 0.121300
H16   H     H_    0.791375 0.260288 0.580343 0.190810
H17   H     H_    0.921889 0.925121 0.597404 0.154558
H18   H     H_    0.210560 0.119843 0.357484 0.153169
H19   H     H_    0.421889 0.425119 0.597404 0.154553
H20   H     H_    0.710564 0.619843 0.357484 0.153374
H21   H     H_    0.667296 0.871566 0.572580 0.145495
H22   H     H_    0.298203 0.736954 0.450473 0.197893
H23   H     H_    0.167296 0.371563 0.572580 0.145573
H24   H     H_    0.798203 0.236952 0.450473 0.197889
H25   H     H_    0.010021 0.977622 0.513686 0.119797
H26   H     H_    0.110656 0.231496 0.394703 0.135436
H27   H     H_    0.510021 0.477621 0.513686 0.119786
H28   H     H_    0.610660 0.731498 0.394702 0.135445
H29   H     H_    0.991173 0.941498 0.385480 0.146561
H30   H     H_    0.065293 0.204905 0.518666 0.148244
H31   H     H_    0.491173 0.441499 0.385480 0.146549
H32   H     H_    0.565296 0.704908 0.518665 0.148232
H33   H     H_    0.874373 0.882059 0.340427 0.126410
H34   H     H_    0.114230 0.057447 0.597081 0.134267
H35   H     H_    0.374373 0.382061 0.340427 0.126164
H36   H     H_    0.614231 0.557450 0.597080 0.134214
H37   H     H_    0.515305 0.370941 0.953116 0.107378
H38   H     H_    0.418571 0.292733 0.060858 0.119564
H39   H     H_    0.088607 0.783149 0.936659 0.124344
H40   H     H_    0.996514 0.872152 0.044013 0.108228
H41   H     H_    0.487575 0.954104 0.045452 0.143809
H42   H     H_    0.584126 0.032217 0.939286 0.128770
H43   H     H_    0.910002 0.541562 0.062592 0.124779
H44   H     H_    0.002846 0.452136 0.957243 0.146291
H45   H     H_    0.855978 0.001429 0.069902 0.147167
H46   H     H_    0.145014 0.002064 0.930571 0.148794
H47   H     H_    0.356550 0.499360 0.070552 0.144867
H48   H     H_    0.644130 0.498971 0.930150 0.147867
H49   H     H_    0.627893 0.816912 0.877431 0.147994
H50   H     H_    0.372176 0.825659 0.122233 0.143452
H51   H     H_    0.127904 0.321009 0.877347 0.149488
H52   H     H_    0.872075 0.325386 0.122382 0.142602
H53   H     H_    0.860143 0.982477 0.944703 0.161073
H54   H     H_    0.140459 0.980650 0.055455 0.163416
H55   H     H_    0.362521 0.475422 0.945656 0.157432
H56   H     H_    0.641007 0.482210 0.055462 0.165845
H57   H     H_    0.045808 0.192555 0.940214 0.108845
H58   H     H_    0.953064 0.202912 0.059095 0.112548
H59   H     H_    0.545366 0.690995 0.941340 0.110067
H60   H     H_    0.451917 0.699743 0.059203 0.108762
H61   H     H_    0.063122 0.145943 0.067880 0.116427
H62   H     H_    0.933125 0.154712 0.932028 0.117839
H63   H     H_    0.562858 0.646775 0.069207 0.119156
H64   H     H_    0.431833 0.651884 0.932187 0.116156
O1    O     O_R   0.788190 0.043000 0.172520 -0.534754
O2    O     O_R   0.211810 0.043000 0.827480 -0.529432
O3    O     O_R   0.288190 0.543000 0.172520 -0.534073
O4    O     O_R   0.711810 0.543000 0.827480 -0.529812
O5    O     O_R   0.556550 0.253260 0.323480 -0.504347
O6    O     O_R   0.443450 0.253260 0.676520 -0.539371
O7    O     O_R   0.056550 0.753260 0.323480 -0.504655
O8    O     O_R   0.943450 0.753260 0.676520 -0.538878
O9    O     O_R   0.545830 0.051610 0.330160 -0.540202
O10   O     O_R   0.454170 0.051610 0.669840 -0.536957
O11   O     O_R   0.045830 0.551610 0.330160 -0.540495
O12   O     O_R   0.954170 0.551610 0.669840 -0.536459
O13   O     O_R   0.681920 0.959720 0.327070 -0.525835
O14   O     O_R   0.318080 0.959720 0.672930 -0.519679
O15   O     O_R   0.181920 0.459720 0.327070 -0.525682
O16   O     O_R   0.818080 0.459720 0.672930 -0.519844
O17   O     O_3   0.668190 0.168190 0.250820 -0.276917
O18   O     O_3   0.331810 0.168190 0.749180 -0.280475
O19   O     O_3   0.168190 0.668190 0.250820 -0.276901
O20   O     O_3   0.831810 0.668190 0.749180 -0.280523
O21   O     O_R   0.766240 0.292300 0.176860 -0.517030
O22   O     O_R   0.233760 0.292300 0.823140 -0.510239
O23   O     O_R   0.266240 0.792300 0.176860 -0.517125
O24   O     O_R   0.733760 0.792300 0.823140 -0.510126
O25   O     O_R   0.670310 0.409160 0.168720 -0.481368
O26   O     O_R   0.329690 0.409160 0.831280 -0.481362
O27   O     O_R   0.170310 0.909160 0.168720 -0.481605
O28   O     O_R   0.829690 0.909160 0.831280 -0.481775
O29   O     O_R   0.556160 0.251900 0.173380 -0.501998
O30   O     O_R   0.443840 0.251900 0.826620 -0.507988
O31   O     O_R   0.056160 0.751900 0.173380 -0.503314
O32   O     O_R   0.943840 0.751900 0.826620 -0.506773
O33   O     O_R   0.545410 0.050140 0.168240 -0.515128
O34   O     O_R   0.454590 0.050140 0.831760 -0.506880
O35   O     O_R   0.045410 0.550140 0.168240 -0.510956
O36   O     O_R   0.954590 0.550140 0.831760 -0.511511
O37   O     O_R   0.681530 0.958350 0.176970 -0.458823
O38   O     O_R   0.318470 0.958350 0.823030 -0.458767
O39   O     O_R   0.181530 0.458350 0.176970 -0.460643
O40   O     O_R   0.818470 0.458350 0.823030 -0.457603
O41   O     O_R   0.788610 0.044480 0.334450 -0.527558
O42   O     O_R   0.211390 0.044480 0.665550 -0.538567
O43   O     O_R   0.288610 0.544480 0.334450 -0.527600
O44   O     O_R   0.711390 0.544480 0.665550 -0.538662
O45   O     O_R   0.766630 0.293670 0.326970 -0.520973
O46   O     O_R   0.233370 0.293670 0.673030 -0.499957
O47   O     O_R   0.266630 0.793670 0.326970 -0.521033
O48   O     O_R   0.733370 0.793670 0.673030 -0.500107
O49   O     O_R   0.670730 0.410640 0.330640 -0.511656
O50   O     O_R   0.329270 0.410640 0.669360 -0.518873
O51   O     O_R   0.170730 0.910640 0.330640 -0.511860
O52   O     O_R   0.829270 0.910640 0.669360 -0.518746
O53   O     O_3   0.909455 0.231153 0.550135 -0.565702
C141  C     C_3   0.934834 0.220011 0.620958 -0.121850
H65   H     H_    0.917686 0.130249 0.642320 0.158326
H66   H     H_    0.912535 0.289962 0.655818 0.162765
H67   H     H_    0.993217 0.224184 0.623949 0.091703
O54   O     O_3   0.967865 0.211731 0.420292 -0.561662
C142  C     C_3   0.951218 0.228675 0.347354 -0.098266
H68   H     H_    0.998773 0.255102 0.317188 0.106211
H69   H     H_    0.909269 0.296610 0.338498 0.137401
H70   H     H_    0.931285 0.140954 0.325375 0.147413
O55   O     O_3   0.409455 0.731151 0.550133 -0.565661
C143  C     C_3   0.434833 0.720006 0.620956 -0.121938
H71   H     H_    0.417685 0.630244 0.642317 0.158149
H72   H     H_    0.412535 0.789956 0.655817 0.162684
H73   H     H_    0.493216 0.724177 0.623947 0.091625
O56   O     O_3   0.467868 0.711730 0.420292 -0.561605
C144  C     C_3   0.451220 0.728674 0.347353 -0.098356
H74   H     H_    0.498775 0.755105 0.317188 0.105805
H75   H     H_    0.409269 0.796604 0.338498 0.137472
H76   H     H_    0.431290 0.640951 0.325374 0.147360
Br1   Br    Br    0.671551 0.697455 0.174433 -0.552169
Br2   Br    Br    0.321893 0.697327 0.827943 -0.531194
Br3   Br    Br    0.170823 0.197349 0.174090 -0.551440
Br4   Br    Br    0.822805 0.197669 0.827984 -0.532788

loop_
_geom_bond_atom_site_label_1
_geom_bond_atom_site_label_2
_ccdc_geom_bond_type
C99   C103  A    
Cr6   O18   S    
C133  C137  S    
C55   C59   A    
Cr11  O11   S    
C73   C93   A    
C136  C140  S    
C47   O31   A    
C75   C95   A    
C135  C139  S    
C84   C112  A    
Cr10  O10   S    
C128  O44   A    
C79   C99   A    
O56   C144  S    
C5    C6    S    
Cr10  O38   S    
C123  O11   A    
C100  C104  A    
C121  O9    A    
O54   C142  S    
Cr2   O42   S    
C95   H23   S    
C46   O34   A    
C131  C140  S    
C11   C15   A    
C50   C90   S    
C66   C72   A    
C12   C16   A    
C88   H16   S    
C72   O56   S    
C87   C115  A    
C59   C60   A    
C128  O16   A    
C8    C135  S    
C26   H54   S    
C68   H12   S    
C30   H50   S    
C126  O42   A    
C56   C123  S    
Cr3   O23   S    
Cr12  O40   S    
C48   C140  S    
C109  H33   S    
C98   C102  A    
C123  O7    A    
C32   C34   A    
C48   O36   A    
C78   C82   A    
C11   C27   A    
C16   C20   A    
C70   O54   S    
C36   H60   S    
C129  C133  S    
C28   H56   S    
C141  H66   S    
C6    H42   S    
Cr1   O45   S    
C21   H45   S    
C5    C137  S    
Cr12  O20   S    
C54   C61   A    
Cr5   O29   S    
C29   C35   A    
Cr10  O14   S    
C30   C36   A    
C8    C140  S    
C85   H13   S    
C97   H17   S    
C48   O32   A    
C76   C96   A    
C91   O39   A    
C93   H21   S    
C69   C70   A    
Cr9   O17   S    
Cr5   O5    S    
C24   H48   S    
Cr1   O17   S    
C122  O6    A    
C107  H31   S    
C73   C77   A    
C103  C107  A    
C67   C69   A    
C75   C79   A    
C130  H38   S    
C88   C116  A    
C100  H20   S    
C63   H7    S    
C21   C49   A    
C7    C8    S    
C132  C139  S    
Cr4   O4    S    
C125  O13   A    
C53   C122  S    
C18   C42   A    
C114  C126  S    
Cr9   O37   S    
Cr4   O24   S    
Cr2   O2    S    
C9    C13   A    
C34   H58   S    
C59   C67   A    
C85   C93   A    
Cr11  O15   S    
C124  O8    A    
C43   Br3   S    
C77   C97   A    
C132  H40   S    
C47   O35   A    
Cr1   O1    S    
C90   O38   A    
C84   C116  A    
C1    C12   S    
C2    C11   S    
C45   C137  S    
C20   C44   A    
Cr10  O34   S    
C87   H15   S    
C39   H61   S    
C83   C115  A    
C142  H70   S    
Cr3   O43   S    
C143  H71   S    
C46   O30   A    
C10   C14   A    
C17   C49   A    
C144  H75   S    
C1    O21   A    
C71   O55   S    
C87   C95   A    
C132  C136  S    
Cr11  O19   S    
Cr6   O26   S    
C2    O26   A    
C54   C121  S    
C74   C78   A    
C102  H26   S    
C127  O43   A    
C47   C139  S    
Cr12  O36   S    
C129  C130  S    
C105  C109  A    
C110  H34   S    
C40   H62   S    
C107  C111  A    
C24   C28   A    
C15   C31   A    
C16   C32   A    
C13   C17   A    
Cr9   O13   S    
C142  H69   S    
C85   C113  A    
C71   C72   A    
C57   C58   A    
C37   C41   A    
C61   C62   A    
C90   O2    A    
Cr3   O3    S    
C63   C64   A    
C98   H18   S    
C67   H11   S    
C40   C44   A    
C42   Br2   S    
Cr8   O28   S    
Cr1   O41   S    
Cr5   O49   S    
C105  H29   S    
C4    C9    S    
C4    O28   A    
C117  O49   A    
Cr12  O16   S    
C24   C52   A    
C88   C96   A    
C120  O52   A    
Cr5   O17   S    
C74   C94   A    
C142  H68   S    
C86   H14   S    
C143  H73   S    
C80   C84   A    
C9    C25   A    
C130  C134  S    
C15   C19   A    
C12   C28   A    
C13   C29   A    
C6    C133  S    
C54   C58   A    
Cr6   O6    S    
C122  O10   A    
C66   H10   S    
C21   C25   A    
C51   C91   S    
O55   C143  S    
C62   H6    S    
C22   C50   A    
C117  O45   A    
C73   C120  S    
O53   C141  S    
C141  H67   S    
C75   C118  S    
C25   H53   S    
C19   C43   A    
Cr9   O33   S    
C29   H49   S    
Cr4   O20   S    
C76   C80   A    
C45   O29   A    
C53   C57   A    
C38   H64   S    
C56   C60   A    
C32   H52   S    
C134  C138  S    
C144  H74   S    
C61   H5    S    
C77   C81   A    
C64   H8    S    
C4    O24   A    
C92   O40   A    
C81   C109  A    
C131  H39   S    
C83   C111  A    
C52   C92   S    
Cr3   O47   S    
C7    H43   S    
C131  C132  S    
Cr4   O48   S    
C104  C108  A    
Cr7   O7    S    
C18   C50   A    
C5    H41   S    
Cr2   O22   S    
C55   C124  S    
C96   H24   S    
C35   C37   A    
C22   H46   S    
C57   C65   A    
Cr11  O35   S    
Cr6   O30   S    
C111  H35   S    
C76   C117  S    
Cr8   O52   S    
C36   C38   A    
Cr10  O18   S    
C79   C83   A    
C65   H9    S    
C134  H2    S    
C8    H44   S    
C103  H27   S    
C101  H25   S    
C69   O53   S    
C108  C112  A    
C7    C136  S    
C99   H19   S    
C60   C68   A    
C22   C26   A    
C81   C113  A    
C121  O5    A    
C141  H65   S    
Cr2   O46   S    
C130  C137  S    
C37   H63   S    
C3    O23   A    
Cr7   O19   S    
C125  O41   A    
Cr9   O9    S    
C14   C18   A    
C135  H3    S    
C74   C119  S    
C33   C39   A    
C133  H1    S    
C82   C110  A    
C126  O14   A    
C143  H72   S    
C38   C42   A    
C144  H76   S    
C131  C135  S    
C136  H4    S    
C113  C125  S    
C23   H47   S    
Cr8   O32   S    
C115  C127  S    
C92   O4    A    
Cr3   O19   S    
Cr6   O50   S    
C35   H59   S    
C106  H30   S    
C86   C94   A    
Cr12  O12   S    
C33   H57   S    
C58   C66   A    
C119  O47   A    
C129  C138  S    
C120  O48   A    
C78   C98   A    
C31   C33   A    
C23   C27   A    
C31   H51   S    
C46   C138  S    
C45   O33   A    
C10   C26   A    
Cr7   O31   S    
C118  O50   A    
C80   C100  A    
C14   C30   A    
C108  H32   S    
C124  O12   A    
C101  C105  A    
C5    C134  S    
C82   C114  A    
Cr7   O51   S    
C2    O22   A    
C39   C43   A    
C65   C71   A    
C129  H37   S    
Cr8   O20   S    
C6    C138  S    
C53   C62   A    
C23   C51   A    
C118  O46   A    
C119  O51   A    
C55   C64   A    
C127  O15   A    
C56   C63   A    
Cr5   O25   S    
C3    O27   A    
C1    O25   A    
C94   H22   S    
Cr7   O27   S    
Cr11  O39   S    
C106  C110  A    
Cr1   O21   S    
C44   Br4   S    
C49   C89   S    
C112  H36   S    
C41   Br1   S    
C86   C114  A    
Cr8   O8    S    
C20   C52   A    
C3    C10   S    
C7    C139  S    
C104  H28   S    
C102  C106  A    
C27   H55   S    
C91   O3    A    
Cr4   O44   S    
C17   C41   A    
C89   O1    A    
C19   C51   A    
Cr2   O18   S    
C68   C70   A    
C116  C128  S    
C34   C40   A    
C89   O37   A    
C97   C101  A    
