data_mof_unit_64754.cif
_audit_creation_date              2013-03-05T16:02:40-0500
_audit_creation_method            fapswitch 2.2
_symmetry_space_group_name_H-M    P1
_symmetry_Int_Tables_number       1
_space_group_crystal_system       orthorhombic
_cell_length_a                    29.178873
_cell_length_b                    29.17887
_cell_length_c                    55.732732
_cell_angle_alpha                 90.0
_cell_angle_beta                  90.0
_cell_angle_gamma                 90.0
_cell_volume                      47451.2126291

loop_
_atom_site_label
_atom_site_type_symbol
_atom_site_description
_atom_site_fract_x
_atom_site_fract_y
_atom_site_fract_z
_atom_type_partial_charge
O1    O     O_R   0.063110 0.464380 0.500020 -0.595676
O2    O     O_R   0.535620 0.063110 0.500020 -0.595678
O3    O     O_R   0.936890 0.535620 0.500020 -0.595676
O4    O     O_R   0.464380 0.936890 0.500020 -0.595677
O5    O     O_R   0.063110 0.535620 0.499980 -0.595677
O6    O     O_R   0.535620 0.936890 0.499980 -0.595676
O7    O     O_R   0.936890 0.464380 0.499980 -0.595676
O8    O     O_R   0.464380 0.063110 0.499980 -0.595676
O9    O     O_R   0.563110 0.964380 0.000020 -0.595676
O10   O     O_R   0.035620 0.563110 0.000020 -0.595677
O11   O     O_R   0.436890 0.035620 0.000020 -0.595676
O12   O     O_R   0.964380 0.436890 0.000020 -0.595676
O13   O     O_R   0.563110 0.035620 0.999980 -0.595676
O14   O     O_R   0.035620 0.436890 0.999980 -0.595677
O15   O     O_R   0.436890 0.964380 0.999980 -0.595675
O16   O     O_R   0.964380 0.563110 0.999980 -0.595676
C1    C     C_R   0.086732 0.500000 0.500000 0.907641
C2    C     C_R   0.500000 0.086732 0.500000 0.907639
C3    C     C_R   0.913268 0.500000 0.500000 0.907642
C4    C     C_R   0.500000 0.913268 0.500000 0.907640
C5    C     C_R   0.586732 0.000000 0.000000 0.907643
C6    C     C_R   0.000000 0.586732 0.000000 0.907641
C7    C     C_R   0.413268 0.000000 0.000000 0.907643
C8    C     C_R   1.000000 0.413268 0.000000 0.907641
O17   O     O_R   0.999990 0.464380 0.464400 -0.609651
O18   O     O_R   0.535620 0.999990 0.464400 -0.609647
O19   O     O_R   0.000010 0.535620 0.464400 -0.609651
O20   O     O_R   0.464380 0.000010 0.464400 -0.609646
O21   O     O_R   0.999990 0.535620 0.535600 -0.609653
O22   O     O_R   0.535620 0.000010 0.535600 -0.609653
O23   O     O_R   0.000010 0.464380 0.535600 -0.609652
O24   O     O_R   0.464380 0.999990 0.535600 -0.609652
O25   O     O_R   0.499990 0.964380 0.964400 -0.609650
O26   O     O_R   0.035620 0.499990 0.964400 -0.609651
O27   O     O_R   0.500010 0.035620 0.964400 -0.609650
O28   O     O_R   0.964380 0.500010 0.964400 -0.609650
O29   O     O_R   0.499990 0.035620 0.035600 -0.609655
O30   O     O_R   0.035620 0.500010 0.035600 -0.609652
O31   O     O_R   0.500010 0.964380 0.035600 -0.609655
O32   O     O_R   0.964380 0.499990 0.035600 -0.609651
C9    C     C_R   1.000000 0.500000 0.452495 0.946411
C10   C     C_R   0.500000 0.000000 0.452495 0.946407
C11   C     C_R   1.000000 0.500000 0.547504 0.946412
C12   C     C_R   0.500000 0.000000 0.547504 0.946412
C13   C     C_R   0.500000 0.000000 0.952495 0.946410
C14   C     C_R   1.000000 0.500000 0.952495 0.946410
C15   C     C_R   0.500000 0.000000 0.047505 0.946415
C16   C     C_R   0.000000 0.500000 0.047504 0.946411
Zn1   Zn    Zn3+2 1.000000 0.452430 0.500000 1.024307
Zn2   Zn    Zn3+2 0.547570 0.000000 0.500000 1.024306
Zn3   Zn    Zn3+2 1.000000 0.547570 0.500000 1.024306
Zn4   Zn    Zn3+2 0.452430 0.000000 0.500000 1.024307
Zn5   Zn    Zn3+2 0.500000 0.952430 0.000000 1.024307
Zn6   Zn    Zn3+2 0.047570 0.500000 0.000000 1.024307
Zn7   Zn    Zn3+2 0.500000 0.047570 0.000000 1.024306
Zn8   Zn    Zn3+2 0.952430 0.500000 0.000000 1.024307
C17   C     C_R   0.031201 0.528541 0.262677 0.045752
C18   C     C_R   0.471445 0.031189 0.262677 0.045752
C19   C     C_R   0.968799 0.471459 0.262677 0.045753
C20   C     C_R   0.528555 0.968811 0.262677 0.045753
C21   C     C_R   0.031200 0.471457 0.737323 0.045753
C22   C     C_R   0.471458 0.968800 0.737323 0.045753
C23   C     C_R   0.968800 0.528543 0.737323 0.045753
C24   C     C_R   0.528542 0.031200 0.737323 0.045753
C25   C     C_R   0.531199 0.028543 0.762677 0.045752
C26   C     C_R   0.971457 0.531200 0.762677 0.045753
C27   C     C_R   0.468801 0.971456 0.762677 0.045753
C28   C     C_R   0.028543 0.468800 0.762677 0.045753
C29   C     C_R   0.531211 0.971469 0.237323 0.045753
C30   C     C_R   0.971456 0.468802 0.237323 0.045752
C31   C     C_R   0.468789 0.028531 0.237323 0.045753
C32   C     C_R   0.028544 0.531198 0.237323 0.045753
C33   C     C_R   0.000000 0.500000 0.275256 0.084747
C34   C     C_R   0.500000 1.000000 0.275256 0.084747
C35   C     C_R   1.000000 0.500000 0.724744 0.084747
C36   C     C_R   0.500000 0.000000 0.724744 0.084747
C37   C     C_R   0.500000 1.000000 0.775256 0.084747
C38   C     C_R   1.000000 0.500000 0.775256 0.084747
C39   C     C_R   0.500000 1.000000 0.224745 0.084747
C40   C     C_R   0.000000 0.500000 0.224744 0.084747
C41   C     C_R   0.064366 0.553140 0.275955 -0.188975
C42   C     C_R   0.446831 0.064342 0.275955 -0.188976
C43   C     C_R   0.935634 0.446860 0.275955 -0.188976
C44   C     C_R   0.553169 0.935658 0.275955 -0.188976
C45   C     C_R   0.064363 0.446856 0.724045 -0.188976
C46   C     C_R   0.446858 0.935636 0.724045 -0.188975
C47   C     C_R   0.935637 0.553144 0.724045 -0.188976
C48   C     C_R   0.553142 0.064364 0.724045 -0.188976
C49   C     C_R   0.564362 0.053144 0.775955 -0.188975
C50   C     C_R   0.946857 0.564363 0.775955 -0.188976
C51   C     C_R   0.435638 0.946855 0.775955 -0.188976
C52   C     C_R   0.053143 0.435637 0.775955 -0.188976
C53   C     C_R   0.564384 0.946881 0.224045 -0.188975
C54   C     C_R   0.946853 0.435640 0.224045 -0.188976
C55   C     C_R   0.435616 0.053119 0.224045 -0.188976
C56   C     C_R   0.053147 0.564361 0.224045 -0.188976
C57   C     C_R   0.065388 0.551314 0.300851 -0.104600
C58   C     C_R   0.448657 0.065365 0.300851 -0.104598
C59   C     C_R   0.934612 0.448686 0.300851 -0.104600
C60   C     C_R   0.551342 0.934634 0.300851 -0.104598
C61   C     C_R   0.065385 0.448683 0.699149 -0.104600
C62   C     C_R   0.448684 0.934614 0.699149 -0.104601
C63   C     C_R   0.934615 0.551317 0.699149 -0.104600
C64   C     C_R   0.551316 0.065386 0.699149 -0.104601
C65   C     C_R   0.565385 0.051318 0.800851 -0.104601
C66   C     C_R   0.948683 0.565386 0.800851 -0.104601
C67   C     C_R   0.434615 0.948682 0.800851 -0.104600
C68   C     C_R   0.051316 0.434614 0.800851 -0.104600
C69   C     C_R   0.565405 0.948708 0.199149 -0.104600
C70   C     C_R   0.948680 0.434617 0.199149 -0.104600
C71   C     C_R   0.434595 0.051292 0.199149 -0.104600
C72   C     C_R   0.051320 0.565383 0.199149 -0.104599
C73   C     C_R   0.033040 0.525444 0.313410 -0.029427
C74   C     C_R   0.474541 0.033029 0.313410 -0.029429
C75   C     C_R   0.966960 0.474556 0.313410 -0.029428
C76   C     C_R   0.525459 0.966971 0.313410 -0.029429
C77   C     C_R   0.033039 0.474554 0.686590 -0.029427
C78   C     C_R   0.474555 0.966961 0.686590 -0.029427
C79   C     C_R   0.966961 0.525446 0.686590 -0.029427
C80   C     C_R   0.525445 0.033039 0.686590 -0.029427
C81   C     C_R   0.533038 0.025446 0.813410 -0.029428
C82   C     C_R   0.974554 0.533039 0.813410 -0.029427
C83   C     C_R   0.466962 0.974553 0.813410 -0.029428
C84   C     C_R   0.025446 0.466961 0.813410 -0.029427
C85   C     C_R   0.533049 0.974567 0.186590 -0.029427
C86   C     C_R   0.974553 0.466963 0.186590 -0.029428
C87   C     C_R   0.466952 0.025433 0.186590 -0.029427
C88   C     C_R   0.025447 0.533038 0.186590 -0.029428
C89   C     C_R   1.000000 0.500000 0.300682 -0.042293
C90   C     C_R   0.500000 1.000000 0.300682 -0.042295
C91   C     C_R   1.000000 0.500000 0.699318 -0.042294
C92   C     C_R   0.500000 0.000000 0.699318 -0.042293
C93   C     C_R   0.500000 1.000000 0.800682 -0.042294
C94   C     C_R   1.000000 0.500000 0.800682 -0.042294
C95   C     C_R   0.500000 1.000000 0.199318 -0.042293
C96   C     C_R   1.000000 0.500000 0.199318 -0.042293
C97   C     C_R   0.032960 0.524248 0.338537 0.639432
C98   C     C_R   0.475737 0.032949 0.338538 0.639427
C99   C     C_R   0.967040 0.475752 0.338537 0.639435
C100  C     C_R   0.524263 0.967051 0.338538 0.639428
C101  C     C_R   0.032959 0.475750 0.661462 0.639433
C102  C     C_R   0.475751 0.967041 0.661462 0.639433
C103  C     C_R   0.967041 0.524250 0.661462 0.639434
C104  C     C_R   0.524249 0.032959 0.661462 0.639434
C105  C     C_R   0.532958 0.024250 0.838537 0.639432
C106  C     C_R   0.975750 0.532959 0.838537 0.639433
C107  C     C_R   0.467042 0.975750 0.838537 0.639432
C108  C     C_R   0.024250 0.467041 0.838537 0.639434
C109  C     C_R   0.532968 0.975763 0.161463 0.639430
C110  C     C_R   0.975749 0.467043 0.161462 0.639431
C111  C     C_R   0.467032 0.024237 0.161463 0.639430
C112  C     C_R   0.024251 0.532957 0.161462 0.639433
N1    N     N_R   1.000000 0.500000 0.350479 -0.320290
N2    N     N_R   0.500000 1.000000 0.350480 -0.320293
N3    N     N_R   0.000000 0.500000 0.649521 -0.320289
N4    N     N_R   0.500000 0.000000 0.649521 -0.320289
N5    N     N_R   0.500000 1.000000 0.850479 -0.320289
N6    N     N_R   0.000000 0.500000 0.850479 -0.320289
N7    N     N_R   0.500000 1.000000 0.149521 -0.320292
N8    N     N_R   0.000000 0.500000 0.149521 -0.320292
H1    H     H_    0.090990 0.573093 0.267552 0.152982
H2    H     H_    0.426867 0.090957 0.267552 0.152982
H3    H     H_    0.909010 0.426907 0.267551 0.152982
H4    H     H_    0.573133 0.909042 0.267552 0.152982
H5    H     H_    0.090986 0.426902 0.732448 0.152982
H6    H     H_    0.426904 0.909013 0.732448 0.152982
H7    H     H_    0.909014 0.573098 0.732448 0.152982
H8    H     H_    0.573096 0.090987 0.732448 0.152983
H9    H     H_    0.590985 0.073099 0.767552 0.152982
H10   H     H_    0.926903 0.590986 0.767552 0.152983
H11   H     H_    0.409015 0.926901 0.767552 0.152983
H12   H     H_    0.073097 0.409014 0.767552 0.152983
H13   H     H_    0.591014 0.926938 0.232449 0.152982
H14   H     H_    0.926898 0.409018 0.232448 0.152982
H15   H     H_    0.408986 0.073062 0.232449 0.152982
H16   H     H_    0.073102 0.590982 0.232448 0.152982
H17   H     H_    0.091552 0.570629 0.310232 0.197318
H18   H     H_    0.429331 0.091521 0.310232 0.197319
H19   H     H_    0.908448 0.429371 0.310232 0.197318
H20   H     H_    0.570669 0.908479 0.310232 0.197318
H21   H     H_    0.091549 0.429366 0.689768 0.197318
H22   H     H_    0.429368 0.908450 0.689768 0.197318
H23   H     H_    0.908451 0.570633 0.689768 0.197318
H24   H     H_    0.570631 0.091550 0.689768 0.197318
H25   H     H_    0.591548 0.070635 0.810232 0.197318
H26   H     H_    0.929367 0.591549 0.810232 0.197318
H27   H     H_    0.408452 0.929365 0.810232 0.197318
H28   H     H_    0.070633 0.408451 0.810232 0.197318
H29   H     H_    0.591576 0.929402 0.189768 0.197318
H30   H     H_    0.929362 0.408455 0.189768 0.197318
H31   H     H_    0.408424 0.070598 0.189768 0.197318
H32   H     H_    0.070638 0.591545 0.189768 0.197318
O33   O     O_2   0.065094 0.547496 0.350999 -0.529684
O34   O     O_2   0.452475 0.065073 0.351000 -0.529679
O35   O     O_2   0.934906 0.452504 0.350999 -0.529684
O36   O     O_2   0.547524 0.934927 0.351000 -0.529680
O37   O     O_2   0.065092 0.452501 0.649001 -0.529684
O38   O     O_2   0.452502 0.934907 0.649001 -0.529684
O39   O     O_2   0.934908 0.547499 0.649001 -0.529684
O40   O     O_2   0.547498 0.065093 0.649001 -0.529684
O41   O     O_2   0.565091 0.047500 0.850999 -0.529683
O42   O     O_2   0.952501 0.565092 0.850999 -0.529684
O43   O     O_2   0.434909 0.952500 0.850999 -0.529683
O44   O     O_2   0.047499 0.434908 0.850999 -0.529684
O45   O     O_2   0.565110 0.952525 0.149001 -0.529683
O46   O     O_2   0.952498 0.434911 0.149001 -0.529683
O47   O     O_2   0.434890 0.047474 0.149001 -0.529684
O48   O     O_2   0.047502 0.565090 0.149001 -0.529683
C113  C     C_R   0.500000 0.585742 0.500000 0.875649
C114  C     C_R   0.414258 0.500000 0.500000 0.875649
C115  C     C_R   0.500000 0.414258 0.500000 0.875649
C116  C     C_R   0.585742 0.500000 0.500000 0.875649
C117  C     C_R   1.000000 0.085742 0.000000 0.875649
C118  C     C_R   0.914258 0.000000 0.000000 0.875649
C119  C     C_R   1.000000 0.914258 0.000000 0.875649
C120  C     C_R   0.085742 0.000000 0.000000 0.875649
Zn9   Zn    Zn3+2 0.500000 0.500000 0.473170 1.013807
Zn10  Zn    Zn3+2 0.500000 0.500000 0.526830 1.013804
Zn11  Zn    Zn3+2 0.000000 0.000000 0.973170 1.013805
Zn12  Zn    Zn3+2 0.000000 0.000000 0.026830 1.013802
O49   O     O_R   0.500000 0.563170 0.479920 -0.587369
O50   O     O_R   0.436830 0.500000 0.479920 -0.587369
O51   O     O_R   0.500000 0.436830 0.479920 -0.587369
O52   O     O_R   0.563170 0.500000 0.479920 -0.587369
O53   O     O_R   0.500000 0.436830 0.520080 -0.587371
O54   O     O_R   0.436830 0.500000 0.520080 -0.587371
O55   O     O_R   0.500000 0.563170 0.520080 -0.587371
O56   O     O_R   0.563170 0.500000 0.520080 -0.587371
O57   O     O_R   1.000000 0.063170 0.979920 -0.587369
O58   O     O_R   0.936830 0.000000 0.979920 -0.587369
O59   O     O_R   1.000000 0.936830 0.979920 -0.587369
O60   O     O_R   0.063170 0.000000 0.979920 -0.587369
O61   O     O_R   1.000000 0.936830 0.020080 -0.587371
O62   O     O_R   0.936830 0.000000 0.020080 -0.587371
O63   O     O_R   1.000000 0.063170 0.020080 -0.587371
O64   O     O_R   0.063170 0.000000 0.020080 -0.587371
C121  C     C_R   0.974223 0.533470 0.388794 0.327000
C122  C     C_R   0.466542 0.974208 0.388794 0.327006
C123  C     C_R   0.025777 0.466530 0.388794 0.327000
C124  C     C_R   0.533458 0.025792 0.388794 0.327007
C125  C     C_R   0.974222 0.466531 0.611206 0.326999
C126  C     C_R   0.466531 0.025777 0.611206 0.326998
C127  C     C_R   0.025778 0.533469 0.611206 0.326999
C128  C     C_R   0.533469 0.974222 0.611206 0.326998
C129  C     C_R   0.474221 0.033468 0.888794 0.327001
C130  C     C_R   0.966531 0.474222 0.888794 0.326999
C131  C     C_R   0.525779 0.966532 0.888794 0.327001
C132  C     C_R   0.033469 0.525778 0.888794 0.326999
C133  C     C_R   0.474232 0.966524 0.111206 0.326998
C134  C     C_R   0.966533 0.525781 0.111206 0.327002
C135  C     C_R   0.525768 0.033476 0.111206 0.326998
C136  C     C_R   0.033467 0.474219 0.111206 0.327002
C137  C     C_R   0.975218 0.533232 0.413889 -0.258895
C138  C     C_R   0.466779 0.975203 0.413889 -0.258898
C139  C     C_R   0.024782 0.466767 0.413889 -0.258896
C140  C     C_R   0.533221 0.024797 0.413889 -0.258899
C141  C     C_R   0.975217 0.466768 0.586111 -0.258896
C142  C     C_R   0.466768 0.024782 0.586111 -0.258895
C143  C     C_R   0.024783 0.533232 0.586111 -0.258896
C144  C     C_R   0.533232 0.975218 0.586111 -0.258895
C145  C     C_R   0.475216 0.033231 0.913889 -0.258896
C146  C     C_R   0.966768 0.475217 0.913889 -0.258895
C147  C     C_R   0.524784 0.966769 0.913889 -0.258896
C148  C     C_R   0.033232 0.524783 0.913889 -0.258895
C149  C     C_R   0.475227 0.966761 0.086111 -0.258894
C150  C     C_R   0.966770 0.524786 0.086111 -0.258897
C151  C     C_R   0.524773 0.033239 0.086111 -0.258895
C152  C     C_R   0.033230 0.475214 0.086111 -0.258896
H33   H     H_    0.956105 0.558747 0.423860 0.202174
H34   H     H_    0.441273 0.956078 0.423861 0.202160
H35   H     H_    0.043895 0.441253 0.423860 0.202174
H36   H     H_    0.558727 0.043922 0.423861 0.202160
H37   H     H_    0.956103 0.441255 0.576139 0.202173
H38   H     H_    0.441254 0.043896 0.576139 0.202174
H39   H     H_    0.043897 0.558745 0.576139 0.202173
H40   H     H_    0.558746 0.956104 0.576139 0.202174
H41   H     H_    0.456102 0.058744 0.923860 0.202173
H42   H     H_    0.941255 0.456103 0.923860 0.202174
H43   H     H_    0.543898 0.941256 0.923860 0.202173
H44   H     H_    0.058745 0.543896 0.923860 0.202173
H45   H     H_    0.456120 0.941242 0.076140 0.202180
H46   H     H_    0.941258 0.543901 0.076139 0.202171
H47   H     H_    0.543880 0.058758 0.076140 0.202180
H48   H     H_    0.058742 0.456099 0.076139 0.202170
C153  C     C_R   1.000000 0.500000 0.426342 -0.162960
C154  C     C_R   0.500000 0.000000 0.426343 -0.162943
C155  C     C_R   1.000000 0.500000 0.573658 -0.162958
C156  C     C_R   0.500000 0.000000 0.573658 -0.162959
C157  C     C_R   0.500000 0.000000 0.926342 -0.162958
C158  C     C_R   1.000000 0.500000 0.926342 -0.162959
C159  C     C_R   0.500000 0.000000 0.073658 -0.162966
C160  C     C_R   1.000000 0.500000 0.073658 -0.162954
C161  C     C_R   1.000000 0.500000 0.376148 0.072817
C162  C     C_R   0.500000 1.000000 0.376148 0.072815
C163  C     C_R   1.000000 0.500000 0.623852 0.072818
C164  C     C_R   0.500000 0.000000 0.623852 0.072819
C165  C     C_R   0.500000 0.000000 0.876148 0.072818
C166  C     C_R   1.000000 0.500000 0.876148 0.072818
C167  C     C_R   0.500000 1.000000 0.123852 0.072819
C168  C     C_R   1.000000 0.500000 0.123852 0.072817
C169  C     C_1   0.137390 0.500000 0.500000 -0.187652
C170  C     C_1   0.500000 0.137391 0.500000 -0.187651
C171  C     C_1   0.862609 0.500000 0.500000 -0.187652
C172  C     C_1   0.500000 0.862609 0.500000 -0.187651
C173  C     C_1   0.637390 0.000000 0.000000 -0.187652
C174  C     C_1   0.000000 0.637390 0.000000 -0.187652
C175  C     C_1   0.362609 0.000000 0.000000 -0.187652
C176  C     C_1   1.000000 0.362609 0.000000 -0.187651
C177  C     C_1   0.179586 0.500000 0.500000 0.033162
C178  C     C_1   0.500000 0.179586 0.500000 0.033163
C179  C     C_1   0.820414 0.500000 0.500000 0.033162
C180  C     C_1   0.500000 0.820414 0.500000 0.033164
C181  C     C_1   0.679586 0.000000 0.000000 0.033162
C182  C     C_1   0.000000 0.679586 0.000000 0.033163
C183  C     C_1   0.320414 0.000000 0.000000 0.033162
C184  C     C_1   1.000000 0.320414 0.000000 0.033163
C185  C     C_1   0.229396 0.500000 0.500000 0.035236
C186  C     C_1   0.500000 0.229396 0.500000 0.035237
C187  C     C_1   0.770604 0.500000 0.500000 0.035236
C188  C     C_1   0.500000 0.770604 0.500000 0.035237
C189  C     C_1   0.729396 0.000000 0.000000 0.035235
C190  C     C_1   0.000000 0.729396 0.000000 0.035236
C191  C     C_1   0.270604 0.000000 0.000000 0.035235
C192  C     C_1   1.000000 0.270604 0.000000 0.035236
C193  C     C_1   0.271591 0.500000 0.500000 0.031663
C194  C     C_1   0.500000 0.271591 0.500000 0.031664
C195  C     C_1   0.728409 0.500000 0.500000 0.031663
C196  C     C_1   0.500000 0.728409 0.500000 0.031664
C197  C     C_1   0.771591 0.000000 0.000000 0.031663
C198  C     C_1   1.000000 0.771591 0.000000 0.031663
C199  C     C_1   0.228409 0.000000 0.000000 0.031663
C200  C     C_1   0.000000 0.228409 0.000000 0.031663
C201  C     C_1   0.321402 0.500000 0.500000 0.025840
C202  C     C_1   0.500000 0.321402 0.500000 0.025840
C203  C     C_1   0.678598 0.500000 0.500000 0.025840
C204  C     C_1   0.500000 0.678598 0.500000 0.025840
C205  C     C_1   0.821402 0.000000 0.000000 0.025839
C206  C     C_1   1.000000 0.821402 0.000000 0.025840
C207  C     C_1   0.178598 0.000000 0.000000 0.025839
C208  C     C_1   0.000000 0.178598 0.000000 0.025840
C209  C     C_1   0.363598 0.500000 0.500000 -0.179830
C210  C     C_1   0.500000 0.363598 0.500000 -0.179830
C211  C     C_1   0.636402 0.500000 0.500000 -0.179830
C212  C     C_1   0.500000 0.636402 0.500000 -0.179830
C213  C     C_1   0.863598 0.000000 0.000000 -0.179831
C214  C     C_1   1.000000 0.863598 0.000000 -0.179830
C215  C     C_1   0.136402 0.000000 0.000000 -0.179831
C216  C     C_1   1.000000 0.136402 0.000000 -0.179831
N9    N     N_R   0.946531 0.567351 0.376652 0.231534
O65   O     O_R   0.913834 0.588335 0.388133 -0.349367
O66   O     O_R   0.954816 0.579363 0.354604 -0.368223
N10   N     N_R   0.432674 0.946499 0.376652 0.231531
O67   O     O_R   0.411710 0.913789 0.388132 -0.349367
O68   O     O_R   0.420654 0.954784 0.354605 -0.368219
N11   N     N_R   0.053469 0.432649 0.376652 0.231534
O69   O     O_R   0.086166 0.411665 0.388133 -0.349367
O70   O     O_R   0.045183 0.420637 0.354604 -0.368223
N12   N     N_R   0.567326 0.053501 0.376652 0.231531
O71   O     O_R   0.588290 0.086211 0.388132 -0.349367
O72   O     O_R   0.579346 0.045216 0.354605 -0.368219
N13   N     N_R   0.946528 0.432651 0.623348 0.231534
O73   O     O_R   0.913831 0.411668 0.611867 -0.349367
O74   O     O_R   0.954813 0.420639 0.645396 -0.368222
N14   N     N_R   0.432650 0.053471 0.623348 0.231535
O75   O     O_R   0.411666 0.086167 0.611867 -0.349367
O76   O     O_R   0.420639 0.045186 0.645397 -0.368223
N15   N     N_R   0.053472 0.567349 0.623348 0.231534
O77   O     O_R   0.086169 0.588332 0.611867 -0.349367
O78   O     O_R   0.045187 0.579360 0.645396 -0.368223
N16   N     N_R   0.567350 0.946529 0.623348 0.231535
O79   O     O_R   0.588334 0.913833 0.611867 -0.349367
O80   O     O_R   0.579361 0.954814 0.645397 -0.368222
N17   N     N_R   0.446526 0.067348 0.876652 0.231534
O81   O     O_R   0.413829 0.088329 0.888133 -0.349367
O82   O     O_R   0.454812 0.079360 0.854604 -0.368222
N18   N     N_R   0.932651 0.446528 0.876652 0.231535
O83   O     O_R   0.911667 0.413832 0.888133 -0.349367
O84   O     O_R   0.920639 0.454813 0.854603 -0.368223
N19   N     N_R   0.553473 0.932652 0.876652 0.231534
O85   O     O_R   0.586171 0.911671 0.888133 -0.349367
O86   O     O_R   0.545188 0.920640 0.854604 -0.368222
N20   N     N_R   0.067349 0.553472 0.876652 0.231534
O87   O     O_R   0.088332 0.586168 0.888133 -0.349367
O88   O     O_R   0.079361 0.545186 0.854603 -0.368222
N21   N     N_R   0.446549 0.932634 0.123348 0.231533
O89   O     O_R   0.413856 0.911644 0.111868 -0.349364
O90   O     O_R   0.454842 0.920622 0.145396 -0.368220
N22   N     N_R   0.932655 0.553477 0.123348 0.231533
O91   O     O_R   0.911677 0.586177 0.111867 -0.349367
O92   O     O_R   0.920641 0.545191 0.145396 -0.368221
N23   N     N_R   0.553451 0.067365 0.123348 0.231533
O93   O     O_R   0.586144 0.088356 0.111868 -0.349365
O94   O     O_R   0.545159 0.079378 0.145396 -0.368221
N24   N     N_R   0.067345 0.446523 0.123348 0.231533
O95   O     O_R   0.088322 0.413822 0.111867 -0.349366
O96   O     O_R   0.079360 0.454810 0.145396 -0.368221

loop_
_geom_bond_atom_site_label_1
_geom_bond_atom_site_label_2
_geom_bond_distance
_ccdc_geom_bond_type
C71   H31   1.083435 S    
C131  N19   1.445075 S    
C79   C103  1.400850 A    
C80   C104  1.400850 A    
Zn11  O60   1.881229 S    
C15   C159  1.457589 S    
C200  C208  1.453423 S    
C149  H45   1.083567 S    
C25   C49   1.413966 A    
C20   C34   1.419119 A    
C131  C165  1.419931 A    
C63   H23   1.083432 S    
C134  N22   1.445074 S    
C29   C53   1.413970 A    
O18   Zn2   2.014492 S    
C97   N1    1.366919 A    
C58   C74   1.396656 A    
C113  C212  1.478213 S    
C31   C55   1.413970 A    
C130  C166  1.419931 A    
O25   C13   1.233066 A    
C172  C180  1.231208 T    
C55   H15   1.077868 S    
O24   Zn4   2.014492 S    
C47   H7    1.077868 S    
C204  C212  1.231235 T    
C135  N23   1.445076 S    
C48   H8    1.077867 S    
C136  C168  1.419929 A    
O3    C3    1.247132 A    
C152  C160  1.394596 A    
C19   C33   1.419121 A    
C85   C95   1.408497 A    
C86   C96   1.408494 A    
C127  N15   1.445075 S    
C74   C90   1.408497 A    
C101  O37   1.349699 S    
C68   C84   1.396653 A    
C9    C153  1.457589 S    
Zn10  O56   1.881229 S    
C99   O35   1.349696 S    
C174  C182  1.231208 T    
C138  C154  1.394599 A    
Zn9   O49   1.881229 S    
C120  O60   1.298534 A    
C25   C37   1.419117 A    
C62   H22   1.083434 S    
C51   C67   1.388866 A    
C66   H26   1.083429 S    
O17   C9    1.233066 A    
C128  C164  1.419932 A    
O31   C15   1.233066 A    
C70   H30   1.083434 S    
C84   C108  1.400850 A    
N11   O69   1.301739 A    
C104  O40   1.349699 S    
C115  O51   1.298534 A    
N10   O67   1.301744 A    
O13   C5    1.247132 A    
C38   C94   1.417083 A    
C10   C154  1.457578 S    
C21   C45   1.413966 A    
C47   C63   1.388866 A    
C117  C216  1.478213 S    
C122  C138  1.398915 A    
O26   Zn6   2.014492 S    
O7    C3    1.247135 A    
C123  C139  1.398920 A    
C73   C97   1.400850 A    
Zn11  O58   1.881232 S    
O27   C13   1.233063 A    
C135  C151  1.398920 A    
C117  O57   1.298534 A    
C171  C179  1.231208 T    
Zn11  O57   1.881229 S    
O32   C16   1.233063 A    
N2    C162  1.430598 S    
C68   H28   1.083436 S    
C19   C43   1.413967 A    
C120  C215  1.478213 S    
C51   H11   1.077866 S    
C6    C174  1.478152 S    
C45   H5    1.077868 S    
C18   C42   1.413969 A    
C49   H9    1.077868 S    
C122  C162  1.419930 A    
C199  C207  1.453423 S    
C52   H12   1.077867 S    
O11   C7    1.247132 A    
C28   C52   1.413966 A    
C82   C106  1.400850 A    
N24   O95   1.301741 A    
C32   C56   1.413966 A    
C76   C90   1.408497 A    
C184  C192  1.453411 S    
C149  C159  1.394601 A    
C13   C157  1.457584 S    
O5    Zn3   1.874201 S    
C150  C160  1.394598 A    
C111  O47   1.349698 S    
C117  O63   1.298529 A    
Zn10  O54   1.881232 S    
C131  C147  1.398920 A    
N21   O90   1.300491 A    
Zn9   O51   1.881232 S    
N9    O65   1.301740 A    
C114  O50   1.298534 A    
C194  C202  1.453423 S    
C114  C209  1.478213 S    
C27   C37   1.419119 A    
C129  C145  1.398915 A    
C203  C211  1.231235 T    
N16   O79   1.301736 A    
C189  C197  1.231197 T    
C22   C46   1.413964 A    
C4    C172  1.478152 S    
O23   C11   1.233063 A    
C20   C44   1.413968 A    
C130  N18   1.445078 S    
C115  C210  1.478213 S    
N14   O75   1.301736 A    
C186  C194  1.231197 T    
C133  C149  1.398920 A    
C82   C94   1.408493 A    
O2    Zn2   1.874200 S    
C87   C111  1.400850 A    
C182  C190  1.453411 S    
N22   O91   1.301738 A    
C79   C91   1.408492 A    
O28   C14   1.233066 A    
O26   C14   1.233064 A    
O29   C15   1.233063 A    
O8    Zn4   1.874200 S    
O30   C16   1.233061 A    
C202  C210  1.231235 T    
C188  C196  1.231197 T    
C147  C157  1.394595 A    
C132  C166  1.419929 A    
N7    C167  1.430598 S    
C39   C95   1.417083 A    
C197  C205  1.453423 S    
C48   C64   1.388860 A    
O19   Zn3   2.014492 S    
O17   Zn1   2.014492 S    
C24   C36   1.419117 A    
C132  N20   1.445076 S    
C124  C140  1.398915 A    
C42   C58   1.388860 A    
Zn12  O61   1.881232 S    
C110  O46   1.349697 S    
C108  N6    1.366923 A    
C42   H2    1.077868 S    
N10   O68   1.300495 A    
C111  N7    1.366921 A    
C104  N4    1.366921 A    
O16   Zn8   1.874200 S    
C109  N7    1.366921 A    
C103  N3    1.366923 A    
C66   C82   1.396652 A    
C140  C154  1.394596 A    
O6    Zn2   1.874203 S    
N12   O72   1.300496 A    
C144  C156  1.394596 A    
C121  C161  1.419932 A    
C70   C86   1.396656 A    
N22   O92   1.300491 A    
N11   O70   1.300491 A    
C187  C195  1.231197 T    
C29   C39   1.419120 A    
C175  C183  1.231208 T    
C173  C181  1.231208 T    
C46   C62   1.388860 A    
C121  N9    1.445074 S    
C18   C34   1.419124 A    
O21   Zn3   2.014492 S    
C185  C193  1.231197 T    
N23   O94   1.300491 A    
O14   Zn6   1.874203 S    
C112  O48   1.349697 S    
Zn11  O59   1.881232 S    
C106  N6    1.366923 A    
C207  C215  1.231235 T    
O12   C8    1.247135 A    
O1    C1    1.247135 A    
C84   C94   1.408493 A    
N5    C165  1.430598 S    
C32   C40   1.419117 A    
C181  C189  1.453411 S    
C36   C92   1.417077 A    
C98   N2    1.366924 A    
C23   C35   1.419118 A    
C20   C29   1.417266 A    
C17   C41   1.413968 A    
C74   C98   1.400850 A    
C77   C91   1.408492 A    
C78   C92   1.408497 A    
C144  H40   1.083568 S    
C145  H41   1.083570 S    
C46   H6    1.077869 S    
C49   C65   1.388866 A    
O13   Zn7   1.874201 S    
C53   C69   1.388860 A    
C118  C213  1.478213 S    
C60   H20   1.083435 S    
N20   O87   1.301735 A    
C113  O49   1.298534 A    
Zn12  O63   1.881229 S    
C7    C175  1.478152 S    
C60   C76   1.396656 A    
C67   C83   1.396650 A    
C22   C36   1.419121 A    
C195  C203  1.453423 S    
C61   H21   1.083430 S    
N19   O85   1.301738 A    
C26   C50   1.413966 A    
O10   C6    1.247132 A    
C125  N13   1.445075 S    
N13   O74   1.300492 A    
O18   C10   1.233061 A    
C110  N8    1.366920 A    
C83   C93   1.408493 A    
O15   Zn5   1.874203 S    
C121  C137  1.398920 A    
C30   C54   1.413968 A    
C87   C95   1.408496 A    
C88   C96   1.408493 A    
C59   C75   1.396650 A    
C18   C31   1.417261 A    
O5    C1    1.247132 A    
C99   N1    1.366921 A    
C190  C198  1.231197 T    
C124  N12   1.445073 S    
C119  C214  1.478213 S    
C170  C178  1.231208 T    
N6    C166  1.430598 S    
C136  C152  1.398920 A    
C107  N5    1.366923 A    
C137  H33   1.083570 S    
O32   Zn8   2.014492 S    
C179  C187  1.453411 S    
C180  C188  1.453411 S    
C108  O44   1.349699 S    
C143  H39   1.083567 S    
C130  C146  1.398915 A    
C123  N11   1.445076 S    
O22   Zn2   2.014492 S    
C23   C26   1.417267 A    
C43   C59   1.388866 A    
O21   C11   1.233060 A    
O22   C12   1.233061 A    
C118  O62   1.298529 A    
O23   Zn1   2.014492 S    
C31   C39   1.419120 A    
C98   O34   1.349701 S    
C28   C38   1.419118 A    
C26   C38   1.419118 A    
C33   C89   1.417077 A    
C30   C40   1.419119 A    
C134  C150  1.398920 A    
C109  O45   1.349700 S    
O3    Zn3   1.874203 S    
C101  N3    1.366922 A    
C107  O43   1.349702 S    
C54   C70   1.388860 A    
C135  C167  1.419929 A    
N3    C163  1.430598 S    
C44   C60   1.388860 A    
C77   C101  1.400850 A    
C59   H19   1.083433 S    
C16   C160  1.457584 S    
C72   H32   1.083434 S    
C140  H36   1.083571 S    
C57   H17   1.083435 S    
O30   Zn6   2.014492 S    
C151  H47   1.083567 S    
C124  C162  1.419929 A    
C142  H38   1.083568 S    
C27   C51   1.413966 A    
N15   O78   1.300491 A    
C127  C143  1.398915 A    
N24   O96   1.300491 A    
C143  C155  1.394598 A    
C50   C66   1.388866 A    
C73   C89   1.408494 A    
C64   H24   1.083434 S    
C1    C169  1.478152 S    
C120  O64   1.298529 A    
C3    C171  1.478152 S    
O9    Zn5   1.874201 S    
C118  O58   1.298534 A    
C136  N24   1.445075 S    
Zn10  O55   1.881229 S    
O11   Zn7   1.874203 S    
N21   O89   1.301740 A    
Zn9   O50   1.881232 S    
C43   H3    1.077867 S    
O16   C6    1.247135 A    
C56   H16   1.077868 S    
C41   H1    1.077869 S    
C125  C163  1.419930 A    
N16   O80   1.300496 A    
C126  C164  1.419933 A    
O6    C4    1.247132 A    
C139  C153  1.394597 A    
C40   C96   1.417083 A    
C61   C77   1.396651 A    
C24   C25   1.417267 A    
C151  C159  1.394597 A    
C114  O54   1.298529 A    
C196  C204  1.453423 S    
O31   Zn5   2.014492 S    
C147  H43   1.083567 S    
N14   O76   1.300495 A    
C137  C153  1.394594 A    
C17   C32   1.417261 A    
O8    C2    1.247135 A    
C128  C144  1.398915 A    
C72   C88   1.396651 A    
C19   C30   1.417261 A    
C116  O56   1.298529 A    
C129  C165  1.419931 A    
C106  O42   1.349698 S    
C113  O55   1.298529 A    
C127  C163  1.419932 A    
C24   C48   1.413966 A    
C64   C80   1.396655 A    
C112  N8    1.366920 A    
O2    C2    1.247132 A    
C86   C110  1.400850 A    
C193  C201  1.453423 S    
N15   O77   1.301738 A    
C122  N10   1.445075 S    
N23   O93   1.301738 A    
C139  H35   1.083565 S    
C21   C35   1.419118 A    
C56   C72   1.388866 A    
C125  C141  1.398915 A    
C22   C27   1.417266 A    
C152  H48   1.083566 S    
O28   Zn8   2.014492 S    
Zn12  O62   1.881232 S    
C145  C157  1.394598 A    
N19   O86   1.300490 A    
O14   C8    1.247132 A    
C146  H42   1.083570 S    
C67   H27   1.083434 S    
C141  C155  1.394600 A    
C105  N5    1.366922 A    
C142  C156  1.394597 A    
C14   C158  1.457589 S    
C65   H25   1.083430 S    
C176  C184  1.231208 T    
C183  C191  1.453411 S    
C177  C185  1.453411 S    
C132  C148  1.398915 A    
C119  O61   1.298529 A    
C52   C68   1.388860 A    
C126  C142  1.398915 A    
Zn10  O53   1.881232 S    
C62   C78   1.396655 A    
C116  C211  1.478213 S    
C205  C213  1.231235 T    
Zn9   O52   1.881229 S    
O15   C7    1.247135 A    
C169  C177  1.231208 T    
N9    O66   1.300492 A    
C102  O38   1.349699 S    
C37   C93   1.417083 A    
C198  C206  1.453423 S    
C53   H13   1.077868 S    
C88   C112  1.400855 A    
O4    Zn4   1.874203 S    
C11   C155  1.457584 S    
O25   Zn5   2.014492 S    
C12   C156  1.457589 S    
C97   O33   1.349700 S    
N4    C164  1.430592 S    
O27   Zn7   2.014492 S    
C102  N4    1.366925 A    
O7    Zn1   1.874203 S    
C69   H29   1.083434 S    
C126  N14   1.445077 S    
C178  C186  1.453411 S    
N1    C161  1.430598 S    
C138  H34   1.083571 S    
C146  C158  1.394596 A    
C133  N21   1.445076 S    
N18   O84   1.300491 A    
O29   Zn7   2.014492 S    
C8    C176  1.478152 S    
O19   C9    1.233063 A    
C50   H10   1.077867 S    
C5    C173  1.478152 S    
O24   C12   1.233063 A    
C65   C81   1.396653 A    
C148  C158  1.394594 A    
C100  O36   1.349700 S    
O12   Zn8   1.874203 S    
C85   C109  1.400850 A    
C54   H14   1.077868 S    
C69   C85   1.396656 A    
C133  C167  1.419926 A    
C83   C107  1.400850 A    
C134  C168  1.419929 A    
C34   C90   1.417077 A    
C71   C87   1.396654 A    
C116  O52   1.298534 A    
C81   C105  1.400850 A    
C58   H18   1.083435 S    
C57   C73   1.396655 A    
O9    C5    1.247135 A    
C45   C61   1.388866 A    
N18   O83   1.301737 A    
C75   C89   1.408493 A    
N20   O88   1.300496 A    
C23   C47   1.413966 A    
C80   C92   1.408494 A    
C17   C33   1.419119 A    
Zn12  O64   1.881229 S    
C63   C79   1.396653 A    
C75   C99   1.400855 A    
C78   C102  1.400850 A    
C44   H4    1.077868 S    
C123  C161  1.419929 A    
O4    C4    1.247135 A    
C129  N17   1.445075 S    
C192  C200  1.231197 T    
C103  O39   1.349697 S    
N13   O73   1.301739 A    
C141  H37   1.083569 S    
C206  C214  1.231235 T    
N8    C168  1.430598 S    
C55   C71   1.388860 A    
N17   O81   1.301738 A    
C105  O41   1.349702 S    
O20   Zn4   2.014492 S    
C21   C28   1.417267 A    
C150  H46   1.083566 S    
C41   C57   1.388860 A    
C2    C170  1.478152 S    
O20   C10   1.233063 A    
C148  H44   1.083570 S    
N17   O82   1.300490 A    
C191  C199  1.231197 T    
N12   O71   1.301742 A    
O10   Zn6   1.874200 S    
C128  N16   1.445077 S    
C201  C209  1.231235 T    
C35   C91   1.417083 A    
C115  O53   1.298529 A    
C119  O59   1.298534 A    
C208  C216  1.231235 T    
C81   C93   1.408491 A    
O1    Zn1   1.874201 S    
C100  N2    1.366924 A    
C76   C100  1.400850 A    
