data_mof_unit_5760.cif
_audit_creation_date              2012-12-11T14:21:23-0500
_audit_creation_method            fapswitch 2.2
_symmetry_space_group_name_H-M    P1
_symmetry_Int_Tables_number       1
_space_group_crystal_system       triclinic
_cell_length_a                    21.949452
_cell_length_b                    7.207356
_cell_length_c                    14.938269
_cell_angle_alpha                 90.439591
_cell_angle_beta                  107.280333
_cell_angle_gamma                 90.141602
_cell_volume                      2256.43463385

loop_
_atom_site_label
_atom_site_type_symbol
_atom_type_description
_atom_site_fract_x
_atom_site_fract_y
_atom_site_fract_z
_atom_type_partial_charge
O1    O     O_R   0.584770 0.505770 0.002090 -0.540053
O2    O     O_R   0.415230 0.005770 0.997910 -0.540088
O3    O     O_R   0.467060 0.173340 0.861950 -0.538087
O4    O     O_R   0.532940 0.673340 0.138050 -0.537475
C1    C     C_R   0.455026 0.343280 0.825842 0.679675
C2    C     C_R   0.544985 0.845092 0.174053 0.679827
O5    O     O_R   0.587510 0.175890 0.993210 -0.541327
O6    O     O_R   0.412490 0.675890 0.006790 -0.540652
O7    O     O_R   0.536540 0.008150 0.130100 -0.536047
O8    O     O_R   0.463460 0.508150 0.869900 -0.536855
C3    C     C_R   0.612977 0.345084 0.997472 0.732499
C4    C     C_R   0.387027 0.844791 0.002494 0.730885
O9    O     O_3   0.483140 0.340040 0.044760 -0.378241
O10   O     O_3   0.516860 0.840040 0.955240 -0.378939
V1    V     V_3+5 0.503130 0.064190 0.991700 1.426065
V2    V     V_3+5 0.496870 0.564190 0.008300 1.427987
C5    C     C_2   0.213748 0.727723 0.002755 -0.115617
C6    C     C_2   0.785830 0.227333 0.996393 -0.122541
C7    C     C_2   0.180291 0.886912 0.996061 -0.293706
C8    C     C_2   0.819729 0.386436 0.003896 -0.288255
H1    H     H_    0.190459 0.596978 0.008178 0.141291
H2    H     H_    0.808722 0.096435 0.990257 0.139040
H3    H     H_    0.202006 0.019095 0.989427 0.133980
H4    H     H_    0.798359 0.518742 0.011149 0.133578
C9    C     C_2   0.281623 0.714461 0.002509 -0.126192
C10   C     C_2   0.717939 0.214670 0.996656 -0.129822
C11   C     C_2   0.319937 0.861202 0.003439 -0.298103
C12   C     C_2   0.680087 0.361664 0.996553 -0.287850
H5    H     H_    0.300551 0.575442 0.002275 0.141248
H6    H     H_    0.698580 0.075730 0.996178 0.138349
C13   C     C_R   0.927871 0.878181 0.723477 -0.126810
C14   C     C_R   0.071629 0.388736 0.276877 -0.124392
C15   C     C_R   0.573012 0.855395 0.275717 -0.032237
C16   C     C_R   0.426621 0.344386 0.724088 -0.034639
C17   C     C_R   0.934583 0.776974 0.572002 -0.126388
C18   C     C_R   0.062690 0.406448 0.434225 -0.123229
C19   C     C_R   0.965119 0.822922 0.665443 0.352840
C20   C     C_R   0.033732 0.414764 0.337669 0.350830
C21   C     C_R   0.861533 0.892461 0.686206 -0.234430
C22   C     C_R   0.137301 0.358521 0.313809 -0.232466
C23   C     C_R   0.829881 0.843424 0.591839 0.081998
C24   C     C_R   0.167259 0.350887 0.411655 0.079873
C25   C     C_R   0.867882 0.783085 0.535465 -0.028915
C26   C     C_R   0.128368 0.373892 0.471452 -0.027607
C27   C     C_R   0.761995 0.849451 0.552089 0.043140
C28   C     C_R   0.234391 0.323608 0.451985 0.042545
C29   C     C_R   0.733707 0.797531 0.455911 -0.053275
C30   C     C_R   0.261405 0.324299 0.551837 -0.054767
C31   C     C_R   0.773222 0.712549 0.406925 0.327259
C32   C     C_R   0.218995 0.320100 0.608041 0.328085
C33   C     C_R   0.839193 0.718116 0.444593 -0.149580
C34   C     C_R   0.154488 0.356319 0.568067 -0.140676
C35   C     C_R   0.721279 0.902742 0.605479 -0.163974
C36   C     C_R   0.275334 0.292771 0.395973 -0.162532
C37   C     C_R   0.655657 0.912894 0.565585 -0.203403
C38   C     C_R   0.340564 0.270793 0.435631 -0.202682
C39   C     C_R   0.628286 0.882688 0.469903 0.150572
C40   C     C_R   0.368225 0.289544 0.531954 0.152015
C41   C     C_R   0.667169 0.831640 0.413039 0.078641
C42   C     C_R   0.329460 0.325342 0.591025 0.080015
C43   C     C_R   0.562422 0.909358 0.429989 -0.164405
C44   C     C_R   0.434666 0.273768 0.569787 -0.165117
C45   C     C_R   0.534838 0.893653 0.333393 -0.167974
C46   C     C_R   0.463397 0.295318 0.665798 -0.163875
C47   C     C_R   0.638628 0.829144 0.314805 -0.227559
C48   C     C_R   0.360685 0.367066 0.686413 -0.232112
H7    H     H_    0.666775 0.815115 0.266896 0.155737
H8    H     H_    0.334814 0.415684 0.733148 0.158525
H9    H     H_    0.484017 0.915127 0.303438 0.104067
H10   H     H_    0.514327 0.274346 0.694687 0.104097
H11   H     H_    0.963308 0.730772 0.528305 0.143509
H12   H     H_    0.033281 0.423913 0.480578 0.138978
H13   H     H_    0.738314 0.935957 0.679073 0.118643
H14   H     H_    0.258501 0.280555 0.320796 0.118242
O11   O     O_R   0.036450 0.233070 0.130130 -0.534574
O12   O     O_R   0.963550 0.733070 0.869870 -0.533474
O13   O     O_R   0.912470 0.560570 0.006790 -0.544514
O14   O     O_R   0.087530 0.060570 0.993210 -0.544419
C49   C     C_R   0.886999 0.391753 0.002620 0.721609
C50   C     C_R   0.112999 0.892035 0.997352 0.723438
O15   O     O_R   0.032920 0.562940 0.138050 -0.538380
O16   O     O_R   0.967080 0.062940 0.861950 -0.538002
O17   O     O_R   0.084790 0.730500 0.002090 -0.536562
O18   O     O_R   0.915210 0.230500 0.997910 -0.537873
C51   C     C_R   0.044711 0.395149 0.174629 0.674048
C52   C     C_R   0.955238 0.893328 0.825461 0.676370
O19   O     O_3   0.016820 0.396170 0.955260 -0.374943
O20   O     O_3   0.983180 0.896170 0.044740 -0.376384
V3    V     V_3+5 0.996880 0.672090 0.008300 1.442620
V4    V     V_3+5 0.003120 0.172090 0.991700 1.437536
O21   O     O_3   0.030771 0.806891 0.697076 -0.640572
H15   H     H_    0.047056 0.857049 0.761686 0.277068
O22   O     O_3   0.968720 0.445808 0.306738 -0.644924
H16   H     H_    0.953406 0.442920 0.237444 0.278762
H17   H     H_    0.836059 0.935493 0.734243 0.108838
H18   H     H_    0.163589 0.344299 0.263690 0.108441
O23   O     O_3   0.749732 0.606002 0.327041 -0.644245
H19   H     H_    0.711214 0.540231 0.332277 0.291286
O24   O     O_3   0.236816 0.262355 0.699823 -0.647291
H20   H     H_    0.268413 0.161577 0.705696 0.289585
H21   H     H_    0.532414 0.945382 0.473453 0.111957
H22   H     H_    0.464277 0.241563 0.525215 0.111389
H23   H     H_    0.302242 0.001031 0.004540 0.134936
H24   H     H_    0.698130 0.501473 0.996065 0.133431
H25   H     H_    0.868234 0.658864 0.404264 0.173805
H26   H     H_    0.123725 0.359934 0.613027 0.160580
H27   H     H_    0.626322 0.952679 0.609495 0.119746
H28   H     H_    0.369894 0.243852 0.390004 0.119573

loop_
_geom_bond_atom_site_label_1
_geom_bond_atom_site_label_2
_ccdc_geom_bond_type
C40   C44   A    
C48   H8    S    
O22   H16   S    
C43   H21   S    
C6    C10   S    
O2    C4    A    
C16   C48   A    
C2    O7    A    
O23   H19   S    
C15   C47   A    
C29   C31   A    
O14   V4    S    
O5    C3    A    
O13   V3    S    
C32   O24   S    
O18   V4    S    
C17   C19   A    
C49   O18   A    
O14   C50   A    
C39   C41   A    
C40   C42   A    
C24   C28   A    
C27   C29   A    
C11   H23   S    
C43   C45   A    
C38   H28   S    
C44   C46   A    
O11   V4    S    
C36   H14   S    
O11   C51   A    
C45   H9    S    
C13   C21   A    
C31   C33   A    
O1    C3    A    
C32   C34   A    
C46   H10   S    
C17   C25   A    
O19   V4    S    
O6    C4    A    
O12   V3    S    
O15   V3    S    
C26   C34   A    
C30   C32   A    
C42   C48   A    
O6    V2    S    
C13   C52   S    
C23   C25   A    
C24   C26   A    
C22   H18   S    
C50   O17   A    
C30   C42   A    
C28   C30   A    
C35   C37   A    
C9    H5    S    
O17   V3    S    
C36   C38   A    
C15   C45   A    
C29   C41   A    
C19   O21   S    
C4    C11   S    
C34   H26   S    
C8    H4    S    
C21   C23   A    
O21   H15   S    
C47   H7    S    
O16   C52   A    
C31   O23   S    
C5    H1    S    
C13   C19   A    
C37   H27   S    
O4    V2    S    
C7    H3    S    
C12   H24   S    
O24   H20   S    
C33   H25   S    
C1    C16   S    
C28   C36   A    
C16   C46   A    
O13   C49   A    
O1    V2    S    
O2    V1    S    
C21   H17   S    
O4    C2    A    
C10   H6    S    
C14   C20   A    
C37   C39   A    
C18   C26   A    
O12   C52   A    
O3    V1    S    
C8    C49   S    
C6    H2    S    
C35   H13   S    
C22   C24   A    
O3    C1    A    
C39   C43   A    
C9    C11   D    
C10   C12   D    
O16   V4    S    
C2    C15   S    
C5    C9    S    
C18   C20   A    
O7    V1    S    
C1    O8    A    
C17   H11   S    
O8    V2    S    
C41   C47   A    
C25   C33   A    
C3    C12   S    
C14   C51   S    
C20   O22   S    
O5    V1    S    
C5    C7    D    
C38   C40   A    
C6    C8    D    
C14   C22   A    
C7    C50   S    
C27   C35   A    
O20   V3    S    
O9    V2    S    
C23   C27   A    
O10   V1    S    
O15   C51   A    
C18   H12   S    
C44   H22   S    
