data_mof_unit_62533.cif
_audit_creation_date              2012-10-26T20:46:12-0400
_audit_creation_method            fapswitch 2.2
_symmetry_space_group_name_H-M    P1
_symmetry_Int_Tables_number       1
_space_group_crystal_system       triclinic
_cell_length_a                    23.489492
_cell_length_b                    25.373682
_cell_length_c                    16.16835
_cell_angle_alpha                 88.465287
_cell_angle_beta                  98.586025
_cell_angle_gamma                 89.378575
_cell_volume                      9524.08644039

loop_
_atom_site_label
_atom_site_type_symbol
_atom_type_description
_atom_site_fract_x
_atom_site_fract_y
_atom_site_fract_z
_atom_type_partial_charge
C1    C     C_R   0.426389 0.076384 0.488876 0.552835
C2    C     C_R   0.530299 0.973460 0.165458 -0.060993
C3    C     C_1   0.935059 0.560674 0.871889 0.320758
C4    C     C_1   0.313038 0.702229 0.522493 0.215797
C5    C     C_1   0.686329 0.298360 0.476968 0.215828
C6    C     C_1   0.761970 0.788914 0.400418 0.224956
C7    C     C_1   0.242069 0.213739 0.599986 0.225700
C8    C     C_1   0.813038 0.202229 0.522489 0.215790
C9    C     C_1   0.186329 0.798360 0.476961 0.215829
C10   C     C_1   0.261967 0.288912 0.400416 0.224959
C11   C     C_1   0.742069 0.713739 0.599985 0.225703
C12   C     C_1   0.385939 0.005671 0.278954 0.354563
C13   C     C_R   0.972208 0.523550 0.837652 -0.060371
C14   C     C_1   0.613707 0.992193 0.720763 0.335370
C15   C     C_1   0.885939 0.505671 0.278958 0.354573
C16   C     C_1   0.113707 0.492199 0.720754 0.335401
C17   C     C_R   0.030294 0.473463 0.165454 -0.060964
C18   C     C_R   0.520987 0.002822 0.888374 -0.048047
C19   C     C_R   0.479265 0.986695 0.112415 -0.058250
C20   C     C_R   0.020991 0.502838 0.888374 -0.048034
C21   C     C_R   0.979262 0.486705 0.112413 -0.058231
C22   C     C_R   0.568108 0.986593 0.849250 0.215434
C23   C     C_R   0.430446 0.000456 0.150068 0.215197
C24   C     C_R   0.068117 0.486620 0.849251 0.215416
C25   C     C_R   0.573685 0.923622 0.511111 0.554027
C26   C     C_R   0.930444 0.500465 0.150069 0.215194
C27   C     C_R   0.562812 0.991126 0.760440 0.077470
C28   C     C_R   0.436759 0.003498 0.238958 0.089779
C29   C     C_R   0.062815 0.491138 0.760439 0.077457
C30   C     C_R   0.936758 0.503502 0.238960 0.089770
C31   C     C_2   0.522683 0.002167 0.981403 -0.082568
C32   C     C_2   0.478582 0.983932 0.019470 -0.082393
C33   C     C_2   0.022682 0.502182 0.981404 -0.082622
C34   C     C_2   0.978579 0.483948 0.019466 -0.082395
C35   C     C_R   0.382316 0.883399 0.489843 0.015984
C36   C     C_R   0.574330 0.075450 0.509245 0.549629
C37   C     C_R   0.617345 0.116882 0.510107 0.018505
C38   C     C_R   0.611954 0.877199 0.517750 0.022528
C39   C     C_R   0.388821 0.123210 0.482189 0.025791
C40   C     C_R   0.882316 0.383399 0.489843 0.015987
C41   C     C_R   0.117345 0.616882 0.510107 0.018499
C42   C     C_R   0.111953 0.377199 0.517751 0.022532
C43   C     C_R   0.888822 0.623210 0.482190 0.025788
C44   C     C_R   0.378130 0.851749 0.562281 -0.004295
C45   C     C_R   0.621211 0.148687 0.437727 -0.003341
C46   C     C_R   0.604409 0.837217 0.457956 0.007620
C47   C     C_R   0.425538 0.924654 0.490747 0.546953
C48   C     C_R   0.398829 0.164422 0.539491 0.007802
C49   C     C_R   0.878131 0.351747 0.562281 -0.004292
C50   C     C_R   0.121213 0.648685 0.437725 -0.003341
C51   C     C_R   0.104407 0.337216 0.457958 0.007621
C52   C     C_R   0.898830 0.664422 0.539493 0.007802
C53   C     C_R   0.332174 0.817823 0.562268 -0.089674
C54   C     C_R   0.667036 0.182748 0.437573 -0.089578
C55   C     C_R   0.643868 0.795325 0.464203 -0.087908
C56   C     C_R   0.360304 0.207057 0.533185 -0.087821
C57   C     C_R   0.832176 0.317822 0.562268 -0.089674
C58   C     C_R   0.926389 0.576384 0.488876 0.552836
C59   C     C_R   0.167038 0.682746 0.437572 -0.089578
C60   C     C_R   0.143866 0.295324 0.464205 -0.087910
C61   C     C_R   0.860305 0.707057 0.533188 -0.087824
C62   C     C_R   0.291534 0.813350 0.490488 0.014959
C63   C     C_R   0.707847 0.187207 0.509166 0.015489
C64   C     C_R   0.690261 0.792682 0.529564 0.009893
C65   C     C_R   0.312562 0.209220 0.469970 0.010651
C66   C     C_R   0.791534 0.313350 0.490490 0.014960
C67   C     C_R   0.207847 0.687207 0.509167 0.015487
C68   C     C_R   0.190259 0.292681 0.529564 0.009893
C69   C     C_R   0.073685 0.423622 0.511111 0.554026
C70   C     C_R   0.812564 0.709221 0.469971 0.010649
C71   C     C_R   0.296321 0.843293 0.418133 -0.093464
C72   C     C_R   0.703327 0.157148 0.581510 -0.094386
C73   C     C_R   0.695640 0.830330 0.591502 -0.091215
C74   C     C_R   0.304596 0.170128 0.410419 -0.093951
C75   C     C_R   0.796320 0.343294 0.418135 -0.093466
C76   C     C_R   0.203325 0.657150 0.581512 -0.094379
C77   C     C_R   0.195640 0.330330 0.591500 -0.091219
C78   C     C_R   0.804598 0.670130 0.410418 -0.093950
C79   C     C_R   0.341650 0.878002 0.417675 -0.106741
C80   C     C_R   0.074330 0.575450 0.509245 0.549627
C81   C     C_R   0.658134 0.122304 0.582116 -0.106518
C82   C     C_R   0.656607 0.872253 0.585708 -0.104609
C83   C     C_R   0.342611 0.127425 0.416436 -0.106527
C84   C     C_R   0.841650 0.378002 0.417677 -0.106742
C85   C     C_R   0.158132 0.622307 0.582118 -0.106510
C86   C     C_R   0.156607 0.372253 0.585708 -0.104617
C87   C     C_R   0.842612 0.627427 0.416434 -0.106527
C88   C     C_2   0.244346 0.776328 0.491203 -0.041500
C89   C     C_2   0.755008 0.224242 0.508256 -0.041427
C90   C     C_2   0.735099 0.751976 0.530776 -0.045473
C91   C     C_R   0.925538 0.424654 0.490747 0.546955
C92   C     C_2   0.268519 0.250530 0.469384 -0.045864
C93   C     C_2   0.744346 0.276328 0.491205 -0.041502
C94   C     C_2   0.255008 0.724242 0.508257 -0.041428
C95   C     C_2   0.235098 0.251975 0.530776 -0.045472
C96   C     C_2   0.768521 0.750532 0.469386 -0.045864
C97   C     C_R   0.463464 0.014143 0.751519 0.363523
C98   C     C_R   0.537734 0.986675 0.250347 0.365516
C99   C     C_R   0.963464 0.514143 0.751518 0.363520
C100  C     C_R   0.037732 0.486675 0.250344 0.365533
C101  C     C_1   0.420504 0.852074 0.637011 0.257491
C102  C     C_R   0.472209 0.023545 0.837655 -0.060381
C103  C     C_1   0.578634 0.148364 0.363231 0.258067
C104  C     C_1   0.556023 0.837354 0.391231 0.258334
C105  C     C_1   0.448807 0.164685 0.603572 0.256059
C106  C     C_1   0.920507 0.352071 0.637009 0.257486
C107  C     C_1   0.078639 0.648360 0.363227 0.258075
C108  C     C_1   0.056020 0.337352 0.391235 0.258334
C109  C     C_1   0.948807 0.664684 0.603576 0.256059
C110  C     C_1   0.572570 0.939387 0.135722 0.314799
C111  C     C_1   0.435058 0.060664 0.871901 0.320742
C112  C     C_1   0.072557 0.439381 0.135716 0.314669
Cu1   Cu    Cu3+1 0.495980 0.000000 0.415120 1.088401
Cu2   Cu    Cu3+1 0.504020 0.000000 0.584880 1.089866
Cu3   Cu    Cu3+1 0.995980 0.500000 0.415120 1.088402
Cu4   Cu    Cu3+1 0.004020 0.500000 0.584880 1.089859
H1    H     H_    0.655957 0.098727 0.638291 0.161750
H2    H     H_    0.734759 0.160730 0.637288 0.141163
H3    H     H_    0.731143 0.828173 0.642690 0.147830
H4    H     H_    0.267858 0.171809 0.361114 0.142486
H5    H     H_    0.765014 0.339700 0.362220 0.143639
H6    H     H_    0.234755 0.660735 0.637292 0.141177
H7    H     H_    0.231144 0.328173 0.642688 0.147828
H8    H     H_    0.767861 0.671812 0.361111 0.142489
H9    H     H_    0.670904 0.206272 0.381689 0.132946
H10   H     H_    0.328092 0.794377 0.618151 0.133139
H11   H     H_    0.366764 0.238221 0.578129 0.132870
H12   H     H_    0.344048 0.901478 0.361464 0.165207
H13   H     H_    0.639161 0.765086 0.417588 0.131692
H14   H     H_    0.170909 0.706268 0.381686 0.132949
H15   H     H_    0.828094 0.294376 0.618151 0.133136
H16   H     H_    0.866765 0.738220 0.578132 0.132868
H17   H     H_    0.139158 0.265084 0.417590 0.131691
H18   H     H_    0.442426 0.965948 0.981564 0.208082
H19   H     H_    0.559363 0.019595 0.018949 0.204101
H20   H     H_    0.942419 0.465970 0.981557 0.208079
H21   H     H_    0.059363 0.519605 0.018956 0.204079
H22   H     H_    0.308315 0.015206 0.747787 0.387292
H23   H     H_    0.334853 0.097038 0.370902 0.168646
H24   H     H_    0.692204 0.992784 0.253444 0.382207
H25   H     H_    0.808312 0.515196 0.747782 0.387290
H26   H     H_    0.192202 0.492770 0.253435 0.382205
H27   H     H_    0.685754 0.976502 0.025255 0.391653
H28   H     H_    0.288043 0.061675 0.100249 0.385783
H29   H     H_    0.185602 0.476550 0.025434 0.391660
H30   H     H_    0.788020 0.561654 0.100267 0.385777
H31   H     H_    0.662390 0.901500 0.633322 0.172497
H32   H     H_    0.155953 0.598731 0.638295 0.161762
H33   H     H_    0.844046 0.401479 0.361466 0.165205
H34   H     H_    0.834856 0.597040 0.370899 0.168651
H35   H     H_    0.162391 0.401500 0.633320 0.172485
H36   H     H_    0.265016 0.839698 0.362217 0.143642
N1    N     N_R   0.510090 0.000000 0.712400 -0.299521
N2    N     N_1   0.044597 0.648125 0.303574 -0.234221
N3    N     N_1   0.017265 0.337501 0.337817 -0.251279
N4    N     N_1   0.988844 0.664852 0.654866 -0.254283
N5    N     N_1   0.606462 0.911662 0.113973 -0.145726
N6    N     N_1   0.405959 0.091094 0.898329 -0.145440
N7    N     N_1   0.106439 0.411647 0.113964 -0.145937
N8    N     N_1   0.905960 0.591110 0.898309 -0.145437
N9    N     N_1   0.359301 0.684639 0.533837 -0.246923
N10   N     N_1   0.640074 0.315968 0.465623 -0.247021
N11   N     N_1   0.756720 0.819552 0.345387 -0.211141
N12   N     N_R   0.489910 0.000000 0.287600 -0.303033
N13   N     N_1   0.247659 0.183223 0.655193 -0.208388
N14   N     N_1   0.859300 0.184639 0.533830 -0.246939
N15   N     N_1   0.140074 0.815967 0.465613 -0.247023
N16   N     N_1   0.256716 0.319549 0.345383 -0.211130
N17   N     N_1   0.747658 0.683222 0.655192 -0.208379
N18   N     N_1   0.344614 0.006592 0.309940 -0.281180
N19   N     N_1   0.654926 0.993999 0.689545 -0.275054
N20   N     N_1   0.844615 0.506589 0.309945 -0.281173
N21   N     N_1   0.154923 0.494000 0.689528 -0.275018
N22   N     N_R   0.010090 0.500000 0.712400 -0.299523
N23   N     N_R   0.989910 0.500000 0.287600 -0.303035
N24   N     N_1   0.454383 0.852311 0.696849 -0.230181
N25   N     N_1   0.544590 0.148131 0.303581 -0.234222
N26   N     N_1   0.517270 0.837504 0.337811 -0.251282
N27   N     N_1   0.488845 0.164855 0.654861 -0.254287
N28   N     N_1   0.954388 0.352308 0.696844 -0.230207
O1    O     O_R   0.439420 0.056820 0.420010 -0.525056
O2    O     O_R   0.553780 0.943190 0.436630 -0.437475
O3    O     O_R   0.553780 0.056810 0.436630 -0.451402
O4    O     O_R   0.446220 0.943190 0.563370 -0.452963
O5    O     O_R   0.946220 0.556810 0.563370 -0.433495
O6    O     O_R   0.053780 0.443190 0.436630 -0.437471
O7    O     O_R   0.053780 0.556810 0.436630 -0.451405
O8    O     O_R   0.946220 0.443190 0.563370 -0.452959
O9    O     O_2   0.377737 0.080199 0.684299 -0.286333
O10   O     O_2   0.373555 0.992972 0.623491 -0.246565
O11   O     O_3   0.347198 0.001135 0.770367 -0.497667
O12   O     O_R   0.560580 0.943180 0.579990 -0.524743
O13   O     O_2   0.627484 0.008883 0.381781 -0.241589
O14   O     O_2   0.627337 0.924152 0.315294 -0.288927
O15   O     O_3   0.653022 0.007315 0.234110 -0.520108
O16   O     O_2   0.877735 0.580195 0.684293 -0.286325
O17   O     O_2   0.873553 0.492965 0.623494 -0.246574
O18   O     O_3   0.847198 0.501134 0.770370 -0.497671
O19   O     O_2   0.127483 0.508885 0.381769 -0.241580
O20   O     O_2   0.127330 0.424148 0.315297 -0.288906
O21   O     O_3   0.153021 0.507303 0.234098 -0.520171
O22   O     O_2   0.614126 0.906289 0.946211 -0.236556
O23   O     O_R   0.560580 0.056820 0.579990 -0.523226
O24   O     O_2   0.678480 0.947680 0.859877 -0.249278
O25   O     O_3   0.656093 0.997819 0.988573 -0.515894
O26   O     O_2   0.359843 0.016213 0.998896 -0.243725
O27   O     O_2   0.325035 0.962036 0.107354 -0.262568
O28   O     O_3   0.329133 0.063236 0.125166 -0.502734
O29   O     O_2   0.114201 0.406354 0.946233 -0.236713
O30   O     O_2   0.178520 0.447787 0.859892 -0.249050
O31   O     O_3   0.156094 0.497916 0.988568 -0.515853
O32   O     O_2   0.859847 0.516255 0.998904 -0.243729
O33   O     O_2   0.825047 0.462027 0.107312 -0.262565
O34   O     O_R   0.439420 0.943180 0.420010 -0.525910
O35   O     O_3   0.829110 0.563221 0.125205 -0.502726
O36   O     O_R   0.939420 0.556820 0.420010 -0.525058
O37   O     O_R   0.060580 0.443180 0.579990 -0.524750
O38   O     O_R   0.060580 0.556820 0.579990 -0.523230
O39   O     O_R   0.939420 0.443180 0.420010 -0.525910
O40   O     O_R   0.446220 0.056810 0.563370 -0.433492
S1    S     S_3+6 0.390030 0.022430 0.702082 0.067333
S2    S     S_3+6 0.611629 0.981617 0.301140 0.063508
S3    S     S_3+6 0.890029 0.522426 0.702082 0.067331
S4    S     S_3+6 0.111626 0.481613 0.301134 0.063511
S5    S     S_3+6 0.630966 0.958008 0.910330 0.032769
S6    S     S_3+6 0.360095 0.009421 0.091304 0.034486
S7    S     S_3+6 0.130997 0.458083 0.910340 0.032801
S8    S     S_3+6 0.860093 0.509429 0.091306 0.034476

loop_
_geom_bond_atom_site_label_1
_geom_bond_atom_site_label_2
_ccdc_geom_bond_type
C61   C70   A    
C16   N21   T    
C65   C92   S    
C79   H12   S    
C59   H14   S    
C27   N1    A    
C73   H3    S    
C112  N7    T    
C38   C46   A    
C70   C78   A    
O30   S7    D    
C40   C84   A    
C19   C23   A    
H22   O11   S    
C85   H32   S    
C64   C90   S    
C57   C66   A    
C21   C26   A    
C35   C47   S    
C41   C80   S    
C83   H23   S    
C82   H31   S    
C22   S5    S    
H27   O25   S    
C108  N3    T    
C12   C28   S    
C69   O37   A    
C50   C59   A    
O19   S4    D    
C36   C37   S    
C111  N6    T    
C72   C81   A    
C52   C61   A    
C9    C88   S    
C80   O38   A    
O9    S1    D    
C43   C52   A    
C54   C63   A    
C100  S4    S    
C56   C65   A    
C47   O34   A    
C81   H1    S    
Cu1   O2    S    
C49   C57   A    
O35   S8    S    
C18   C102  A    
C56   H11   S    
C106  N28   T    
C29   N22   A    
C109  N4    T    
C24   C29   A    
Cu3   N23   S    
C98   S2    S    
C45   C103  S    
C61   H16   S    
C59   C67   A    
C44   C53   A    
Cu1   O1    S    
C20   C24   A    
C26   S8    S    
C51   C108  S    
C55   H13   S    
C87   H34   S    
C46   C55   A    
O26   S6    D    
C67   C94   S    
C64   C73   A    
O25   S5    S    
C42   C86   A    
C36   O23   A    
C97   N1    A    
C14   C27   S    
C24   S7    S    
C78   H8    S    
O11   S1    S    
Cu2   N1    S    
C97   C102  A    
C43   C58   S    
C42   C51   A    
O14   S2    D    
O28   S6    S    
C84   H33   S    
C74   H4    S    
C7    N13   T    
C10   C92   S    
C40   C91   S    
O31   S7    S    
C38   C82   A    
C58   O5    A    
C91   O39   A    
C67   C76   A    
C37   C81   A    
C102  C111  S    
Cu1   O34   S    
C105  N27   T    
C19   C32   S    
C71   C79   A    
C76   H6    S    
H24   O15   S    
O22   S5    D    
C99   S3    S    
C54   H9    S    
C88   C94   D    
C68   C95   S    
Cu2   O12   S    
O20   S4    D    
C74   C83   A    
C9    N15   T    
C31   H19   S    
O10   S1    D    
C33   H21   S    
Cu3   O6    S    
C1    O1    A    
C107  N2    T    
C47   O4    A    
C12   N18   T    
C21   C34   S    
C16   C29   S    
C62   C88   S    
C92   C95   D    
C17   C21   A    
C65   C74   A    
C103  N25   T    
C41   C50   A    
C13   C99   A    
C70   C96   S    
H26   O21   S    
C77   H7    S    
C25   C38   S    
C60   H17   S    
Cu3   O7    S    
C53   C62   A    
O27   S6    D    
C5    C93   S    
C48   C105  S    
C34   H20   S    
C55   C64   A    
C63   C89   S    
C100  N23   A    
C33   C34   D    
C36   O3    A    
C23   C28   A    
C91   O8    A    
C35   C44   A    
C60   C68   A    
C110  N5    T    
C8    N14   T    
C66   C93   S    
C4    C94   S    
C20   C33   S    
O13   S2    D    
C4    N9    T    
C77   C86   A    
C11   N17   T    
C6    C96   S    
C22   C27   A    
C3    N8    T    
C78   C87   A    
H25   O18   S    
Cu4   O38   S    
C17   C112  S    
C73   C82   A    
C23   S6    S    
C41   C85   A    
C25   O2    A    
C28   N12   A    
C15   C30   S    
Cu1   Cu2   S    
C68   C77   A    
C48   C56   A    
C2    C110  S    
C13   C20   A    
C2    C19   A    
C75   H5    S    
C57   H15   S    
C31   C32   D    
H30   O35   S    
Cu2   O40   S    
C14   N19   T    
O17   S3    D    
C25   O12   A    
C3    C13   S    
C45   C54   A    
O15   S2    S    
C98   N12   A    
C44   C101  S    
C90   C96   D    
C49   C106  S    
C51   C60   A    
H29   O31   S    
C7    C95   S    
Cu4   O5    S    
C8    C89   S    
Cu4   N22   S    
C43   C87   A    
C5    N10   T    
C18   C22   A    
O18   S3    S    
Cu4   O37   S    
C39   C83   A    
O33   S8    D    
C86   H35   S    
Cu1   N12   S    
C32   H18   S    
C11   C90   S    
Cu3   Cu4   S    
Cu1   O3    S    
C99   N22   A    
C46   C104  S    
C52   C109  S    
Cu2   O4    S    
C66   C75   A    
C69   O6    A    
C35   C79   A    
C63   C72   A    
Cu4   O8    S    
C80   O7    A    
C97   S1    S    
C62   C71   A    
C1    O40   A    
C42   C69   S    
Cu3   O36   S    
C89   C93   D    
C75   C84   A    
C17   C100  A    
C50   C107  S    
O16   S3    D    
C53   H10   S    
C1    C39   S    
C15   N20   T    
O32   S8    D    
C6    N11   T    
C2    C98   A    
C10   N16   T    
C72   H2    S    
C71   H36   S    
Cu2   O23   S    
C101  N24   T    
C104  N26   T    
C18   C31   S    
O29   S7    D    
O21   S4    S    
H28   O28   S    
O24   S5    D    
C37   C45   A    
C76   C85   A    
C30   N23   A    
C40   C49   A    
C39   C48   A    
Cu3   O39   S    
C26   C30   A    
C58   O36   A    
