data_mof_unit_45001.cif
_audit_creation_date              2012-12-10T18:12:31-0500
_audit_creation_method            fapswitch 2.2
_symmetry_space_group_name_H-M    P1
_symmetry_Int_Tables_number       1
_space_group_crystal_system       triclinic
_cell_length_a                    9.422199
_cell_length_b                    10.727865
_cell_length_c                    17.335014
_cell_angle_alpha                 90.031933
_cell_angle_beta                  85.863798
_cell_angle_gamma                 89.965249
_cell_volume                      1747.66011451

loop_
_atom_site_label
_atom_site_type_symbol
_atom_type_description
_atom_site_fract_x
_atom_site_fract_y
_atom_site_fract_z
_atom_type_partial_charge
C1    C     C_R   0.500230 0.740197 0.499943 0.762332
C2    C     C_R   0.342719 0.478080 0.776352 -0.251761
C3    C     C_R   0.413514 0.462554 0.146928 -0.152193
C4    C     C_R   0.405812 0.468420 0.226994 -0.219019
C5    C     C_R   0.659977 0.507576 0.223256 -0.207268
C6    C     C_R   0.667437 0.502398 0.142817 -0.180246
C7    C     C_R   0.543931 0.482108 0.104342 0.194128
C8    C     C_2   0.446638 0.524685 0.980133 -0.223141
C9    C     C_2   0.552926 0.481506 0.019722 -0.255667
C10   C     C_R   0.528630 0.492067 0.265721 -0.030190
C11   C     C_3   0.432663 0.928017 0.427208 -0.380615
C12   C     C_R   0.481251 0.501687 0.649837 0.804424
C13   C     C_3   0.432539 0.071926 0.427233 -0.382205
C14   C     C_3   0.415353 0.928153 0.573204 -0.381613
C15   C     C_3   0.655646 0.928572 0.499227 -0.378990
C16   C     C_3   0.500956 0.878163 0.499892 0.169635
C17   C     C_3   0.500893 0.121829 0.499889 0.169663
C18   C     C_3   0.415381 0.072049 0.573223 -0.381307
C19   C     C_3   0.655623 0.071248 0.499147 -0.378074
C20   C     C_3   0.921477 0.391034 0.455160 -0.187589
C21   C     C_3   0.089074 0.389459 0.455316 -0.190743
C22   C     C_3   0.922563 0.613067 0.461635 -0.194377
C23   C     C_R   0.500185 0.259801 0.499954 0.762190
C24   C     C_3   0.905779 0.493084 0.577894 -0.180526
C25   C     C_3   0.089852 0.611500 0.462279 -0.184549
C26   C     C_3   0.072853 0.490985 0.578270 -0.187749
C27   C     C_R   0.518693 0.498305 0.350102 0.791953
C28   C     C_R   0.470701 0.507982 0.734103 -0.048689
C29   C     C_R   0.589114 0.545237 0.772754 -0.214882
C30   C     C_R   0.580307 0.551985 0.852770 -0.166563
C31   C     C_R   0.453961 0.519080 0.895477 0.138954
C32   C     C_R   0.334129 0.482116 0.857047 0.027959
Cu1   Cu    Cu3+1 0.357600 0.500140 0.499960 0.892187
Cu2   Cu    Cu3+1 0.642400 0.499860 0.500040 0.891898
H1    H     H_    0.688175 0.570816 0.741146 0.140125
H2    H     H_    0.768846 0.517077 0.110626 0.124102
H3    H     H_    0.321354 0.893688 0.426119 0.158413
H4    H     H_    0.492910 0.893143 0.373928 0.149103
H5    H     H_    0.492617 0.106767 0.373931 0.149235
H6    H     H_    0.321166 0.106244 0.426224 0.157882
H7    H     H_    0.303651 0.893902 0.575174 0.159843
H8    H     H_    0.303690 0.106474 0.575259 0.160131
H9    H     H_    0.707511 0.894564 0.550987 0.158433
H10   H     H_    0.719842 0.894300 0.447023 0.156866
H11   H     H_    0.719622 0.105186 0.446833 0.156288
H12   H     H_    0.303689 0.453598 0.258480 0.140173
H13   H     H_    0.707700 0.105463 0.550798 0.159810
H14   H     H_    0.462922 0.893298 0.626044 0.149337
H15   H     H_    0.463064 0.106890 0.626043 0.149544
H16   H     H_    0.890140 0.391749 0.394527 0.137182
H17   H     H_    0.879997 0.302669 0.481388 0.137373
H18   H     H_    0.122183 0.300260 0.481235 0.136106
H19   H     H_    0.136859 0.390312 0.394758 0.134721
H20   H     H_    0.891533 0.621622 0.401155 0.134965
H21   H     H_    0.138383 0.620303 0.402117 0.138838
H22   H     H_    0.863963 0.574460 0.612279 0.133420
H23   H     H_    0.756309 0.525085 0.252032 0.139197
H24   H     H_    0.861595 0.408187 0.607602 0.142076
H25   H     H_    0.106604 0.405066 0.607902 0.135088
H26   H     H_    0.107524 0.571237 0.612968 0.140128
H27   H     H_    0.881723 0.697783 0.492776 0.136708
H28   H     H_    0.122818 0.695437 0.494018 0.137670
H29   H     H_    0.649124 0.446195 0.989279 0.148901
H30   H     H_    0.317558 0.441773 0.118602 0.132207
H31   H     H_    0.250897 0.448374 0.746844 0.144129
H32   H     H_    0.349634 0.560031 0.010055 0.159889
H33   H     H_    0.671983 0.584070 0.881256 0.129661
N1    N     N_3   0.856560 0.499750 0.498270 -0.111744
N2    N     N_3   0.143860 0.496700 0.498910 -0.111738
O1    O     O_R   0.379740 0.682430 0.499960 -0.597963
O2    O     O_R   0.620260 0.682190 0.500020 -0.597356
O3    O     O_R   0.365800 0.500150 0.613560 -0.595114
O4    O     O_R   0.606310 0.499910 0.613620 -0.596410
O5    O     O_R   0.379740 0.317810 0.499980 -0.595473
O6    O     O_R   0.620260 0.317570 0.500040 -0.597485
O7    O     O_R   0.393690 0.500090 0.386380 -0.593270
O8    O     O_R   0.634200 0.499850 0.386440 -0.592568
C33   C     C_R   0.202287 0.440966 0.900552 0.092966
C34   C     C_R   0.198905 0.326369 0.939694 -0.145020
C35   C     C_R   0.076532 0.290043 0.984317 -0.143557
C36   C     C_R   0.957755 0.368356 0.990632 -0.121705
C37   C     C_R   0.961051 0.482930 0.952026 -0.148200
C38   C     C_R   0.082511 0.518815 0.906471 -0.165012
H34   H     H_    0.291294 0.265939 0.936058 0.128752
H35   H     H_    0.074200 0.201728 0.014531 0.123508
H36   H     H_    0.863784 0.340286 0.025836 0.117899
H37   H     H_    0.870471 0.544845 0.958038 0.113783
H38   H     H_    0.084480 0.608153 0.877333 0.120794

loop_
_geom_bond_atom_site_label_1
_geom_bond_atom_site_label_2
_ccdc_geom_bond_type
C10   C27   S    
C8    H32   S    
C14   C18   S    
C2    H31   S    
C36   C37   A    
C22   H20   S    
C4    H12   S    
C3    H30   S    
C15   C19   S    
C1    O2    A    
C12   C28   S    
C28   C29   A    
C24   C26   S    
C15   H10   S    
C20   H17   S    
C3    C7    A    
C18   H8    S    
Cu2   O8    S    
C5    C6    A    
C19   H13   S    
C37   H37   S    
C2    C32   A    
C11   H3    S    
C13   H6    S    
C20   H16   S    
Cu1   O3    S    
C33   C38   A    
C8    C9    D    
C22   C25   S    
C29   C30   A    
C26   H25   S    
C30   H33   S    
Cu1   N2    S    
Cu2   O6    S    
C38   H38   S    
C12   O3    A    
C12   O4    A    
Cu1   Cu2   S    
C15   C16   S    
C25   H21   S    
Cu2   N1    S    
C33   C34   A    
C14   H14   S    
C21   N2    S    
C11   H4    S    
C35   H35   S    
C11   C16   S    
Cu1   O7    S    
C31   C32   A    
C30   C31   A    
C17   C18   S    
C1    C16   S    
C17   C23   S    
C22   N1    S    
Cu1   O1    S    
C14   H7    S    
C14   C16   S    
C25   N2    S    
C23   O5    A    
C4    C10   A    
C27   O7    A    
C7    C9    S    
C9    H29   S    
C8    C31   S    
C20   N1    S    
C36   H36   S    
C23   O6    A    
C35   C36   A    
C27   O8    A    
C19   H11   S    
C6    C7    A    
C5    H23   S    
C24   H22   S    
C29   H1    S    
C1    O1    A    
C13   C17   S    
C15   H9    S    
C5    C10   A    
C22   H27   S    
C21   H19   S    
C11   C13   S    
C34   H34   S    
C17   C19   S    
C6    H2    S    
C25   H28   S    
C13   H5    S    
C24   N1    S    
Cu2   O4    S    
C32   C33   S    
C34   C35   A    
Cu1   O5    S    
C20   C21   S    
C24   H24   S    
C37   C38   A    
C26   N2    S    
C2    C28   A    
C26   H26   S    
Cu2   O2    S    
C21   H18   S    
C3    C4    A    
C18   H15   S    
