data_mof_unit_17887.cif
_audit_creation_date              2013-03-05T15:52:33-0500
_audit_creation_method            fapswitch 2.2
_symmetry_space_group_name_H-M    P1
_symmetry_Int_Tables_number       1
_space_group_crystal_system       triclinic
_cell_length_a                    7.000423
_cell_length_b                    20.4834
_cell_length_c                    24.435432
_cell_angle_alpha                 89.386587
_cell_angle_beta                  90.441868
_cell_angle_gamma                 89.491243
_cell_volume                      3503.41109674

loop_
_atom_site_label
_atom_site_type_symbol
_atom_site_description
_atom_site_fract_x
_atom_site_fract_y
_atom_site_fract_z
_atom_type_partial_charge
O1    O     O_R   0.507310 0.423620 0.460450 -0.595314
O2    O     O_R   0.170760 0.556060 0.437190 -0.588270
O3    O     O_R   0.004040 0.576380 0.539550 -0.588536
C1    C     C_R   0.337827 0.576428 0.421463 0.976884
O4    O     O_R   0.177350 0.422870 0.454070 -0.590593
O5    O     O_R   0.010680 0.442240 0.556560 -0.586283
C2    C     C_R   0.345926 0.398619 0.444645 0.940291
O6    O     O_R   0.500670 0.557760 0.443440 -0.587220
O7    O     O_3   0.340380 0.506510 0.533610 -0.275190
V1    V     V_3+5 0.064130 0.498790 0.493770 1.155768
O8    O     O_R   0.681170 0.443940 0.562810 -0.593178
C3    C     C_R   0.850074 0.423717 0.578400 0.978854
O9    O     O_R   0.674570 0.577130 0.545930 -0.589146
C4    C     C_R   0.842665 0.600807 0.556751 0.914134
V2    V     V_3+5 0.564560 0.501210 0.506230 1.154844
O10   O     O_3   0.838170 0.493490 0.466390 -0.274216
C5    C     C_R   0.977240 0.839140 0.910247 -0.099680
C6    C     C_R   0.846602 0.662022 0.588341 -0.094369
C7    C     C_R   0.053064 0.724149 0.903890 -0.181573
C8    C     C_R   0.041336 0.780928 0.934422 -0.155358
C9    C     C_R   0.926491 0.840340 0.854302 -0.250434
C10   C     C_R   0.941976 0.783105 0.821504 0.130923
C11   C     C_R   0.005524 0.724752 0.847970 0.184160
C12   C     C_R   0.899874 0.781604 0.763629 0.032854
C13   C     C_R   0.920823 0.721972 0.733850 0.060957
C14   C     C_R   0.983456 0.665672 0.762910 -0.187246
C15   C     C_R   0.024351 0.667230 0.818524 -0.245989
C16   C     C_R   0.839165 0.837937 0.734725 -0.286889
C17   C     C_R   0.798645 0.837712 0.678569 0.186607
C18   C     C_R   0.817985 0.779021 0.648790 0.112105
C19   C     C_R   0.879011 0.720438 0.676095 0.074522
C20   C     C_R   0.774953 0.777416 0.592179 -0.176217
C21   C     C_R   0.787665 0.719829 0.562788 -0.165247
C22   C     C_R   0.893162 0.662243 0.644399 -0.220812
H1    H     H_    0.072988 0.622639 0.838724 0.129366
H2    H     H_    0.934585 0.615800 0.661983 0.094511
H3    H     H_    0.749483 0.720298 0.519712 0.107812
H4    H     H_    0.102912 0.679648 0.923952 0.119644
H5    H     H_    0.084141 0.779713 0.977085 0.110157
H6    H     H_    0.880693 0.886887 0.837784 0.103498
H7    H     H_    0.004270 0.619058 0.743910 0.125702
H8    H     H_    0.822988 0.883950 0.755024 0.136641
H9    H     H_    0.728583 0.820354 0.569607 0.131402
C23   C     C_3   0.771457 0.251175 0.799490 -0.424445
C24   C     C_3   0.127839 0.249909 0.782871 -0.491045
C25   C     C_3   0.079934 0.307543 0.742188 0.004985
H10   H     H_    0.696443 0.344513 0.759613 0.160204
H11   H     H_    0.799256 0.283535 0.834922 0.166798
H12   H     H_    0.248806 0.220010 0.767342 0.179095
H13   H     H_    0.173219 0.269940 0.823027 0.153864
H14   H     H_    0.038460 0.349157 0.768871 0.115197
C26   C     C_1   0.858998 0.377605 0.623716 -0.308460
C27   C     C_3   0.947463 0.206229 0.790123 0.365208
C28   C     C_3   0.728983 0.293354 0.747720 -0.507451
C29   C     C_3   0.898453 0.290715 0.707291 0.271804
C30   C     C_3   0.911547 0.218688 0.686080 0.465760
C31   C     C_3   0.915375 0.169646 0.735661 -0.556722
C32   C     C_1   0.870479 0.338543 0.661352 -0.007073
C33   C     C_1   0.964258 0.159238 0.836823 -0.034726
C34   C     C_1   0.968115 0.121103 0.875241 -0.303739
H15   H     H_    0.778322 0.142592 0.737779 0.190214
H16   H     H_    0.031143 0.132879 0.729653 0.132991
H17   H     H_    0.643355 0.221620 0.809561 0.169697
H18   H     H_    0.602792 0.272412 0.727908 0.237285
H19   H     H_    0.047568 0.213068 0.663796 0.018448
C35   C     C_3   0.545265 0.692789 0.258933 -0.412766
C36   C     C_3   0.193790 0.714907 0.253633 -0.575405
C37   C     C_3   0.213473 0.770871 0.208497 0.914655
H20   H     H_    0.554083 0.713814 0.171064 0.186181
H21   H     H_    0.530260 0.642253 0.243246 0.162716
H22   H     H_    0.061238 0.722683 0.277666 0.184175
H23   H     H_    0.180562 0.666327 0.234116 0.166303
C38   C     C_1   0.480002 0.878160 0.124531 -0.313907
C39   C     C_3   0.369100 0.711706 0.293073 0.295031
C40   C     C_3   0.569254 0.740551 0.210250 -0.416567
C41   C     C_3   0.424523 0.798231 0.212433 0.081251
C42   C     C_3   0.449409 0.831310 0.269844 0.435455
C43   C     C_3   0.399491 0.780959 0.316225 -0.512224
C44   C     C_1   0.464588 0.842231 0.164366 -0.041253
C45   C     C_1   0.347741 0.662843 0.338575 -0.006108
C46   C     C_1   0.341685 0.623173 0.376079 -0.308476
H24   H     H_    0.515255 0.778945 0.347705 0.187998
H25   H     H_    0.267552 0.797377 0.337386 0.147889
H26   H     H_    0.676036 0.693364 0.285174 0.182698
H27   H     H_    0.715665 0.760476 0.212105 0.221585
H28   H     H_    0.348646 0.873573 0.272091 0.003971
C47   C     C_R   0.472597 0.157556 0.093611 -0.146553
C48   C     C_R   0.353505 0.336408 0.415461 -0.154252
C49   C     C_R   0.515179 0.273735 0.099650 -0.178119
C50   C     C_R   0.516482 0.217226 0.069347 -0.216675
C51   C     C_R   0.433993 0.153395 0.150969 0.146297
C52   C     C_R   0.452751 0.211435 0.184300 0.015570
C53   C     C_R   0.481522 0.271769 0.155968 0.165258
C54   C     C_R   0.441570 0.214051 0.243592 0.077190
C55   C     C_R   0.426589 0.275854 0.270725 0.081648
C56   C     C_R   0.441173 0.333286 0.239020 -0.204504
C57   C     C_R   0.474797 0.330982 0.183445 -0.220221
C58   C     C_R   0.458882 0.158215 0.277539 -0.238400
C59   C     C_R   0.423436 0.159919 0.333163 -0.234419
C60   C     C_R   0.388159 0.218792 0.358930 0.166768
C61   C     C_R   0.400772 0.278116 0.329011 0.114125
C62   C     C_R   0.346295 0.218470 0.414936 -0.248700
C63   C     C_R   0.323319 0.276823 0.443339 0.223201
C64   C     C_R   0.388983 0.336944 0.359008 -0.290775
H29   H     H_    0.491996 0.376721 0.161315 0.127456
H30   H     H_    0.406510 0.384192 0.340043 0.113373
H31   H     H_    0.428944 0.114611 0.356530 0.128471
H32   H     H_    0.541948 0.319669 0.078734 0.119955
H33   H     H_    0.546872 0.220332 0.025962 0.120672
H34   H     H_    0.431722 0.381425 0.256026 0.128891
H35   H     H_    0.506310 0.112199 0.263111 0.173997
H36   H     H_    0.330296 0.172399 0.436668 0.125919
O11   O     O_R   0.323590 0.942280 0.056590 -0.592002
O12   O     O_R   0.647030 0.077140 0.045940 -0.591817
O13   O     O_R   0.813570 0.057750 0.943430 -0.587861
C65   C     C_R   0.478123 0.099823 0.057723 0.955827
O14   O     O_R   0.653510 0.943950 0.062820 -0.597534
O15   O     O_R   0.820100 0.923600 0.960440 -0.587647
C66   C     C_R   0.486481 0.922345 0.077589 0.983242
O16   O     O_R   0.317060 0.076430 0.039590 -0.597796
O17   O     O_3   0.483830 0.993520 0.966410 -0.272271
V3    V     V_3+5 0.760140 0.001200 0.006230 1.147047
O18   O     O_R   0.149560 0.922820 0.954030 -0.589322
C67   C     C_R   0.981361 0.899457 0.942918 0.921466
O19   O     O_R   0.143080 0.056020 0.937150 -0.589821
C68   C     C_R   0.974418 0.075938 0.921319 0.979825
V4    V     V_3+5 0.259690 0.998730 0.993720 1.152920
O20   O     O_3   0.986120 0.006480 0.033580 -0.282149
C69   C     C_3   0.252272 0.335806 0.710592 -0.392883
C70   C     C_3   0.323329 0.296081 0.661915 -0.850378
H37   H     H_    0.353583 0.244623 0.673893 0.260697
H38   H     H_    0.218410 0.297710 0.627816 0.249244
H39   H     H_    0.456652 0.317981 0.646095 0.270848
H40   H     H_    0.213742 0.385388 0.694886 0.195914
H41   H     H_    0.369039 0.343802 0.740352 0.190608
O21   O     O_3   0.754198 0.206145 0.650790 -0.638084
C71   C     C_3   0.792824 0.152146 0.616849 0.273402
H42   H     H_    0.798480 0.106180 0.641477 0.099150
H43   H     H_    0.929554 0.157961 0.594371 0.086398
C72   C     C_3   0.634059 0.146676 0.574463 -0.939424
H44   H     H_    0.657328 0.102518 0.549313 0.212534
H45   H     H_    0.493404 0.143042 0.594967 0.256139
H46   H     H_    0.634469 0.190392 0.547207 0.255565
O22   O     O_3   0.190384 0.744213 0.155014 -0.667555
C73   C     C_3   0.001949 0.724092 0.143203 0.280932
H47   H     H_    0.907943 0.767100 0.135124 0.124131
H48   H     H_    0.941399 0.693484 0.176403 0.088856
C74   C     C_3   0.004071 0.683003 0.091795 -0.943225
H49   H     H_    0.092409 0.638341 0.098814 0.258043
H50   H     H_    0.856192 0.668463 0.080949 0.218559
H51   H     H_    0.064794 0.711416 0.057281 0.258483
O23   O     O_3   0.070774 0.820278 0.219761 -0.676186
C75   C     C_3   0.077615 0.876319 0.184801 0.214294
H52   H     H_    0.083585 0.862797 0.140906 0.140107
H53   H     H_    0.198217 0.908095 0.195970 0.100051
C76   C     C_3   0.906043 0.920424 0.192726 -0.857863
H54   H     H_    0.914275 0.945000 0.232860 0.244730
H55   H     H_    0.901196 0.958565 0.160063 0.219082
H56   H     H_    0.776280 0.891444 0.190513 0.300028
O24   O     O_3   0.640286 0.852334 0.277111 -0.602738
C77   C     C_3   0.653046 0.901309 0.317491 0.294248
H57   H     H_    0.536858 0.899163 0.348440 0.063648
H58   H     H_    0.646658 0.950109 0.297225 0.091363
C78   C     C_3   0.842406 0.893642 0.348087 -0.907568
H59   H     H_    0.963948 0.895538 0.319242 0.272864
H60   H     H_    0.857845 0.933477 0.378225 0.201552
H61   H     H_    0.846932 0.845967 0.370183 0.247346
C79   C     C_3   0.263773 0.273871 0.502770 -0.408127
C80   C     C_3   0.046416 0.272457 0.507316 -0.860861
H62   H     H_    0.981608 0.317080 0.488540 0.269787
H63   H     H_    0.988777 0.228818 0.486471 0.253445
H64   H     H_    0.005127 0.270084 0.551022 0.244432
H65   H     H_    0.323244 0.229193 0.522829 0.196305
H66   H     H_    0.320415 0.315892 0.525992 0.189534
C81   C     C_3   0.733675 0.901854 0.652214 -0.356096
C82   C     C_3   0.897210 0.934949 0.621948 -0.927958
H67   H     H_    0.014472 0.946381 0.651107 0.260516
H68   H     H_    0.954498 0.903210 0.589311 0.260423
H69   H     H_    0.844908 0.981275 0.602881 0.245485
H70   H     H_    0.609665 0.894464 0.624477 0.178959
H71   H     H_    0.681083 0.936345 0.683673 0.185255
C83   C     C_3   0.352409 0.089257 0.172028 -0.393023
C84   C     C_3   0.508694 0.037079 0.180751 -0.945639
H72   H     H_    0.557246 0.018711 0.141141 0.256760
H73   H     H_    0.638238 0.056410 0.201049 0.255883
H74   H     H_    0.452253 0.995676 0.205237 0.247616
H75   H     H_    0.264534 0.095776 0.209044 0.193648
H76   H     H_    0.246314 0.070438 0.142234 0.201494

loop_
_geom_bond_atom_site_label_1
_geom_bond_atom_site_label_2
_geom_bond_distance
_ccdc_geom_bond_type
C13   C19   1.439820 A    
C29   C30   1.571113 S    
C38   C66   1.454721 S    
C47   C51   1.431221 A    
C80   H62   1.110060 S    
C4    C6    1.479801 S    
C62   H36   1.084979 S    
C55   C56   1.406535 A    
C41   C44   1.502465 S    
C1    O6    1.308648 A    
C48   C63   1.409723 A    
C25   C69   1.550462 S    
C64   H30   1.076952 S    
C77   H57   1.115716 S    
C27   C33   1.488264 S    
O16   V4    1.998320 S    
O18   C67   1.302698 A    
C24   C25   1.567519 S    
C79   H66   1.110455 S    
C71   H43   1.113897 S    
C14   C15   1.387372 A    
C77   H58   1.111157 S    
O13   C68   1.308098 A    
O2    C1    1.304508 A    
C16   C17   1.399133 A    
C72   H45   1.110948 S    
O17   V4    1.712722 S    
C84   H73   1.108534 S    
O5    C3    1.305882 A    
C18   C19   1.427218 A    
C54   C58   1.409439 A    
V2    O10   2.160579 S    
C35   C39   1.543122 S    
C69   H41   1.104352 S    
C5    C8    1.394045 A    
C30   C31   1.565437 S    
C74   H49   1.110725 S    
C36   H23   1.112345 S    
O15   V3    1.997034 S    
C16   H8    1.075248 S    
C83   C84   1.534751 S    
C52   C53   1.426676 A    
C73   H48   1.109060 S    
O11   C66   1.307106 A    
O8    V2    1.970996 S    
C43   H25   1.113157 S    
C40   H27   1.107352 S    
C82   H69   1.110535 S    
C72   H46   1.110267 S    
C1    C46   1.457928 S    
C7    C8    1.390631 A    
C25   C29   1.567585 S    
C74   H51   1.109098 S    
O14   C66   1.305969 A    
C37   O22   1.430329 S    
C70   H38   1.106503 S    
O1    V2    1.995084 S    
C11   C15   1.392909 A    
C75   H53   1.104955 S    
O7    V1    2.166160 S    
C36   H22   1.113135 S    
C81   H71   1.112199 S    
C57   H29   1.084818 S    
C82   H68   1.109457 S    
C24   C27   1.564110 S    
C63   C79   1.514707 S    
O14   V3    1.959910 S    
O13   V3    1.953194 S    
C39   C45   1.497251 S    
O9    C4    1.303043 A    
C49   C53   1.398177 A    
C80   H63   1.110964 S    
C78   H59   1.109720 S    
C54   C55   1.438710 A    
C17   C81   1.521365 S    
C23   C27   1.551390 S    
C60   C62   1.401736 A    
C30   O21   1.420582 S    
C73   H47   1.110001 S    
C41   C42   1.573600 S    
C76   H56   1.090864 S    
C23   H17   1.114048 S    
C79   H65   1.109750 S    
C71   C72   1.519044 S    
C36   C37   1.589841 S    
C79   C80   1.527004 S    
C31   H16   1.113049 S    
C72   H44   1.110478 S    
C84   H74   1.109985 S    
C49   C50   1.380727 A    
C51   C52   1.454575 A    
O4    C2    1.299492 A    
C8    H5    1.082436 S    
C27   C31   1.550074 S    
C45   C46   1.219492 T    
O15   C67   1.305507 A    
C15   H1    1.084458 S    
C13   C14   1.412469 A    
C42   C43   1.567726 S    
C56   H34   1.075824 S    
C25   H14   1.116422 S    
C21   H3    1.083909 S    
C65   O16   1.305237 A    
C7    C11   1.403774 A    
C40   C41   1.551182 S    
C84   H72   1.097499 S    
C17   C18   1.417889 A    
C37   O23   1.445724 S    
C7    H4    1.084028 S    
C47   C65   1.480175 S    
C30   H19   1.106280 S    
C43   H24   1.113220 S    
C5    C67   1.478520 S    
O18   V4    1.998674 S    
C2    C48   1.467649 S    
C76   H55   1.110985 S    
C24   H12   1.112152 S    
C56   C57   1.381285 A    
C52   C54   1.453091 A    
C38   C44   1.220018 T    
C19   C22   1.431600 A    
C36   C39   1.555050 S    
C83   H76   1.110389 S    
C12   C13   1.435448 A    
C75   C76   1.511387 S    
C6    C22   1.405679 A    
O17   V3    2.166249 S    
O3    C4    1.305764 A    
C26   C32   1.214228 T    
H10   C28   1.112535 S    
C82   H67   1.110996 S    
C42   H28   1.113888 S    
O6    V2    1.959087 S    
O9    V2    1.998632 S    
O19   C68   1.300458 A    
C80   H64   1.109225 S    
C10   C12   1.443061 A    
C47   C50   1.390597 A    
C70   H39   1.109529 S    
V4    O20   2.160598 S    
O2    V1    1.959982 S    
C53   C57   1.393209 A    
C77   C78   1.522936 S    
C73   C74   1.519614 S    
C69   C70   1.531972 S    
C28   C29   1.550622 S    
C76   H54   1.108471 S    
C58   H35   1.061275 S    
O1    C2    1.302128 A    
C78   H61   1.110881 S    
C12   C16   1.407175 A    
C74   H50   1.110654 S    
O22   C73   1.414063 S    
O5    V1    1.953029 S    
O12   C65   1.302018 A    
O8    C3    1.302210 A    
C31   H15   1.113489 S    
C81   H70   1.109679 S    
O11   V4    1.959432 S    
C37   C41   1.587388 S    
C59   H31   1.084670 S    
C71   H42   1.112223 S    
C3    C26   1.448342 S    
C55   C61   1.438223 A    
C59   C60   1.387433 A    
O24   C77   1.417515 S    
C78   H60   1.110405 S    
C70   H37   1.109037 S    
O7    V2    1.713770 S    
O4    V1    2.002467 S    
O3    V1    1.996917 S    
V1    O10   1.717507 S    
C20   C21   1.390107 A    
C18   C20   1.414261 A    
C35   H21   1.113244 S    
C9    H6    1.076613 S    
C28   H18   1.096982 S    
C24   H13   1.112736 S    
C35   C40   1.543218 S    
C49   H32   1.084398 S    
C34   C68   1.449735 S    
C60   C61   1.415195 A    
C20   H9    1.079305 S    
H20   C40   1.113013 S    
C81   C82   1.527494 S    
C22   H2    1.076145 S    
C83   H75   1.106406 S    
V3    O20   1.717323 S    
C62   C63   1.397221 A    
C6    C21   1.390569 A    
C5    C9    1.409702 A    
C42   O24   1.417978 S    
C35   H26   1.113847 S    
C69   H40   1.112076 S    
O12   V3    2.002602 S    
C23   C28   1.549624 S    
C33   C34   1.214786 T    
O23   C75   1.424908 S    
C29   C32   1.492613 S    
C58   C59   1.384307 A    
C39   C43   1.548624 S    
C51   C83   1.523261 S    
O19   V4    1.971066 S    
C10   C11   1.419285 A    
O21   C71   1.414978 S    
C61   C64   1.419228 A    
C50   H33   1.084172 S    
C75   H52   1.111639 S    
C9    C10   1.430958 A    
C48   C64   1.403461 A    
C23   H11   1.113019 S    
C14   H7    1.075414 S    
