data_mof_unit_36423.cif
_audit_creation_date              2012-12-10T17:49:33-0500
_audit_creation_method            fapswitch 2.2
_symmetry_space_group_name_H-M    P1
_symmetry_Int_Tables_number       1
_space_group_crystal_system       triclinic
_cell_length_a                    14.740854
_cell_length_b                    14.706594
_cell_length_c                    15.858075
_cell_angle_alpha                 76.637152
_cell_angle_beta                  101.833274
_cell_angle_gamma                 115.130803
_cell_volume                      3005.75874876

loop_
_atom_site_label
_atom_site_type_symbol
_atom_type_description
_atom_site_fract_x
_atom_site_fract_y
_atom_site_fract_z
_atom_type_partial_charge
C1    C     C_R   0.880275 0.312274 0.513813 0.831555
C2    C     C_3   0.011953 0.404853 0.070704 -0.364936
C3    C     C_3   0.999329 0.500211 0.082836 0.142384
C4    C     C_3   0.086212 0.596689 0.044711 -0.396130
C5    C     C_3   0.083685 0.598901 0.945943 0.218800
C6    C     C_1   0.001227 0.499615 0.175514 -0.028785
C7    C     C_1   0.996760 0.500583 0.823914 0.036953
C8    C     C_1   0.997574 0.500398 0.748556 -0.118587
C9    C     C_R   0.811651 0.204392 0.528579 -0.111892
C10   C     C_R   0.187044 0.796707 0.477757 -0.121707
C11   C     C_R   0.773733 0.035390 0.612208 -0.172454
C12   C     C_R   0.999212 0.500031 0.659357 0.801581
C13   C     C_R   0.842769 0.134404 0.589371 -0.233681
C14   C     C_R   0.711086 0.173410 0.488699 0.289040
C15   C     C_R   0.637328 0.079821 0.523375 0.032650
C16   C     C_R   0.671153 0.007954 0.580667 0.106874
C17   C     C_R   0.531589 0.055209 0.503773 0.025063
C18   C     C_R   0.462576 0.953474 0.524446 0.083874
C19   C     C_R   0.499978 0.881935 0.577189 -0.184695
C20   C     C_R   0.602102 0.909787 0.606628 -0.185370
C21   C     C_R   0.493154 0.130892 0.472116 -0.213940
C22   C     C_R   0.390205 0.107939 0.450646 0.393389
C23   C     C_R   0.119721 0.687945 0.485375 0.837952
C24   C     C_R   0.319581 0.005101 0.461901 -0.043506
C25   C     C_R   0.357763 0.927455 0.496163 -0.007330
C26   C     C_R   0.212752 0.975008 0.441620 0.425869
C27   C     C_R   0.148687 0.871962 0.450423 -0.196383
C28   C     C_R   0.290668 0.824892 0.499366 -0.214950
C29   C     C_R   0.708589 0.653018 0.339188 -0.311231
C30   C     C_R   0.792656 0.629160 0.368825 0.552705
C31   C     C_R   0.715092 0.519214 0.492394 0.244327
C32   C     C_R   0.621353 0.528833 0.456448 -0.037709
C33   C     C_R   0.622207 0.604080 0.382352 0.051108
C34   C     C_R   0.000668 0.499848 0.340612 0.859301
C35   C     C_R   0.528972 0.470963 0.494327 0.105969
C36   C     C_R   0.448713 0.505205 0.472586 0.039926
C37   C     C_R   0.455272 0.585214 0.402147 -0.195529
C38   C     C_R   0.538295 0.631498 0.354763 0.201950
C39   C     C_R   0.512168 0.376440 0.549181 -0.165716
C40   C     C_R   0.428183 0.326724 0.594182 -0.143423
C41   C     C_R   0.355586 0.367239 0.582869 0.176222
C42   C     C_R   0.363290 0.455759 0.520604 0.001620
C43   C     C_R   0.273459 0.318054 0.631389 -0.272163
C44   C     C_R   0.198370 0.355421 0.617054 0.109830
C45   C     C_3   0.014839 0.407278 0.973212 -0.420653
C46   C     C_R   0.284315 0.490030 0.509382 0.026314
C47   C     C_3   0.892544 0.496867 0.932973 0.443443
C48   C     C_3   0.897533 0.499896 0.031916 -0.367461
C49   C     C_1   0.001785 0.499476 0.251239 -0.105714
C50   C     C_3   0.996311 0.500695 0.916255 0.153365
Cu1   Cu    Cu3+1 0.081750 0.475690 0.522550 0.970469
Cu2   Cu    Cu3+1 0.918250 0.524310 0.477450 1.024993
H1    H     H_    0.948231 0.334715 0.095225 0.190783
H2    H     H_    0.089351 0.410683 0.964860 0.239170
H3    H     H_    0.082912 0.401556 0.109417 0.209425
H4    H     H_    0.078983 0.666066 0.053780 0.174695
H5    H     H_    0.627157 0.853958 0.649967 0.158771
H6    H     H_    0.318412 0.765191 0.516020 0.160160
H7    H     H_    0.067936 0.850656 0.434953 0.218247
H8    H     H_    0.799778 0.981516 0.657601 0.162740
H9    H     H_    0.920256 0.156431 0.619707 0.171922
H10   H     H_    0.958330 0.334946 0.952217 0.173586
H11   H     H_    0.451198 0.805411 0.602115 0.150707
H12   H     H_    0.542897 0.210392 0.467792 0.209896
H13   H     H_    0.283260 0.555695 0.462794 0.120317
H14   H     H_    0.133040 0.315491 0.652139 0.123155
H15   H     H_    0.420066 0.256023 0.638152 0.144543
H16   H     H_    0.712299 0.710627 0.281951 0.197621
H17   H     H_    0.394292 0.610281 0.379952 0.133329
H18   H     H_    0.564290 0.339979 0.557849 0.150112
H19   H     H_    0.266358 0.249980 0.678839 0.148340
H20   H     H_    0.834417 0.433672 0.062117 0.182006
H21   H     H_    0.888662 0.568789 0.039949 0.216501
H22   H     H_    0.071172 0.667360 0.908737 0.177576
H23   H     H_    0.159697 0.598127 0.081292 0.222840
N1    N     N_R   0.795410 0.560790 0.443550 -0.201993
N2    N     N_R   0.204590 0.439170 0.556520 -0.183667
O1    O     O_R   0.977910 0.338120 0.529720 -0.590651
O2    O     O_R   0.839850 0.379180 0.491640 -0.544933
O3    O     O_R   0.069060 0.479460 0.639610 -0.571731
O4    O     O_R   0.931000 0.520530 0.601530 -0.592697
O5    O     O_R   0.160150 0.620820 0.508360 -0.600252
O6    O     O_R   0.022090 0.661880 0.470280 -0.541182
O7    O     O_R   0.069000 0.479470 0.398470 -0.584401
O8    O     O_R   0.930940 0.520540 0.360390 -0.510164
Cl1   Cl    Cl    0.360084 0.214559 0.405224 -0.511996
Cl2   Cl    Cl    0.686145 0.239780 0.383773 -0.586842
Cl3   Cl    Cl    0.149545 0.058179 0.408423 -0.503676
C51   C     C_3   0.536695 0.712572 0.276662 -0.812326
H24   H     H_    0.465136 0.724235 0.264348 0.233749
H25   H     H_    0.599507 0.786335 0.287708 0.238951
H26   H     H_    0.544466 0.690054 0.217200 0.248526
Cl4   Cl    Cl    0.897285 0.699704 0.310580 -0.589327
C52   C     C_3   0.735169 0.489246 0.589847 -0.756251
H27   H     H_    0.749775 0.418769 0.605584 0.231865
H28   H     H_    0.674305 0.478798 0.626479 0.201769
H29   H     H_    0.798144 0.554422 0.616211 0.261947
Cl5   Cl    Cl    0.868949 0.604510 0.868093 -0.645671
C53   C     C_3   0.801269 0.401285 0.906758 -0.787312
H30   H     H_    0.803260 0.330502 0.949104 0.204813
H31   H     H_    0.729817 0.405686 0.913759 0.260455
H32   H     H_    0.798386 0.395227 0.837672 0.231668
Cl6   Cl    Cl    0.204982 0.616016 0.923055 -0.608694

loop_
_geom_bond_atom_site_label_1
_geom_bond_atom_site_label_2
_ccdc_geom_bond_type
C10   C27   A    
C5    Cl6   S    
C23   O5    A    
C37   H17   S    
C41   C42   A    
C45   H10   S    
C36   C42   A    
C19   C20   A    
C43   C44   A    
C3    C6    S    
C7    C8    T    
C25   C28   A    
C38   C51   S    
C26   C27   A    
C29   C30   A    
C47   Cl5   S    
C23   O6    A    
Cu2   O8    S    
C24   C26   A    
C14   Cl2   S    
C30   Cl4   S    
C2    H3    S    
C15   C16   A    
C29   C33   A    
C3    C48   S    
C47   C53   S    
C18   C19   A    
C42   C46   A    
C5    H22   S    
C9    C13   A    
Cu1   O3    S    
C21   H12   S    
C44   H14   S    
C31   C32   A    
C19   H11   S    
C4    H23   S    
C40   H15   S    
C51   H25   S    
Cu2   O2    S    
C16   C20   A    
C21   C22   A    
C4    H4    S    
C1    O1    A    
C41   C43   A    
C52   H27   S    
C18   C25   A    
C34   O7    A    
C48   H20   S    
C47   C50   S    
C2    C45   S    
Cu1   Cu2   S    
C32   C35   A    
C1    C9    S    
C24   C25   A    
C46   H13   S    
C39   C40   A    
C52   H29   S    
C17   C21   A    
C34   O8    A    
Cu2   O6    S    
C35   C39   A    
C9    C14   A    
Cu1   N2    S    
C37   C38   A    
C29   H16   S    
C30   N1    A    
C11   C16   A    
C47   C48   S    
C8    C12   S    
C17   C18   A    
C51   H26   S    
C52   H28   S    
Cu1   O5    S    
C26   Cl3   S    
C40   C41   A    
C53   H31   S    
C45   H2    S    
C1    O2    A    
C22   C24   A    
C5    C50   S    
C11   H8    S    
C10   C28   A    
C15   C17   A    
C44   N2    A    
C34   C49   S    
C43   H19   S    
C48   H21   S    
C7    C50   S    
C4    C5    S    
Cu2   N1    S    
C2    H1    S    
C46   N2    A    
C28   H6    S    
C10   C23   S    
C31   C52   S    
C33   C38   A    
C53   H30   S    
C32   C33   A    
C2    C3    S    
C51   H24   S    
Cu1   O1    S    
C27   H7    S    
C11   C13   A    
C31   N1    A    
C45   C50   S    
C12   O3    A    
C39   H18   S    
C12   O4    A    
C22   Cl1   S    
C6    C49   T    
Cu2   O4    S    
C53   H32   S    
C13   H9    S    
C36   C37   A    
C14   C15   A    
C35   C36   A    
C20   H5    S    
Cu1   O7    S    
C3    C4    S    
