data_mof_unit_6004.cif
_audit_creation_date              2012-10-26T19:35:17-0400
_audit_creation_method            fapswitch 2.2
_symmetry_space_group_name_H-M    P1
_symmetry_Int_Tables_number       1
_space_group_crystal_system       triclinic
_cell_length_a                    10.807919
_cell_length_b                    10.797897
_cell_length_c                    9.655587
_cell_angle_alpha                 91.858671
_cell_angle_beta                  91.216316
_cell_angle_gamma                 92.612251
_cell_volume                      1124.77985239

loop_
_atom_site_label
_atom_site_type_symbol
_atom_type_description
_atom_site_fract_x
_atom_site_fract_y
_atom_site_fract_z
_atom_type_partial_charge
C1    C     C_R   0.498463 0.262773 0.498200 0.553603
C2    C     C_R   0.614088 0.942195 0.496392 0.405135
C3    C     C_R   0.502495 0.871023 0.506176 0.022267
C4    C     C_R   0.262978 0.504299 0.499799 0.554679
C5    C     C_R   0.390884 0.930349 0.516712 -0.027566
C6    C     C_3   0.279977 0.914801 0.421108 0.710372
C7    C     C_3   0.278821 0.053846 0.416838 -0.138144
C8    C     C_R   0.586916 0.568938 0.077698 0.143621
C9    C     C_R   0.421009 0.422499 0.068992 0.202243
C10   C     C_R   0.421015 0.421660 0.920714 0.211587
C11   C     C_R   0.586600 0.569313 0.931523 0.115759
C12   C     C_R   0.072701 0.601320 0.590191 0.008602
C13   C     C_3   0.608778 0.706531 0.932598 -0.223623
C14   C     C_3   0.610733 0.705795 0.089846 -0.048495
C15   C     C_R   0.501470 0.737310 0.501765 0.647099
C16   C     C_R   0.737285 0.506320 0.501503 0.610841
C17   C     C_R   0.143154 0.687528 0.677027 -0.070930
C18   C     C_R   0.086693 0.780510 0.751942 -0.098926
C19   C     C_R   0.959587 0.791557 0.740900 0.170097
C20   C     C_R   0.886736 0.704205 0.661641 0.431228
C21   C     C_R   0.941710 0.606002 0.587247 0.026708
C22   C     C_R   0.129416 0.513631 0.502090 0.048658
C23   C     C_R   0.057594 0.429777 0.418361 -0.114822
C24   C     C_R   0.930301 0.430298 0.419893 -0.140090
C25   C     C_R   0.871586 0.515819 0.504156 0.027737
C26   C     C_R   0.389758 0.058916 0.511735 -0.084826
C27   C     C_R   0.499662 0.129428 0.496134 -0.038173
C28   C     C_R   0.612586 0.071281 0.493968 -0.089750
Cu1   Cu    Cu3+1 0.499990 0.499980 0.640670 1.042893
Cu2   Cu    Cu3+1 0.500010 0.500020 0.359330 1.073964
F1    F     F_    0.175709 0.864336 0.481111 -0.606107
F2    F     F_    0.763951 0.721402 0.651890 -0.595883
F3    F     F_    0.723400 0.887525 0.481223 -0.547889
F4    F     F_    0.304829 0.858367 0.294416 -0.599822
H1    H     H_    0.099764 0.359796 0.355422 0.158450
H2    H     H_    0.698873 0.125507 0.486013 0.147364
H3    H     H_    0.300376 0.086307 0.312623 0.168141
H4    H     H_    0.197050 0.094252 0.466013 0.160588
H5    H     H_    0.699756 0.733196 0.889858 0.217439
H6    H     H_    0.529170 0.755141 0.888623 0.153113
H7    H     H_    0.532915 0.755499 0.135889 0.188195
H8    H     H_    0.242981 0.690763 0.681946 0.165185
H9    H     H_    0.143157 0.848403 0.812909 0.165399
H10   H     H_    0.876920 0.361571 0.356369 0.143267
I1    I     I_    0.290492 0.301550 0.163460 -0.292292
I2    I     I_    0.290692 0.294653 0.810182 -0.244324
I3    I     I_    0.790259 0.750882 0.181079 -0.147615
I4    I     I_    0.881362 0.948662 0.834697 -0.196320
N1    N     N_R   0.500790 0.500930 0.147930 -0.256090
N2    N     N_R   0.500790 0.500890 0.852020 -0.256422
O1    O     O_R   0.500000 0.319640 0.618810 -0.474441
O2    O     O_R   0.500010 0.319680 0.381230 -0.493936
O3    O     O_R   0.319640 0.499980 0.618820 -0.515580
O4    O     O_R   0.319650 0.500020 0.381230 -0.465833
O5    O     O_R   0.499990 0.680320 0.618770 -0.492875
O6    O     O_R   0.500000 0.680360 0.381190 -0.462592
O7    O     O_R   0.680350 0.499980 0.618770 -0.459458
O8    O     O_R   0.680360 0.500020 0.381180 -0.491408

loop_
_geom_bond_atom_site_label_1
_geom_bond_atom_site_label_2
_ccdc_geom_bond_type
C12   C17   A    
C10   I2    S    
C2    C28   A    
C23   C24   A    
C9    I1    S    
C6    C7    S    
C4    O3    A    
C1    O1    A    
C9    C10   A    
C19   C20   A    
C16   O7    A    
C15   O6    A    
C3    C5    A    
C2    C3    A    
C7    H3    S    
C3    C15   S    
C11   N2    A    
C16   O8    A    
C13   C14   S    
C24   C25   A    
Cu2   O4    S    
C26   C27   A    
Cu1   Cu2   S    
C7    C26   S    
Cu1   O3    S    
C14   H7    S    
C21   C25   A    
Cu2   O8    S    
C2    F3    S    
C8    N1    A    
Cu2   N1    S    
Cu1   O7    S    
C6    F1    S    
C23   H1    S    
Cu1   N2    S    
C8    C11   A    
Cu1   O1    S    
C5    C6    S    
C24   H10   S    
C1    O2    A    
C13   H5    S    
C5    C26   A    
C10   N2    A    
C12   C22   A    
C11   C13   S    
C9    N1    A    
C20   C21   A    
C28   H2    S    
C17   C18   A    
C18   C19   A    
C20   F2    S    
C16   C25   S    
C1    C27   S    
C4    C22   S    
C17   H8    S    
C13   H6    S    
C8    C14   S    
Cu1   O5    S    
C4    O4    A    
C18   H9    S    
C14   I3    S    
Cu2   O6    S    
C12   C21   A    
C7    H4    S    
C22   C23   A    
C6    F4    S    
C19   I4    S    
Cu2   O2    S    
C27   C28   A    
C15   O5    A    
