data_mof_unit_56708.cif
_audit_creation_date              2012-12-10T19:35:00-0500
_audit_creation_method            fapswitch 2.2
_symmetry_space_group_name_H-M    P1
_symmetry_Int_Tables_number       1
_space_group_crystal_system       triclinic
_cell_length_a                    10.747523
_cell_length_b                    15.836839
_cell_length_c                    17.112954
_cell_angle_alpha                 95.348565
_cell_angle_beta                  92.130507
_cell_angle_gamma                 90.197967
_cell_volume                      2897.98425398

loop_
_atom_site_label
_atom_site_type_symbol
_atom_type_description
_atom_site_fract_x
_atom_site_fract_y
_atom_site_fract_z
_atom_type_partial_charge
C1    C     C_R   0.498899 0.490133 0.348718 0.789844
C2    C     C_R   0.501101 0.509866 0.651282 0.789841
C3    C     C_R   0.498397 0.485170 0.262829 -0.024095
C4    C     C_R   0.501605 0.514830 0.737171 -0.024097
C5    C     C_R   0.520326 0.558054 0.224681 -0.246386
C6    C     C_R   0.479692 0.441943 0.775318 -0.246382
C7    C     C_R   0.518934 0.553325 0.143129 -0.155039
C8    C     C_R   0.481086 0.446671 0.856870 -0.155043
C9    C     C_R   0.495440 0.475062 0.098323 0.386004
C10   C     C_R   0.504563 0.524936 0.901677 0.386005
C11   C     C_R   0.474556 0.402520 0.136624 -0.198490
C12   C     C_R   0.525432 0.597480 0.863376 -0.198490
C13   C     C_R   0.475980 0.407261 0.218231 -0.218007
C14   C     C_R   0.524006 0.592739 0.781769 -0.218009
C15   C     C_R   0.444939 0.756277 0.457470 0.327169
C16   C     C_R   0.555064 0.243723 0.542528 0.327180
C17   C     C_R   0.451934 0.844948 0.460801 -0.274829
C18   C     C_R   0.548064 0.155052 0.539199 -0.274833
C19   C     C_R   0.527533 0.891225 0.517754 0.345721
C20   C     C_R   0.472459 0.108775 0.482250 0.345721
C21   C     C_R   0.598224 0.845522 0.570025 -0.325246
C22   C     C_R   0.401765 0.154479 0.429980 -0.325247
C23   C     C_R   0.262618 0.502287 0.509475 0.822636
C24   C     C_R   0.737382 0.497713 0.490525 0.822636
C25   C     C_R   0.591107 0.756158 0.564896 0.017108
C26   C     C_R   0.408886 0.243842 0.435107 0.017107
C27   C     C_R   0.111899 0.362358 0.570737 0.220900
C28   C     C_R   0.888101 0.637641 0.429260 0.220904
C29   C     C_R   0.056862 0.281694 0.558306 -0.146288
C30   C     C_R   0.943140 0.718304 0.441688 -0.146289
C31   C     C_R   0.949496 0.268830 0.510963 -0.214267
C32   C     C_R   0.050507 0.731169 0.489030 -0.214255
C33   C     C_R   0.889825 0.337638 0.481535 -0.141684
C34   C     C_R   0.110176 0.662362 0.518461 -0.141689
C35   C     C_R   0.939881 0.420490 0.496459 0.033745
C36   C     C_R   0.060119 0.579510 0.503538 0.033742
C37   C     C_R   0.061229 0.430275 0.530447 0.074933
C38   C     C_R   0.938771 0.569726 0.469551 0.074935
C39   C     C_R   0.873135 0.493380 0.477655 -0.223077
C40   C     C_R   0.126864 0.506620 0.522344 -0.223077
Cu1   Cu    Cu3+1 0.493970 0.415220 0.496180 0.923383
Cu2   Cu    Cu3+1 0.506030 0.584780 0.503820 0.923382
H1    H     H_    0.090708 0.794106 0.500207 0.149267
H2    H     H_    0.909296 0.205893 0.499784 0.149265
H3    H     H_    0.603026 0.122507 0.581355 0.162644
H4    H     H_    0.396977 0.877492 0.418643 0.162641
H5    H     H_    0.646562 0.722132 0.605513 0.141760
H6    H     H_    0.353428 0.277869 0.394493 0.141761
H7    H     H_    0.096472 0.228841 0.586335 0.141616
H8    H     H_    0.903531 0.771157 0.413657 0.141615
H9    H     H_    0.806862 0.324579 0.444703 0.172344
H10   H     H_    0.193138 0.675422 0.555293 0.172343
H11   H     H_    0.460759 0.381331 0.742275 0.160514
H12   H     H_    0.539274 0.618664 0.257725 0.160507
H13   H     H_    0.456664 0.342075 0.102930 0.138380
H14   H     H_    0.543311 0.657926 0.897070 0.138380
H15   H     H_    0.458783 0.350007 0.246274 0.156788
H16   H     H_    0.541190 0.649996 0.753726 0.156789
N1    N     N_2   0.491942 0.466204 0.015116 -0.269030
N2    N     N_2   0.508061 0.533794 0.984884 -0.269030
N3    N     N_R   0.515100 0.712130 0.509560 -0.170858
N4    N     N_R   0.484900 0.287870 0.490440 -0.170858
N5    N     N_2   0.534574 0.982314 0.523946 -0.243620
N6    N     N_2   0.465416 0.017686 0.476058 -0.243620
O1    O     O_R   0.494360 0.420530 0.382500 -0.590126
O2    O     O_R   0.505640 0.579470 0.617500 -0.590127
O3    O     O_R   0.504550 0.563720 0.388950 -0.593301
O4    O     O_R   0.495450 0.436280 0.611050 -0.593306
O5    O     O_R   0.314560 0.428400 0.496770 -0.564126
O6    O     O_R   0.685440 0.571600 0.503230 -0.564124
O7    O     O_R   0.324750 0.571590 0.503220 -0.598515
O8    O     O_R   0.675250 0.428410 0.496780 -0.598512
H17   H     H_    0.658658 0.878925 0.614726 0.149811
H18   H     H_    0.341326 0.121076 0.385282 0.149811
C41   C     C_3   0.213001 0.374760 0.634353 -0.833466
H19   H     H_    0.296001 0.337076 0.616858 0.256095
H20   H     H_    0.239281 0.442374 0.648270 0.215854
H21   H     H_    0.179226 0.352190 0.689380 0.212771
C42   C     C_3   0.786997 0.625238 0.365645 -0.833477
H22   H     H_    0.760717 0.557625 0.351730 0.215855
H23   H     H_    0.703997 0.662923 0.383140 0.256094
H24   H     H_    0.820770 0.647808 0.310617 0.212771
H25   H     H_    0.463759 0.389155 0.884413 0.150733
H26   H     H_    0.536274 0.610838 0.115586 0.150733
C43   C     C_3   0.640521 0.284759 0.607053 -0.800025
H27   H     H_    0.668637 0.349786 0.600241 0.281766
H28   H     H_    0.595752 0.283027 0.664268 0.202770
H29   H     H_    0.728907 0.248773 0.609672 0.195920
C44   C     C_3   0.359497 0.715238 0.392938 -0.800002
H30   H     H_    0.331353 0.650219 0.399763 0.281758
H31   H     H_    0.271123 0.751234 0.390295 0.195902
H32   H     H_    0.404294 0.716948 0.335730 0.202785

loop_
_geom_bond_atom_site_label_1
_geom_bond_atom_site_label_2
_ccdc_geom_bond_type
C27   C29   A    
C8    H25   S    
Cu1   Cu2   S    
C23   O5    A    
C2    C4    S    
C24   O6    A    
C29   H7    S    
C43   H27   S    
Cu1   O5    S    
C19   C21   A    
C37   C40   A    
C2    O4    A    
C38   C39   A    
C33   C35   A    
C13   H15   S    
C23   C40   S    
C21   H17   S    
Cu2   O6    S    
C24   C39   S    
C7    C9    A    
C28   C42   S    
C17   C19   A    
C19   N5    S    
C1    O1    A    
C31   C33   A    
C44   H31   S    
C25   H5    S    
C18   C20   A    
C3    C13   A    
C26   H6    S    
C7    H26   S    
C30   H8    S    
N1    N2    D    
C16   N4    A    
Cu1   N4    S    
C27   C41   S    
Cu1   O4    S    
C43   H28   S    
C14   H16   S    
C31   H2    S    
C23   O7    A    
C5    H12   S    
C36   C40   A    
C17   H4    S    
C4    C6    A    
C5    C7    A    
C6    C8    A    
C2    O2    A    
N5    N6    D    
C1    C3    S    
C32   C34   A    
C20   N6    S    
C10   N2    S    
C41   H19   S    
C15   C44   S    
C41   H20   S    
C28   C38   A    
C15   N3    A    
C25   N3    A    
C44   H32   S    
C9    C11   A    
Cu2   N3    S    
C12   H14   S    
C10   C12   A    
Cu1   O8    S    
C16   C18   A    
C12   C14   A    
C16   C43   S    
C22   H18   S    
C6    H11   S    
C18   H3    S    
C11   H13   S    
C24   O8    A    
C42   H23   S    
C43   H29   S    
C15   C17   A    
C21   C25   A    
C35   C37   A    
C20   C22   A    
C3    C5    A    
C42   H24   S    
Cu1   O1    S    
C33   H9    S    
C34   H10   S    
C36   C38   A    
C26   N4    A    
C29   C31   A    
C30   C32   A    
C11   C13   A    
Cu2   O3    S    
C27   C37   A    
C35   C39   A    
C28   C30   A    
Cu2   O7    S    
C1    O3    A    
C32   H1    S    
C34   C36   A    
C4    C14   A    
C41   H21   S    
C42   H22   S    
C8    C10   A    
C22   C26   A    
Cu2   O2    S    
C9    N1    S    
C44   H30   S    
