data_mof_unit_39609.cif
_audit_creation_date              2012-12-11T14:44:26-0500
_audit_creation_method            fapswitch 2.2
_symmetry_space_group_name_H-M    P1
_symmetry_Int_Tables_number       1
_space_group_crystal_system       triclinic
_cell_length_a                    25.086219
_cell_length_b                    16.767174
_cell_length_c                    15.59308
_cell_angle_alpha                 89.999983
_cell_angle_beta                  49.81648
_cell_angle_gamma                 90.0
_cell_volume                      5010.8328405

loop_
_atom_site_label
_atom_site_type_symbol
_atom_type_description
_atom_site_fract_x
_atom_site_fract_y
_atom_site_fract_z
_atom_type_partial_charge
C1    C     C_R   0.332894 0.109533 0.802979 -0.120922
C2    C     C_3   0.750677 0.792544 0.608920 -0.119149
C3    C     C_3   0.705024 0.295511 0.600673 -0.119984
C4    C     C_3   0.249323 0.792544 0.391080 -0.119149
C5    C     C_3   0.794976 0.795511 0.399327 -0.119984
C6    C     C_3   0.250677 0.292545 0.608920 -0.119149
C7    C     C_3   0.205024 0.795511 0.600673 -0.119984
C8    C     C_3   0.749323 0.292544 0.391080 -0.119150
C9    C     C_2   0.700323 0.140911 0.008891 -0.185539
C10   C     C_2   0.364651 0.730997 0.838838 -0.207770
C11   C     C_2   0.299677 0.140911 0.991109 -0.185539
C12   C     C_R   0.645682 0.851228 0.248415 -0.115807
C13   C     C_2   0.635349 0.730996 0.161162 -0.207769
C14   C     C_2   0.200323 0.640911 0.008891 -0.185539
C15   C     C_2   0.864651 0.230996 0.838839 -0.207769
C16   C     C_2   0.799677 0.640911 0.991109 -0.185538
C17   C     C_2   0.135349 0.230996 0.161162 -0.207769
C18   C     C_2   0.769324 0.138550 0.950561 -0.112736
C19   C     C_2   0.314373 0.689241 0.851859 -0.107856
C20   C     C_2   0.230676 0.138550 0.049439 -0.112736
C21   C     C_2   0.685627 0.689241 0.148141 -0.107856
C22   C     C_2   0.269324 0.638550 0.950561 -0.112735
C23   C     C_R   0.667106 0.109533 0.197020 -0.120922
C24   C     C_2   0.814373 0.189241 0.851859 -0.107856
C25   C     C_2   0.730676 0.638550 0.049439 -0.112737
C26   C     C_2   0.185627 0.189241 0.148141 -0.107856
C27   C     C_R   0.593508 0.144837 0.592561 0.212920
C28   C     C_R   0.384673 0.896698 0.406987 0.172029
C29   C     C_R   0.406492 0.144837 0.407439 0.212920
C30   C     C_R   0.615327 0.896698 0.593013 0.172028
C31   C     C_R   0.093508 0.644837 0.592561 0.212920
C32   C     C_R   0.884673 0.396698 0.406987 0.172029
C33   C     C_R   0.906492 0.644837 0.407439 0.212920
C34   C     C_R   0.354318 0.851228 0.751585 -0.115808
C35   C     C_R   0.115327 0.396698 0.593013 0.172029
C36   C     C_R   0.666076 0.145037 0.404937 -0.168802
C37   C     C_R   0.310632 0.894460 0.593316 -0.194536
C38   C     C_R   0.333924 0.145037 0.595063 -0.168803
C39   C     C_R   0.689368 0.894460 0.406683 -0.194537
C40   C     C_R   0.166076 0.645037 0.404937 -0.168802
C41   C     C_R   0.810632 0.394460 0.593316 -0.194536
C42   C     C_R   0.833924 0.645037 0.595063 -0.168803
C43   C     C_R   0.189368 0.394460 0.406683 -0.194537
C44   C     C_R   0.582023 0.100787 0.190619 -0.075712
C45   C     C_R   0.832894 0.609533 0.802979 -0.120922
C46   C     C_R   0.442903 0.853724 0.752652 -0.113226
C47   C     C_R   0.417977 0.100787 0.809380 -0.075712
C48   C     C_R   0.557097 0.853724 0.247348 -0.113226
C49   C     C_R   0.082023 0.600787 0.190619 -0.075711
C50   C     C_R   0.942903 0.353724 0.752652 -0.113227
C51   C     C_R   0.917976 0.600787 0.809380 -0.075711
C52   C     C_R   0.057097 0.353724 0.247348 -0.113226
C53   C     C_R   0.348887 0.121850 0.871071 0.112211
C54   C     C_R   0.612497 0.807864 0.219417 0.124977
C55   C     C_R   0.651112 0.121850 0.128929 0.112211
C56   C     C_R   0.145682 0.351228 0.248415 -0.115807
C57   C     C_R   0.387503 0.807864 0.780583 0.124978
C58   C     C_R   0.848887 0.621850 0.871071 0.112210
C59   C     C_R   0.112497 0.307864 0.219417 0.124977
C60   C     C_R   0.151113 0.621850 0.128929 0.112211
C61   C     C_R   0.887503 0.307864 0.780583 0.124978
C62   C     C_R   0.644424 0.187950 0.497485 -0.036751
C63   C     C_R   0.317887 0.879353 0.500033 -0.004106
C64   C     C_R   0.355576 0.187950 0.502515 -0.036751
C65   C     C_R   0.682113 0.879353 0.499967 -0.004106
C66   C     C_R   0.144424 0.687950 0.497485 -0.036751
C67   C     C_R   0.167106 0.609532 0.197020 -0.120922
C68   C     C_R   0.817887 0.379353 0.500033 -0.004106
C69   C     C_R   0.855576 0.687950 0.502515 -0.036751
C70   C     C_R   0.182113 0.379353 0.499967 -0.004106
C71   C     C_3   0.338173 0.323159 0.432697 -0.148287
C72   C     C_3   0.707851 0.764976 0.575186 -0.156645
C73   C     C_3   0.661827 0.323159 0.567303 -0.148287
C74   C     C_3   0.292149 0.764976 0.424814 -0.156644
C75   C     C_3   0.838173 0.823159 0.432697 -0.148286
C76   C     C_3   0.207851 0.264977 0.575186 -0.156645
C77   C     C_3   0.161827 0.823159 0.567303 -0.148287
C78   C     C_R   0.854318 0.351228 0.751585 -0.115807
C79   C     C_3   0.792149 0.264976 0.424815 -0.156644
C80   C     C_3   0.773980 0.868484 0.535603 -0.131218
C81   C     C_3   0.270768 0.220731 0.473003 -0.128532
C82   C     C_3   0.226020 0.868483 0.464397 -0.131217
C83   C     C_3   0.729232 0.220731 0.526998 -0.128532
C84   C     C_3   0.273980 0.368484 0.535602 -0.131217
C85   C     C_3   0.770768 0.720731 0.473003 -0.128532
C86   C     C_3   0.726020 0.368484 0.464397 -0.131217
C87   C     C_3   0.229232 0.720731 0.526997 -0.128532
C88   C     C_3   0.732106 0.839470 0.501521 0.172588
C89   C     C_3   0.294976 0.295511 0.399327 -0.119984
C90   C     C_3   0.313547 0.248529 0.505984 0.175261
C91   C     C_3   0.267894 0.839470 0.498479 0.172587
C92   C     C_3   0.686453 0.248529 0.494016 0.175261
C93   C     C_3   0.232106 0.339470 0.501521 0.172587
C94   C     C_3   0.813547 0.748529 0.505984 0.175261
C95   C     C_3   0.767894 0.339470 0.498479 0.172587
C96   C     C_3   0.186453 0.748529 0.494016 0.175261
H1    H     H_    0.281397 0.107472 0.828518 0.087166
H2    H     H_    0.262920 0.894909 0.679865 0.111476
H3    H     H_    0.291431 0.158800 0.682117 0.113428
H4    H     H_    0.737079 0.894909 0.320135 0.111476
H5    H     H_    0.208569 0.658800 0.317883 0.113428
H6    H     H_    0.762920 0.394910 0.679865 0.111476
H7    H     H_    0.791431 0.658799 0.682117 0.113428
H8    H     H_    0.237080 0.394909 0.320135 0.111476
H9    H     H_    0.773669 0.930495 0.560834 0.138800
H10   H     H_    0.269342 0.159083 0.448430 0.146753
H11   H     H_    0.226331 0.930495 0.439165 0.138800
H12   H     H_    0.691380 0.835045 0.237475 0.097837
H13   H     H_    0.730657 0.159083 0.551571 0.146753
H14   H     H_    0.273669 0.430495 0.560834 0.138799
H15   H     H_    0.769342 0.659083 0.448429 0.146753
H16   H     H_    0.726331 0.430495 0.439165 0.138799
H17   H     H_    0.230658 0.659083 0.551571 0.146753
H18   H     H_    0.392699 0.345449 0.374940 0.140558
H19   H     H_    0.653657 0.741578 0.633177 0.135175
H20   H     H_    0.607302 0.345450 0.625059 0.140558
H21   H     H_    0.346343 0.741577 0.366823 0.135175
H22   H     H_    0.892698 0.845449 0.374940 0.140558
H23   H     H_    0.718603 0.107472 0.171482 0.087166
H24   H     H_    0.153657 0.241578 0.633177 0.135175
H25   H     H_    0.107301 0.845449 0.625059 0.140558
H26   H     H_    0.846343 0.241577 0.366824 0.135175
H27   H     H_    0.312741 0.296953 0.313151 0.136656
H28   H     H_    0.733641 0.790308 0.694593 0.129815
H29   H     H_    0.687258 0.296954 0.686850 0.136656
H30   H     H_    0.266359 0.790307 0.305406 0.129815
H31   H     H_    0.812742 0.796953 0.313151 0.136656
H32   H     H_    0.233641 0.290308 0.694593 0.129815
H33   H     H_    0.187258 0.796953 0.686849 0.136656
H34   H     H_    0.308620 0.835045 0.762525 0.097837
H35   H     H_    0.766359 0.290307 0.305406 0.129815
H36   H     H_    0.296893 0.705141 0.806012 0.133042
H37   H     H_    0.790830 0.113182 0.986525 0.128598
H38   H     H_    0.703107 0.705141 0.193987 0.133042
H39   H     H_    0.209169 0.113182 0.013475 0.128598
H40   H     H_    0.796893 0.205141 0.806012 0.133042
H41   H     H_    0.290831 0.613183 0.986525 0.128597
H42   H     H_    0.203108 0.205141 0.193987 0.133042
H43   H     H_    0.709169 0.613182 0.013475 0.128598
H44   H     H_    0.381617 0.714951 0.885495 0.139190
H45   H     H_    0.781397 0.607472 0.828518 0.087166
H46   H     H_    0.679436 0.166592 0.971914 0.151180
H47   H     H_    0.618383 0.714951 0.114505 0.139190
H48   H     H_    0.320564 0.166591 0.028086 0.151180
H49   H     H_    0.881617 0.214951 0.885495 0.139190
H50   H     H_    0.179436 0.666590 0.971913 0.151180
H51   H     H_    0.118383 0.214951 0.114505 0.139190
H52   H     H_    0.820564 0.666592 0.028086 0.151180
H53   H     H_    0.559881 0.085389 0.152411 0.164817
H54   H     H_    0.479719 0.835857 0.762827 0.136377
H55   H     H_    0.440119 0.085389 0.847589 0.164817
H56   H     H_    0.191380 0.335045 0.237475 0.097837
H57   H     H_    0.520281 0.835857 0.237173 0.136377
H58   H     H_    0.059881 0.585389 0.152411 0.164817
H59   H     H_    0.979719 0.335857 0.762827 0.136377
H60   H     H_    0.940119 0.585389 0.847589 0.164817
H61   H     H_    0.020281 0.335857 0.237173 0.136377
H62   H     H_    0.218603 0.607472 0.171482 0.087166
H63   H     H_    0.808620 0.335045 0.762525 0.097837
H64   H     H_    0.708569 0.158799 0.317883 0.113428
I1    I     I_    0.563492 0.161523 0.753853 -0.445318
I2    I     I_    0.418003 0.920970 0.245396 -0.424752
I3    I     I_    0.436508 0.161522 0.246147 -0.445318
I4    I     I_    0.581998 0.920970 0.754604 -0.424752
I5    I     I_    0.063492 0.661522 0.753853 -0.445318
I6    I     I_    0.918002 0.420970 0.245395 -0.424752
I7    I     I_    0.936508 0.661523 0.246147 -0.445318
I8    I     I_    0.081998 0.420970 0.754604 -0.424752
N1    N     N_R   0.389620 0.081040 0.705440 -0.049045
N2    N     N_R   0.417680 0.920160 0.443370 -0.062233
N3    N     N_R   0.417680 0.079840 0.443370 -0.055731
N4    N     N_R   0.582320 0.920160 0.556630 -0.062233
N5    N     N_R   0.082320 0.579840 0.556630 -0.055731
N6    N     N_R   0.917680 0.420160 0.443370 -0.062233
N7    N     N_R   0.917680 0.579840 0.443370 -0.055731
N8    N     N_R   0.082320 0.420160 0.556630 -0.062233
N9    N     N_R   0.627920 0.078930 0.443400 -0.050002
N10   N     N_R   0.372080 0.921070 0.556600 -0.049543
N11   N     N_R   0.372080 0.078930 0.556600 -0.050002
N12   N     N_R   0.610380 0.918960 0.294560 -0.049319
N13   N     N_R   0.627920 0.921070 0.443400 -0.049543
N14   N     N_R   0.127920 0.578930 0.443400 -0.050002
N15   N     N_R   0.872080 0.421070 0.556600 -0.049543
N16   N     N_R   0.872080 0.578930 0.556600 -0.050002
N17   N     N_R   0.127920 0.421070 0.443400 -0.049543
N18   N     N_R   0.555090 0.077730 0.294590 -0.049542
N19   N     N_R   0.444910 0.922270 0.705410 -0.042400
N20   N     N_R   0.444910 0.077730 0.705410 -0.049541
N21   N     N_R   0.555090 0.922270 0.294590 -0.042400
N22   N     N_R   0.055090 0.577730 0.294590 -0.049542
N23   N     N_R   0.610380 0.081040 0.294560 -0.049045
N24   N     N_R   0.944910 0.422270 0.705410 -0.042399
N25   N     N_R   0.944910 0.577730 0.705410 -0.049542
N26   N     N_R   0.055090 0.422270 0.294590 -0.042400
N27   N     N_R   0.389620 0.918960 0.705440 -0.049319
N28   N     N_R   0.889620 0.581040 0.705440 -0.049045
N29   N     N_R   0.110380 0.418960 0.294560 -0.049319
N30   N     N_R   0.110380 0.581040 0.294560 -0.049045
N31   N     N_R   0.889620 0.418960 0.705440 -0.049319
N32   N     N_R   0.582320 0.079840 0.556630 -0.055731
Ni1   Ni    Ni4+2 0.382970 1.000000 0.629840 0.205564
Ni2   Ni    Ni4+2 0.617030 0.000000 0.370160 0.205564
Ni3   Ni    Ni4+2 0.882970 0.500000 0.629840 0.205564
Ni4   Ni    Ni4+2 0.117030 0.500000 0.370160 0.205564
Ni5   Ni    Ni4+2 0.514540 1.000000 0.629840 0.259045
Ni6   Ni    Ni4+2 0.485460 0.000000 0.370160 0.259045
Ni7   Ni    Ni4+2 0.014540 0.500000 0.629840 0.259045
Ni8   Ni    Ni4+2 0.985460 0.500000 0.370160 0.259045

loop_
_geom_bond_atom_site_label_1
_geom_bond_atom_site_label_2
_ccdc_geom_bond_type
C34   N27   A    
C31   C66   A    
N6    Ni8   S    
C48   H57   S    
N32   Ni5   S    
N25   Ni7   S    
C32   I6    S    
C29   I3    S    
N13   Ni2   S    
C30   I4    S    
C67   N30   A    
C42   H7    S    
C23   N23   A    
C72   C85   S    
N30   Ni4   S    
C28   I2    S    
N8    N17   A    
C33   N7    A    
C48   C54   A    
C83   C92   S    
C22   H41   S    
C76   H24   S    
C49   C60   A    
C18   H37   S    
N14   Ni4   S    
C35   N8    A    
N8    Ni7   S    
N4    Ni5   S    
C25   H43   S    
N2    Ni6   S    
N12   Ni2   S    
N12   N21   A    
C23   H23   S    
C36   C62   A    
N26   N29   A    
C43   N17   A    
C4    H30   S    
C19   H36   S    
C41   H6    S    
C17   H51   S    
N29   Ni4   S    
N24   N31   A    
N18   N23   A    
C1    C53   A    
C43   H8    S    
C72   C88   S    
C40   H5    S    
C4    C96   S    
C5    C88   S    
N4    N13   A    
C7    C87   S    
C31   I5    S    
C60   C67   A    
N9    N32   A    
C62   C92   S    
C8    C79   S    
C83   H13   S    
C19   C22   S    
C9    C55   S    
N23   Ni2   S    
C64   C90   S    
C74   C87   S    
C56   H56   S    
C50   N24   A    
C11   H48   S    
C61   C78   A    
C4    C74   S    
C11   C53   S    
C33   C69   A    
C32   C68   A    
C81   C89   S    
C24   H40   S    
C45   N28   A    
C29   C64   A    
C12   H12   S    
N16   Ni3   S    
C40   C66   A    
N31   Ni3   S    
C39   C65   A    
C50   H59   S    
N3    N11   A    
C33   I7    S    
C75   H22   S    
C10   H44   S    
N7    Ni8   S    
C2    C72   S    
C7    H33   S    
C37   H2    S    
C37   C63   A    
C41   C68   A    
C38   C64   A    
N21   Ni6   S    
C16   C25   D    
C11   C20   D    
C79   H26   S    
C51   H60   S    
C68   C95   S    
C6    C84   S    
N18   Ni6   S    
N11   Ni1   S    
C49   H58   S    
C2    C94   S    
C70   C93   S    
C52   N26   A    
C72   H19   S    
C35   C70   A    
C69   C94   S    
C51   N25   A    
C1    H1    S    
C15   H49   S    
C77   H25   S    
C36   H64   S    
C71   C84   S    
C49   N22   A    
C89   H27   S    
C42   N16   A    
C6    C90   S    
C32   N6    A    
C80   H9    S    
C42   C69   A    
C84   H14   S    
C82   C91   S    
C71   H18   S    
N28   Ni3   S    
C74   C91   S    
C5    C75   S    
C86   H16   S    
C79   C95   S    
C10   C57   S    
C37   N10   A    
C52   C59   A    
C76   C93   S    
C34   C57   A    
C85   C94   S    
C9    C18   D    
C71   C89   S    
C10   C19   D    
C9    H46   S    
N25   N28   A    
C7    C91   S    
C87   C96   S    
C5    H31   S    
C8    H35   S    
C35   I8    S    
C15   C61   S    
C13   C21   D    
N5    Ni7   S    
C51   C58   A    
C16   C58   S    
C82   H11   S    
C29   N3    A    
N3    Ni6   S    
C6    C76   S    
C73   H20   S    
C30   N4    A    
C48   N21   A    
C39   N13   A    
N20   Ni5   S    
C17   C59   S    
C8    C92   S    
C81   C90   S    
N22   Ni8   S    
C15   C24   D    
C12   N12   A    
C47   H55   S    
N5    N14   A    
C43   C70   A    
C46   C57   A    
C3    C83   S    
C7    C77   S    
C46   N19   A    
N24   Ni7   S    
C18   C24   S    
C78   N31   A    
C17   C26   D    
C63   C91   S    
C45   C58   A    
C21   H38   S    
N26   Ni8   S    
N22   N30   A    
C65   C88   S    
C66   C96   S    
C13   C54   S    
C75   C80   S    
C28   N2    A    
C52   H61   S    
C46   H54   S    
C74   H21   S    
C21   C25   S    
C81   H10   S    
C38   N11   A    
N19   N27   A    
C56   N29   A    
C27   N32   A    
N1    N20   A    
C38   H3    S    
C26   H42   S    
C76   C81   S    
N19   Ni5   S    
C3    H29   S    
C40   N14   A    
C23   C55   A    
C73   C92   S    
N27   Ni1   S    
C27   C62   A    
C2    H28   S    
C14   C60   S    
C14   H50   S    
C77   C96   S    
C45   H45   S    
C44   H53   S    
C56   C59   A    
C47   C53   A    
C16   H52   S    
N15   Ni3   S    
C14   C22   D    
C6    H32   S    
C80   C88   S    
C27   I1    S    
C79   C83   S    
C44   C55   A    
C39   H4    S    
C71   C90   S    
C20   C26   S    
C77   C82   S    
C1    N1    A    
C67   H62   S    
C8    C86   S    
C84   C93   S    
C13   H47   S    
C20   H39   S    
C89   C93   S    
C3    C73   S    
C73   C86   S    
C87   H17   S    
C30   C65   A    
C2    C80   S    
C86   C95   S    
C36   N9    A    
N1    Ni1   S    
C28   C63   A    
C85   H15   S    
C78   H63   S    
C4    C82   S    
C34   H34   S    
C31   N5    A    
N10   Ni1   S    
N17   Ni4   S    
C50   C61   A    
N9    Ni2   S    
C41   N15   A    
C3    C95   S    
C47   N20   A    
N6    N15   A    
C5    C85   S    
C12   C54   A    
C75   C94   S    
C44   N18   A    
N7    N16   A    
N2    N10   A    
