data_mof_unit_5105.cif
_audit_creation_date              2012-12-11T14:14:11-0500
_audit_creation_method            fapswitch 2.2
_symmetry_space_group_name_H-M    P1
_symmetry_Int_Tables_number       1
_space_group_crystal_system       triclinic
_cell_length_a                    17.511823
_cell_length_b                    7.345266
_cell_length_c                    16.674171
_cell_angle_alpha                 90.812434
_cell_angle_beta                  99.067752
_cell_angle_gamma                 90.561373
_cell_volume                      2117.60769284

loop_
_atom_site_label
_atom_site_type_symbol
_atom_type_description
_atom_site_fract_x
_atom_site_fract_y
_atom_site_fract_z
_atom_type_partial_charge
O1    O     O_R   0.414560 0.494370 0.416770 -0.532157
O2    O     O_R   0.585440 0.994370 0.583230 -0.551338
O3    O     O_R   0.578370 0.819590 0.429320 -0.530275
O4    O     O_R   0.421630 0.319590 0.570680 -0.542036
C1    C     C_R   0.603133 0.655834 0.412077 0.748520
C2    C     C_R   0.396358 0.155920 0.587173 0.786174
O5    O     O_R   0.414740 0.823790 0.407360 -0.523654
O6    O     O_R   0.585260 0.323790 0.592640 -0.540013
O7    O     O_R   0.420650 0.998510 0.561120 -0.536386
O8    O     O_R   0.579350 0.498510 0.438880 -0.547633
C3    C     C_R   0.386350 0.653774 0.387761 0.730609
C4    C     C_R   0.613750 0.157332 0.612264 0.711245
O9    O     O_3   0.502130 0.662240 0.550470 -0.398739
O10   O     O_3   0.497870 0.162240 0.449530 -0.393605
V1    V     V_3+5 0.499600 0.935390 0.490640 1.393289
V2    V     V_3+5 0.500400 0.435390 0.509360 1.366503
C5    C     C_2   0.776088 0.253143 0.800067 -0.191000
C6    C     C_2   0.221471 0.754884 0.205960 -0.216192
C7    C     C_2   0.820382 0.105596 0.819342 -0.336770
C8    C     C_2   0.165165 0.625536 0.191772 -0.355213
H1    H     H_    0.789508 0.374973 0.837416 0.139874
H2    H     H_    0.223983 0.855134 0.159380 0.143048
H3    H     H_    0.805078 0.976128 0.788932 0.175091
H4    H     H_    0.155974 0.529256 0.237500 0.157716
C9    C     C_2   0.703218 0.257609 0.737751 0.387309
C10   C     C_2   0.281537 0.772875 0.281847 0.384254
C11   C     C_2   0.689589 0.151929 0.668775 0.057347
C12   C     C_2   0.316897 0.631098 0.322808 0.076517
C13   C     C_R   0.332913 0.147483 0.637976 -0.204631
C14   C     C_R   0.666687 0.647132 0.361152 -0.205011
C15   C     C_R   0.165005 0.119403 0.862992 -0.120684
C16   C     C_R   0.833469 0.622635 0.135203 -0.162102
C17   C     C_R   0.302329 0.175983 0.858158 0.365120
C18   C     C_R   0.702705 0.722360 0.146961 0.408984
C19   C     C_R   0.241484 0.131187 0.902949 0.171047
C20   C     C_R   0.759864 0.679275 0.098514 0.179806
C21   C     C_R   0.150634 0.104333 0.778162 -0.245675
C22   C     C_R   0.845592 0.578703 0.217723 -0.235612
C23   C     C_R   0.211651 0.113335 0.731839 -0.030142
C24   C     C_R   0.786428 0.600560 0.265749 -0.031434
C25   C     C_R   0.286958 0.165532 0.770837 -0.140008
C26   C     C_R   0.716342 0.684340 0.231787 -0.165960
C27   C     C_R   0.344895 0.201871 0.720706 0.407114
C28   C     C_R   0.661499 0.728660 0.284018 0.436447
C29   C     C_R   0.260573 0.078426 0.603054 -0.365034
C30   C     C_R   0.734917 0.557862 0.392080 -0.370462
C31   C     C_R   0.197722 0.070884 0.647415 0.475145
C32   C     C_R   0.797242 0.542837 0.347377 0.469550
H5    H     H_    0.254381 0.035781 0.540143 0.144620
H6    H     H_    0.738470 0.502998 0.452141 0.138898
H7    H     H_    0.091576 0.080498 0.748805 0.165734
H8    H     H_    0.901579 0.527067 0.244073 0.170602
O11   O     O_R   0.920750 0.773600 0.061260 -0.536387
O12   O     O_R   0.079250 0.273600 0.938740 -0.541099
O13   O     O_R   0.085340 0.439850 0.092570 -0.546926
O14   O     O_R   0.914660 0.939850 0.907430 -0.553005
C33   C     C_R   0.109497 0.610587 0.115730 0.741398
C34   C     C_R   0.887941 0.106405 0.885938 0.718591
O15   O     O_R   0.921720 0.444130 0.070790 -0.542195
O16   O     O_R   0.078280 0.944130 0.929210 -0.529006
O17   O     O_R   0.914480 0.269530 0.916840 -0.535032
O18   O     O_R   0.085520 0.769530 0.083160 -0.528725
C35   C     C_R   0.897579 0.612230 0.086897 0.731304
C36   C     C_R   0.100820 0.111909 0.911187 0.756911
O19   O     O_3   0.997840 0.601520 0.949550 -0.382884
O20   O     O_3   0.002160 0.101520 0.050450 -0.381587
V3    V     V_3+5 0.000400 0.328340 0.009360 1.386829
V4    V     V_3+5 0.999600 0.828340 0.990640 1.403091
O21   O     O_3   0.643193 0.361391 0.757421 -0.573431
C37   C     C_3   0.658386 0.547985 0.746992 0.081484
H9    H     H_    0.634794 0.586346 0.683804 0.159080
H10   H     H_    0.720975 0.586492 0.758479 0.085032
C38   C     C_3   0.617693 0.656042 0.805810 -0.330922
H11   H     H_    0.558055 0.606830 0.801753 0.211287
H12   H     H_    0.645834 0.631302 0.868707 0.215651
C39   C     C_3   0.616664 0.857727 0.787157 -0.824358
H13   H     H_    0.675846 0.905172 0.783370 0.234483
H14   H     H_    0.595209 0.936184 0.835853 0.239789
H15   H     H_    0.578509 0.882336 0.728859 0.251018
O22   O     O_3   0.296532 0.940267 0.319053 -0.580468
C40   C     C_3   0.325682 0.067589 0.269744 0.050189
H16   H     H_    0.348580 0.175429 0.313611 0.238920
H17   H     H_    0.278304 0.119671 0.224300 0.112057
C41   C     C_3   0.395356 0.011644 0.230025 -0.351280
H18   H     H_    0.435279 0.923942 0.270321 0.230405
H19   H     H_    0.375359 0.936635 0.172046 0.171162
C42   C     C_3   0.438904 0.184830 0.213315 -0.831755
H20   H     H_    0.399130 0.281544 0.178142 0.221722
H21   H     H_    0.485402 0.153362 0.178898 0.220723
H22   H     H_    0.465140 0.253088 0.271104 0.236148
N1    N     N_2   0.747840 0.033722 0.647663 -0.550563
H23   H     H_    0.726697 0.923474 0.611670 0.264158
C43   C     C_3   0.810672 0.124691 0.616965 -0.599838
H24   H     H_    0.788413 0.195159 0.560145 0.180443
H25   H     H_    0.853663 0.023037 0.604079 0.212633
H26   H     H_    0.840292 0.225586 0.661747 0.217229
N2    N     N_2   0.287313 0.452540 0.307512 -0.567544
H27   H     H_    0.270897 0.414855 0.247657 0.249370
C44   C     C_3   0.240314 0.387348 0.365737 -0.566659
H28   H     H_    0.212623 0.255428 0.344274 0.219542
H29   H     H_    0.194406 0.486243 0.373780 0.191403
H30   H     H_    0.276799 0.366114 0.425536 0.214881
O23   O     O_3   0.415617 0.279076 0.751897 -0.548350
C45   C     C_3   0.405156 0.461397 0.775679 0.128400
H31   H     H_    0.451619 0.490762 0.826633 0.144858
H32   H     H_    0.349577 0.488047 0.798255 0.112505
C46   C     C_3   0.413599 0.593968 0.708442 -0.342975
H33   H     H_    0.469359 0.570344 0.686717 0.236792
H34   H     H_    0.365644 0.573372 0.656845 0.196376
C47   C     C_3   0.411515 0.788148 0.741069 -0.803646
H35   H     H_    0.351131 0.823427 0.746680 0.233471
H36   H     H_    0.434591 0.881994 0.699618 0.256920
H37   H     H_    0.447912 0.805379 0.801468 0.231494
O24   O     O_3   0.605600 0.858282 0.262333 -0.553788
C48   C     C_3   0.641826 0.032059 0.259265 0.100908
H38   H     H_    0.610739 0.104246 0.206717 0.101432
H39   H     H_    0.703522 0.030493 0.249827 0.097194
C49   C     C_3   0.633819 0.148386 0.333379 -0.285896
H40   H     H_    0.632952 0.293452 0.315990 0.154217
H41   H     H_    0.577750 0.116583 0.351867 0.242574
C50   C     C_3   0.699538 0.121480 0.403767 -0.719634
H42   H     H_    0.706160 0.977362 0.421116 0.226037
H43   H     H_    0.686514 0.200185 0.457036 0.208446
H44   H     H_    0.755133 0.170166 0.387344 0.221354
O25   O     O_3   0.377443 0.219595 0.896683 -0.561375
C51   C     C_3   0.379209 0.321515 0.970157 0.078785
H45   H     H_    0.390633 0.226699 0.021706 0.169216
H46   H     H_    0.325156 0.398893 0.972131 0.120439
C52   C     C_3   0.444020 0.463822 0.982042 -0.350077
H47   H     H_    0.497594 0.408059 0.963755 0.220484
H48   H     H_    0.424847 0.583319 0.944519 0.171846
C53   C     C_3   0.460877 0.528568 0.070397 -0.808400
H49   H     H_    0.406625 0.561245 0.094034 0.212580
H50   H     H_    0.496882 0.652186 0.074970 0.295563
H51   H     H_    0.493782 0.424569 0.108307 0.233408
O26   O     O_3   0.628671 0.768081 0.110379 -0.550190
C54   C     C_3   0.628558 0.931502 0.065864 0.144083
H52   H     H_    0.647743 0.909180 0.007035 0.175250
H53   H     H_    0.667633 0.037467 0.099048 0.042965
C55   C     C_3   0.545953 0.003547 0.048054 -0.357054
H54   H     H_    0.512763 0.953150 0.094560 0.224595
H55   H     H_    0.547334 0.154506 0.051506 0.164583
C56   C     C_3   0.503682 0.942331 0.964638 -0.750909
H56   H     H_    0.523617 0.806853 0.946757 0.226202
H57   H     H_    0.513765 0.043329 0.918502 0.260626
H58   H     H_    0.440643 0.932201 0.965835 0.237926
O27   O     O_3   0.123274 0.009213 0.614552 -0.581134
C57   C     C_3   0.104928 0.008922 0.528771 0.077799
H59   H     H_    0.047031 0.944160 0.513348 0.153839
H60   H     H_    0.143369 0.919918 0.498999 0.113844
C58   C     C_3   0.099001 0.202322 0.494662 -0.350412
H61   H     H_    0.064997 0.287560 0.531346 0.197744
H62   H     H_    0.157236 0.265654 0.498664 0.188704
C59   C     C_3   0.060029 0.200025 0.405972 -0.827956
H63   H     H_    0.092873 0.113446 0.368577 0.235124
H64   H     H_    0.057818 0.340658 0.382208 0.235548
H65   H     H_    0.999987 0.145626 0.400532 0.239572
O28   O     O_3   0.866425 0.455910 0.376767 -0.582774
C60   C     C_3   0.890629 0.474015 0.461648 0.071275
H66   H     H_    0.943996 0.393873 0.476164 0.158134
H67   H     H_    0.849837 0.409707 0.497103 0.101598
C61   C     C_3   0.910373 0.671558 0.489141 -0.349827
H68   H     H_    0.951921 0.728883 0.452014 0.194581
H69   H     H_    0.857498 0.755878 0.480315 0.190686
C62   C     C_3   0.946036 0.680183 0.578858 -0.823581
H70   H     H_    0.904855 0.624013 0.616744 0.228832
H71   H     H_    0.959716 0.823511 0.598068 0.239345
H72   H     H_    0.000451 0.601435 0.589249 0.235699
N3    N     N_2   0.257451 0.073469 0.985341 -0.539567
H73   H     H_    0.305893 0.995660 0.001895 0.252165
C63   C     C_3   0.233825 0.189217 0.048050 -0.559067
H74   H     H_    0.284033 0.221373 0.095158 0.162125
H75   H     H_    0.189222 0.117646 0.076594 0.217992
H76   H     H_    0.210523 0.320643 0.023530 0.203236
N4    N     N_2   0.738632 0.664278 0.012628 -0.540934
H77   H     H_    0.738930 0.532470 0.990465 0.251668
C64   C     C_3   0.772956 0.795322 0.964432 -0.558694
H78   H     H_    0.728434 0.853936 0.918462 0.190909
H79   H     H_    0.815200 0.725591 0.931917 0.214582
H80   H     H_    0.799564 0.912554 0.001955 0.207638

loop_
_geom_bond_atom_site_label_1
_geom_bond_atom_site_label_2
_ccdc_geom_bond_type
C12   N2    S    
C56   H58   S    
C63   H74   S    
C51   H45   S    
C46   H34   S    
C38   H11   S    
O27   C57   S    
O1    C3    A    
C41   C42   S    
C42   H20   S    
O2    C4    A    
C2    O7    A    
C45   H32   S    
N2    H27   S    
C33   O18   A    
C23   C25   A    
O5    C3    A    
C63   H75   S    
C62   H70   S    
C16   C20   A    
C39   H14   S    
C61   H68   S    
C21   H7    S    
C22   H8    S    
C48   H38   S    
C56   H57   S    
N3    H73   S    
C58   C59   S    
C48   C49   S    
O11   V4    S    
C49   H40   S    
C50   H44   S    
N2    C44   S    
C47   H35   S    
C41   H18   S    
C8    H4    S    
C53   H49   S    
C64   H79   S    
C18   C26   A    
C58   H61   S    
C60   H67   S    
C11   N1    S    
C37   H9    S    
C16   C22   A    
C59   H64   S    
C52   C53   S    
O15   V3    S    
O19   V4    S    
C34   O17   A    
C24   C26   A    
O20   V3    S    
C28   O24   S    
C43   H25   S    
C13   C27   A    
C25   C27   A    
C14   C28   A    
C26   C28   A    
C45   H31   S    
C54   C55   S    
C40   H16   S    
C61   H69   S    
C29   C31   A    
C7    C34   S    
C63   H76   S    
C31   O27   S    
C4    C11   S    
C57   C58   S    
C39   H13   S    
C59   H65   S    
N4    C64   S    
N1    H23   S    
O1    V2    S    
O22   C40   S    
O12   V3    S    
C51   C52   S    
C48   H39   S    
O14   V4    S    
C32   O28   S    
C10   O22   S    
C15   C21   A    
C13   C29   A    
C49   C50   S    
O4    V2    S    
C7    H3    S    
N1    C43   S    
C61   C62   S    
C54   H53   S    
O17   V3    S    
C60   H66   S    
C18   O26   S    
O6    C4    A    
C64   H80   S    
C6    C10   S    
C44   H30   S    
C37   C38   S    
C17   O25   S    
C29   H5    S    
C50   H42   S    
C60   C61   S    
C43   H24   S    
C55   H54   S    
C55   C56   S    
O2    V1    S    
C47   H37   S    
C59   H63   S    
C49   H41   S    
C53   H50   S    
C44   H29   S    
C43   H26   S    
C42   H21   S    
O28   C60   S    
C19   N3    S    
C46   C47   S    
C15   C19   A    
O9    V2    S    
O4    C2    A    
C9    O21   S    
C38   H12   S    
C46   H33   S    
C40   C41   S    
O3    V1    S    
C39   H15   S    
C23   C31   A    
C52   H47   S    
N3    C63   S    
C24   C32   A    
C51   H46   S    
O6    V2    S    
C6    H2    S    
C10   C12   D    
C15   C36   S    
C14   C30   A    
C16   C35   S    
C57   H60   S    
O26   C54   S    
O3    C1    A    
C27   O23   S    
C40   H17   S    
O13   V3    S    
O24   C48   S    
C55   H55   S    
C62   H72   S    
C54   H52   S    
C30   H6    S    
O15   C35   A    
C44   H28   S    
O18   V4    S    
O16   C36   A    
C17   C25   A    
O13   C33   A    
O7    V1    S    
C5    C9    S    
C1    O8    A    
C21   C23   A    
N4    H77   S    
O8    V2    S    
C22   C24   A    
O11   C35   A    
C17   C19   A    
O25   C51   S    
O12   C36   A    
C3    C12   S    
C53   H51   S    
O5    V1    S    
C5    C7    D    
C18   C20   A    
O14   C34   A    
C6    C8    D    
C57   H59   S    
C58   H62   S    
O21   C37   S    
C47   H36   S    
C50   H43   S    
C30   C32   A    
C2    C13   S    
C38   C39   S    
O16   V4    S    
C20   N4    S    
C62   H71   S    
C64   H78   S    
C1    C14   S    
C42   H22   S    
O23   C45   S    
O10   V1    S    
C41   H19   S    
C37   H10   S    
C8    C33   S    
C45   C46   S    
C56   H56   S    
C52   H48   S    
C9    C11   D    
C5    H1    S    
