data_mof_unit_10147.cif
_audit_creation_date              2013-03-05T16:32:08-0500
_audit_creation_method            fapswitch 2.2
_symmetry_space_group_name_H-M    P1
_symmetry_Int_Tables_number       1
_space_group_crystal_system       triclinic
_cell_length_a                    10.859298
_cell_length_b                    11.000106
_cell_length_c                    9.591796
_cell_angle_alpha                 89.987319
_cell_angle_beta                  88.778182
_cell_angle_gamma                 91.641436
_cell_volume                      1145.04197049

loop_
_atom_site_label
_atom_site_type_symbol
_atom_site_description
_atom_site_fract_x
_atom_site_fract_y
_atom_site_fract_z
_atom_type_partial_charge
O1    O     O_R   0.500000 0.319640 0.618810 -0.578021
O2    O     O_R   0.500010 0.319680 0.381230 -0.577388
C1    C     C_R   0.501542 0.263238 0.500037 0.889749
O3    O     O_R   0.317690 0.499960 0.618790 -0.535305
O4    O     O_R   0.317700 0.500000 0.381210 -0.535234
C2    C     C_R   0.259357 0.500026 0.501465 0.905926
Cu1   Cu    Cu3+1 0.499990 0.499980 0.640670 1.045113
Cu2   Cu    Cu3+1 0.500010 0.500020 0.359330 1.069580
O5    O     O_R   0.499990 0.680320 0.618770 -0.567318
O6    O     O_R   0.500000 0.680360 0.381190 -0.561029
O7    O     O_R   0.682300 0.500000 0.618790 -0.598116
O8    O     O_R   0.682310 0.500040 0.381210 -0.587547
C3    C     C_R   0.499081 0.738146 0.499307 0.874567
C4    C     C_R   0.739452 0.501139 0.499211 0.841747
C5    C     C_3   0.061609 0.375816 0.567096 0.479327
C6    C     C_3   0.917579 0.381267 0.565781 -0.482180
H1    H     H_    0.874095 0.303071 0.510363 0.218537
H2    H     H_    0.877702 0.374390 0.673411 0.209953
H3    H     H_    0.896215 0.591479 0.698964 0.169930
C7    C     C_3   0.070641 0.613209 0.585371 0.040231
C8    C     C_3   0.071346 0.508988 0.350938 0.062860
C9    C     C_3   0.120025 0.499333 0.504442 -0.265100
H4    H     H_    0.101169 0.429543 0.289643 0.223428
C10   C     C_3   0.876381 0.501323 0.500088 -0.183555
C11   C     C_3   0.927601 0.609599 0.589481 0.131161
C12   C     C_3   0.930266 0.507990 0.350922 -0.334025
H5    H     H_    0.895331 0.429917 0.287627 0.209784
H6    H     H_    0.897755 0.591502 0.303257 0.289529
H7    H     H_    0.105825 0.695626 0.529023 0.221842
C13   C     C_R   0.533552 0.065083 0.616398 -0.038778
C14   C     C_R   0.508284 0.131650 0.498141 -0.088202
C15   C     C_R   0.493083 0.068411 0.373274 -0.146425
H8    H     H_    0.476006 0.118004 0.278395 0.221554
C16   C     C_R   0.486616 0.940927 0.370193 0.338392
C17   C     C_R   0.503958 0.872818 0.495512 -0.131244
C18   C     C_R   0.536861 0.939885 0.614727 -0.008032
C19   C     C_3   0.498702 0.935310 0.766540 0.121704
C20   C     C_3   0.494252 0.073746 0.765665 0.102547
H9    H     H_    0.572461 0.908386 0.836867 0.115570
H10   H     H_    0.566888 0.118200 0.829644 0.121725
C21   C     C_R   0.600297 0.545141 0.070537 0.127344
N1    N     N_R   0.500800 0.500930 0.147930 -0.236043
C22   C     C_R   0.413603 0.434719 0.074468 0.360115
C23   C     C_R   0.411517 0.439261 0.926816 0.007364
H11   H     H_    0.339669 0.391383 0.872152 0.219511
N2    N     N_R   0.500800 0.500890 0.852020 -0.218223
C24   C     C_R   0.599423 0.544088 0.922908 0.167608
C25   C     C_3   0.648490 0.668678 0.908003 -0.419248
C26   C     C_3   0.650825 0.673547 0.065339 0.108774
H12   H     H_    0.739523 0.672320 0.853628 0.252439
H13   H     H_    0.577809 0.723535 0.862013 0.209247
H14   H     H_    0.587865 0.739104 0.112935 0.197010
Br1   Br    Br    0.102889 0.345545 0.761565 -0.327606
N3    N     N_R   0.878541 0.727265 0.547895 0.131136
O9    O     O_R   0.800672 0.781795 0.629641 -0.366952
O10   O     O_R   0.919917 0.783735 0.436590 -0.245924
N4    N     N_R   0.451171 0.886208 0.241139 0.125974
O11   O     O_R   0.354081 0.814828 0.238897 -0.239734
O12   O     O_R   0.490278 0.935637 0.124410 -0.357731
N5    N     N_R   0.379484 0.872083 0.791742 0.197599
O13   O     O_R   0.291825 0.877447 0.701505 -0.256837
O14   O     O_R   0.361349 0.807722 0.904425 -0.235389
Br2   Br    Br    0.331678 0.138286 0.798940 -0.235587
Br3   Br    Br    0.301319 0.319202 0.160257 -0.334756
N6    N     N_R   0.105975 0.270915 0.485716 0.146847
O15   O     O_R   0.217640 0.234367 0.501665 -0.298021
O16   O     O_R   0.039119 0.217961 0.390972 -0.297310
N7    N     N_R   0.776993 0.687068 0.113085 0.134617
O17   O     O_R   0.808389 0.784433 0.182050 -0.247768
O18   O     O_R   0.862961 0.619746 0.059963 -0.322992
Br4   Br    Br    0.130325 0.642703 0.774039 -0.229578
Br5   Br    Br    0.133049 0.649351 0.242517 -0.203141

loop_
_geom_bond_atom_site_label_1
_geom_bond_atom_site_label_2
_geom_bond_distance
_ccdc_geom_bond_type
C16   N4    1.431822 S    
C20   H10   1.112015 S    
C8    C12   1.531757 S    
C7    Br4   1.959201 S    
C3    C17   1.481250 S    
C19   C20   1.524991 S    
C26   N7    1.457448 S    
O4    Cu2   1.986390 S    
C21   N1    1.374960 A    
C12   H6    1.096742 S    
C14   C15   1.395657 A    
N6    O16   1.302456 A    
C13   C18   1.378780 A    
Cu2   O8    1.995181 S    
C26   H14   1.100447 S    
C15   H8    1.083034 S    
C25   H12   1.107523 S    
O2    C1    1.298250 A    
C21   C24   1.416315 A    
Cu1   Cu2   2.698550 S    
C6    C10   1.544917 S    
C6    H2    1.112673 S    
O1    Cu1   1.994858 S    
C8    C9    1.579546 S    
C10   C11   1.563967 S    
C1    C14   1.451529 S    
Cu1   O7    1.986391 S    
C10   C12   1.535150 S    
N4    O11   1.296980 A    
C13   C14   1.386551 A    
C25   H13   1.090279 S    
O3    Cu1   1.995182 S    
H3    C11   1.113299 S    
C5    Br1   1.958350 S    
C21   C26   1.501020 S    
C25   C26   1.510820 S    
C23   N2    1.358957 A    
C22   Br3   1.909586 S    
C20   Br2   1.941787 S    
C7    H7    1.109574 S    
C8    H4    1.105707 S    
C22   C23   1.417807 A    
C12   H5    1.114206 S    
O4    C2    1.304119 A    
C19   H9    1.104922 S    
O7    C4    1.292319 A    
N3    O10   1.300314 A    
N4    O12   1.302226 A    
C19   N5    1.467374 S    
C6    H1    1.110427 S    
N1    C22   1.383026 A    
C8    Br5   1.955684 S    
Cu2   N1    2.027563 S    
C5    C6    1.567251 S    
C5    N6    1.479584 S    
Cu1   N2    2.027459 S    
O8    C4    1.302221 A    
C11   N3    1.471929 S    
C13   C20   1.489099 S    
Cu2   O6    1.994858 S    
N6    O15   1.300485 A    
C7    C11   1.552344 S    
C4    C10   1.487097 S    
Cu1   O5    1.994805 S    
N7    O18   1.303476 A    
O5    C3    1.310812 A    
N3    O9    1.300245 A    
C18   C19   1.505880 S    
C17   C18   1.407901 A    
C16   C17   1.434925 A    
O2    Cu2   1.994802 S    
C15   C16   1.402433 A    
N2    C24   1.355413 A    
O3    C2    1.303116 A    
N7    O17   1.299971 A    
C5    C9    1.594880 S    
N5    O14   1.300314 A    
C23   H11   1.074740 S    
C24   C25   1.462007 S    
C7    C9    1.574944 S    
N5    O13   1.302734 A    
O1    C1    1.297379 A    
O6    C3    1.299206 A    
C2    C9    1.512507 S    
