data_mof_unit_66214.cif
_audit_creation_date              2012-12-10T19:19:01-0500
_audit_creation_method            fapswitch 2.2
_symmetry_space_group_name_H-M    P1
_symmetry_Int_Tables_number       1
_space_group_crystal_system       triclinic
_cell_length_a                    15.993123
_cell_length_b                    14.780973
_cell_length_c                    19.34813
_cell_angle_alpha                 90.000533
_cell_angle_beta                  89.991434
_cell_angle_gamma                 90.088683
_cell_volume                      4573.77475079

loop_
_atom_site_label
_atom_site_type_symbol
_atom_type_description
_atom_site_fract_x
_atom_site_fract_y
_atom_site_fract_z
_atom_type_partial_charge
C1    C     C_R   0.340861 0.499950 0.500015 0.862039
C2    C     C_R   0.659138 0.500049 0.499984 0.862038
C3    C     C_1   0.823309 0.500113 0.499982 -0.034549
C4    C     C_1   0.176691 0.499886 0.500018 -0.034549
C5    C     C_1   0.251745 0.499873 0.500019 -0.112610
C6    C     C_1   0.748255 0.500127 0.499981 -0.112610
C7    C     C_R   0.501375 0.951492 0.563447 0.112629
C8    C     C_R   0.498625 0.048508 0.436553 0.112630
C9    C     C_R   0.501103 0.951488 0.436549 0.112614
C10   C     C_R   0.498897 0.048511 0.563451 0.112615
C11   C     C_R   0.501075 0.902954 0.499999 -0.071619
C12   C     C_R   0.498925 0.097046 0.500001 -0.071618
C13   C     C_1   0.500437 0.802480 0.500000 0.164446
C14   C     C_1   0.499563 0.197520 0.500000 0.164447
C15   C     C_R   0.499985 0.499999 0.367328 0.881452
C16   C     C_R   0.500015 0.500001 0.632672 0.881452
C17   C     C_R   0.440403 0.551268 0.255082 0.211993
C18   C     C_R   0.559597 0.448732 0.744918 0.211994
C19   C     C_R   0.440449 0.551287 0.744932 0.211182
C20   C     C_R   0.559551 0.448713 0.255068 0.211182
C21   C     C_R   0.440794 0.550968 0.183017 -0.163307
C22   C     C_R   0.559206 0.449031 0.816983 -0.163307
C23   C     C_R   0.440838 0.550986 0.816996 -0.163532
C24   C     C_R   0.559162 0.449014 0.183004 -0.163532
C25   C     C_R   0.499981 0.499994 0.146345 -0.053674
C26   C     C_R   0.500019 0.500006 0.853655 -0.053674
C27   C     C_R   0.499980 0.499995 0.291685 -0.148693
C28   C     C_R   0.500020 0.500005 0.708315 -0.148694
C29   C     C_R   0.500010 0.500003 0.929877 0.448606
C30   C     C_R   0.499990 0.499997 0.070123 0.448605
C31   C     C_R   0.956531 0.575525 0.475314 -0.164265
C32   C     C_R   0.043469 0.424475 0.524686 -0.164265
C33   C     C_R   0.043793 0.575466 0.475324 -0.145100
C34   C     C_R   0.956206 0.424534 0.524676 -0.145100
C35   C     C_R   0.912773 0.500059 0.499990 0.145563
C36   C     C_R   0.087227 0.499941 0.500010 0.145563
Cu1   Cu    Cu3+1 0.500000 0.589220 0.500000 1.030530
Cu2   Cu    Cu3+1 0.500000 0.410780 0.500000 1.030530
H1    H     H_    0.394203 0.590388 0.155850 0.193113
H2    H     H_    0.605797 0.409611 0.844150 0.193113
H3    H     H_    0.394247 0.590409 0.844172 0.193187
H4    H     H_    0.605753 0.409591 0.155828 0.193187
H5    H     H_    0.077327 0.634077 0.456159 0.153877
H6    H     H_    0.922673 0.365923 0.543840 0.153877
H7    H     H_    0.923250 0.634183 0.456143 0.146075
H8    H     H_    0.076750 0.365817 0.543856 0.146075
N1    N     N_R   0.556823 0.450504 0.034362 -0.228105
N2    N     N_R   0.443177 0.549496 0.965638 -0.228105
N3    N     N_R   0.556833 0.450507 0.965630 -0.228126
N4    N     N_R   0.443166 0.549493 0.034369 -0.228126
N5    N     N_1   0.500000 0.276710 0.500000 -0.145612
N6    N     N_1   0.500000 0.723290 0.500000 -0.145611
O1    O     O_R   0.380310 0.575320 0.500010 -0.540973
O2    O     O_R   0.619690 0.424680 0.499990 -0.540972
O3    O     O_R   0.619690 0.575320 0.499990 -0.588794
O4    O     O_R   0.380310 0.424680 0.500010 -0.588794
O5    O     O_R   0.499990 0.575370 0.400140 -0.553583
O6    O     O_R   0.500010 0.424630 0.599860 -0.553583
O7    O     O_R   0.500010 0.575370 0.599860 -0.553219
O8    O     O_R   0.499990 0.424630 0.400140 -0.553219
Br1   Br    Br    0.354281 0.619257 0.300825 -0.535603
Br2   Br    Br    0.645718 0.380742 0.699175 -0.535603
Br3   Br    Br    0.354346 0.619305 0.699215 -0.531324
Br4   Br    Br    0.645655 0.380697 0.300785 -0.531324
C37   C     C_3   0.494957 0.101594 0.630960 -0.421223
C38   C     C_3   0.582113 0.130490 0.654497 -0.731875
H9    H     H_    0.622939 0.070565 0.661735 0.237263
H10   H     H_    0.611158 0.176202 0.615758 0.271597
H11   H     H_    0.577452 0.167203 0.704411 0.267036
H12   H     H_    0.455208 0.162656 0.625024 0.212187
H13   H     H_    0.463775 0.062872 0.672664 0.211962
C39   C     C_3   0.505044 0.898406 0.369040 -0.421222
C40   C     C_3   0.417888 0.869510 0.345503 -0.731873
H14   H     H_    0.388842 0.823799 0.384244 0.271595
H15   H     H_    0.377062 0.929434 0.338263 0.237264
H16   H     H_    0.422550 0.832794 0.295591 0.267037
H17   H     H_    0.536226 0.937128 0.327336 0.211961
H18   H     H_    0.544793 0.837344 0.374976 0.212186
C41   C     C_3   0.494396 0.101588 0.369056 -0.421632
C42   C     C_3   0.581450 0.130492 0.345249 -0.730657
H19   H     H_    0.610664 0.176184 0.383908 0.271972
H20   H     H_    0.622242 0.070569 0.337864 0.237212
H21   H     H_    0.576574 0.167231 0.295361 0.266880
H22   H     H_    0.463043 0.062862 0.327450 0.212121
H23   H     H_    0.454666 0.162644 0.375117 0.212535
C43   C     C_3   0.505605 0.898412 0.630944 -0.421632
C44   C     C_3   0.418551 0.869509 0.654752 -0.730657
H24   H     H_    0.377759 0.929432 0.662137 0.237211
H25   H     H_    0.389337 0.823817 0.616093 0.271972
H26   H     H_    0.423428 0.832770 0.704639 0.266880
H27   H     H_    0.545335 0.837355 0.624883 0.212535
H28   H     H_    0.536958 0.937138 0.672550 0.212121

loop_
_geom_bond_atom_site_label_1
_geom_bond_atom_site_label_2
_ccdc_geom_bond_type
C16   C28   S    
C7    C10   A    
C38   H10   S    
C44   H24   S    
C4    C36   S    
C24   H4    S    
C40   H14   S    
C9    C39   S    
C3    C6    T    
N1    N3    A    
C29   N3    A    
C7    C11   A    
C39   H17   S    
C1    C5    S    
C32   C36   A    
C1    O4    A    
C43   H27   S    
C41   H22   S    
C38   H11   S    
C37   H12   S    
C33   C36   A    
Cu1   O3    S    
C34   C35   A    
C15   O8    A    
C23   C26   A    
C1    O1    A    
C39   H18   S    
C17   Br1   S    
Cu2   O6    S    
C20   C24   A    
C19   Br3   S    
C8    C9    A    
Cu2   O2    S    
C8    C41   S    
C31   C33   A    
C17   C27   A    
C39   C40   S    
Cu1   O1    S    
N2    N4    A    
C38   H9    S    
C30   N4    A    
C15   O5    A    
C2    C6    S    
C42   H21   S    
C29   N2    A    
C33   H5    S    
C30   N1    A    
C34   H6    S    
C24   C25   A    
C42   H20   S    
C2    O2    A    
Cu1   N6    S    
C43   C44   S    
C18   Br2   S    
Cu2   N5    S    
C37   H13   S    
C17   C21   A    
C16   O7    A    
C32   C34   A    
C20   Br4   S    
C19   C23   A    
Cu1   Cu2   S    
C13   N6    T    
C15   C27   S    
C14   N5    T    
C21   H1    S    
C3    C35   S    
C8    C12   A    
C22   H2    S    
C18   C28   A    
C16   O6    A    
C19   C28   A    
C9    C11   A    
Cu1   O7    S    
C10   C12   A    
Cu2   O8    S    
C12   C14   S    
C44   H25   S    
C22   C26   A    
C40   H16   S    
C31   C35   A    
C40   H15   S    
C41   H23   S    
C10   C37   S    
C25   C30   S    
C21   C25   A    
C18   C22   A    
C32   H8    S    
C42   H19   S    
C20   C27   A    
C23   H3    S    
C2    O3    A    
C43   H28   S    
C11   C13   S    
C41   C42   S    
C7    C43   S    
C4    C5    T    
Cu2   O4    S    
C26   C29   S    
C37   C38   S    
C31   H7    S    
C44   H26   S    
Cu1   O5    S    
