data_mof_unit_53343.cif
_audit_creation_date              2012-12-10T17:02:58-0500
_audit_creation_method            fapswitch 2.2
_symmetry_space_group_name_H-M    P1
_symmetry_Int_Tables_number       1
_space_group_crystal_system       triclinic
_cell_length_a                    9.802581
_cell_length_b                    11.045702
_cell_length_c                    13.443088
_cell_angle_alpha                 94.254783
_cell_angle_beta                  81.500974
_cell_angle_gamma                 111.245119
_cell_volume                      1341.4122184

loop_
_atom_site_label
_atom_site_type_symbol
_atom_type_description
_atom_site_fract_x
_atom_site_fract_y
_atom_site_fract_z
_atom_type_partial_charge
C1    C     C_R   0.556477 0.745462 0.507351 0.872372
C2    C     C_R   0.432949 0.479676 0.971285 0.082831
C3    C     C_R   0.458680 0.450177 0.867182 0.085612
C4    C     C_R   0.534053 0.474667 0.035599 0.073749
C5    C     C_R   0.650559 0.429792 0.996905 0.167740
C6    C     C_R   0.663369 0.387470 0.897003 -0.247989
C7    C     C_R   0.567696 0.395510 0.833528 -0.199572
C8    C     C_R   0.523312 0.513080 0.137408 -0.242743
C9    C     C_R   0.734038 0.458302 0.161134 -0.195921
C10   C     C_R   0.373284 0.474763 0.799724 -0.103115
C11   C     C_2   0.588263 0.884594 0.511561 -0.357295
C12   C     C_R   0.421004 0.482833 0.690375 0.782408
C13   C     C_2   0.483921 0.930523 0.498792 -0.152117
C14   C     C_2   0.411484 0.115392 0.489099 -0.353789
C15   C     C_2   0.515520 0.069453 0.502601 -0.156558
C16   C     C_2   0.922297 0.489557 0.491683 -0.079049
C17   C     C_2   0.076923 0.509076 0.509291 -0.076507
C18   C     C_R   0.443442 0.254529 0.492849 0.859629
C19   C     C_R   0.577345 0.509885 0.309525 0.799005
C20   C     C_R   0.750991 0.424381 0.059390 -0.199528
C21   C     C_R   0.617556 0.499460 0.200806 -0.048137
C22   C     C_R   0.249409 0.506877 0.837996 -0.187553
C23   C     C_R   0.214673 0.522138 0.940832 -0.154436
C24   C     C_R   0.306288 0.511577 0.006853 -0.180599
Cu1   Cu    Cu3+1 0.362000 0.479240 0.482530 0.938096
Cu2   Cu    Cu3+1 0.638000 0.520760 0.517470 0.936820
H1    H     H_    0.807506 0.446718 0.209409 0.145769
H2    H     H_    0.374257 0.865435 0.485251 0.180725
H3    H     H_    0.302165 0.050029 0.475236 0.151710
H4    H     H_    0.697731 0.949963 0.525109 0.150759
H5    H     H_    0.125296 0.576526 0.568343 0.156944
H6    H     H_    0.106569 0.385360 0.400108 0.190918
H7    H     H_    0.894737 0.617076 0.598229 0.194268
H8    H     H_    0.747804 0.347660 0.867661 0.146095
H9    H     H_    0.839866 0.389950 0.030161 0.132199
H10   H     H_    0.440539 0.552044 0.170394 0.146353
H11   H     H_    0.181375 0.524109 0.788114 0.149134
H12   H     H_    0.272705 0.526302 0.085360 0.126597
H13   H     H_    0.118474 0.546616 0.969491 0.140383
H14   H     H_    0.578563 0.355159 0.758360 0.173240
H15   H     H_    0.625040 0.134535 0.516457 0.179546
N1    N     N_2   0.845330 0.551960 0.543750 -0.285905
N2    N     N_2   0.154690 0.448120 0.456210 -0.286052
O1    O     O_R   0.426290 0.668220 0.490680 -0.578330
O2    O     O_R   0.659360 0.703290 0.520190 -0.569109
O3    O     O_R   0.326580 0.473880 0.629020 -0.577997
O4    O     O_R   0.559660 0.508940 0.658530 -0.575001
O5    O     O_R   0.340640 0.296710 0.479810 -0.570818
O6    O     O_R   0.573710 0.331780 0.509320 -0.585912
O7    O     O_R   0.440340 0.491060 0.341470 -0.575768
O8    O     O_R   0.673420 0.526120 0.370980 -0.579693
H16   H     H_    0.873223 0.420836 0.433513 0.156588

loop_
_geom_bond_atom_site_label_1
_geom_bond_atom_site_label_2
_ccdc_geom_bond_type
C24   H12   S    
C23   C24   A    
C17   N2    D    
C13   H2    S    
C6    C7    A    
C16   N1    D    
C14   C18   S    
C1    O1    A    
C2    C4    A    
Cu1   O5    S    
C4    C8    A    
C9    C21   A    
Cu1   N2    S    
C14   C15   D    
C2    C3    A    
C18   O6    A    
C18   O5    A    
C3    C10   A    
Cu2   O8    S    
C10   C22   A    
C11   C13   D    
C19   O7    A    
C1    O2    A    
C16   H16   S    
C10   C12   S    
Cu2   O4    S    
C12   O4    A    
C23   H13   S    
H7    N1    S    
Cu1   O1    S    
C19   C21   S    
H6    N2    S    
C8    C21   A    
C3    C7    A    
C13   C15   S    
Cu2   N1    S    
C2    C24   A    
C5    C6    A    
C17   H5    S    
C15   H15   S    
C19   O8    A    
C9    H1    S    
C12   O3    A    
C8    H10   S    
Cu2   O6    S    
C5    C20   A    
Cu1   O7    S    
C16   C17   S    
C9    C20   A    
Cu2   O2    S    
Cu1   Cu2   S    
C7    H14   S    
C22   H11   S    
Cu1   O3    S    
C20   H9    S    
C22   C23   A    
C6    H8    S    
C11   H4    S    
C14   H3    S    
C4    C5    A    
C1    C11   S    
