data_mof_unit_33413.cif
_audit_creation_date              2012-12-10T16:53:31-0500
_audit_creation_method            fapswitch 2.2
_symmetry_space_group_name_H-M    P1
_symmetry_Int_Tables_number       1
_space_group_crystal_system       triclinic
_cell_length_a                    7.809388
_cell_length_b                    8.576047
_cell_length_c                    13.555365
_cell_angle_alpha                 92.239728
_cell_angle_beta                  78.131137
_cell_angle_gamma                 93.450904
_cell_volume                      886.501263809

loop_
_atom_site_label
_atom_site_type_symbol
_atom_type_description
_atom_site_fract_x
_atom_site_fract_y
_atom_site_fract_z
_atom_type_partial_charge
C1    C     C_R   0.545126 0.794621 0.497386 0.933658
C2    C     C_1   0.576002 0.527288 0.119523 -0.013526
C3    C     C_2   0.559938 0.956489 0.513873 -0.082090
C4    C     C_2   0.439959 0.043448 0.486256 -0.082839
C5    C     C_3   0.138288 0.585197 0.045101 0.078447
C6    C     C_3   0.012800 0.604285 0.146126 -0.709532
C7    C     C_3   0.770289 0.721721 0.927566 0.046542
C8    C     C_3   0.917165 0.740366 0.835007 -0.742416
C9    C     C_R   0.454856 0.205363 0.502643 0.943314
C10   C     C_R   0.469372 0.502211 0.687480 0.909586
C11   C     C_R   0.530767 0.498764 0.312513 0.911941
C12   C     C_1   0.557242 0.512672 0.207803 -0.166808
C13   C     C_1   0.445372 0.506227 0.792748 -0.152027
C14   C     C_2   0.577551 0.542675 0.015929 0.384154
C15   C     C_2   0.424070 0.520886 0.986931 0.366268
C16   C     C_1   0.427688 0.511923 0.881771 -0.069232
H1    H     H_    0.024940 0.377896 0.425868 0.214200
H2    H     H_    0.876864 0.680528 0.768598 0.260250
H3    H     H_    0.946252 0.866298 0.819077 0.223225
H4    H     H_    0.037740 0.689139 0.847722 0.234571
H5    H     H_    0.975122 0.622322 0.573959 0.203771
H6    H     H_    0.065316 0.529793 0.989539 0.207741
H7    H     H_    0.190383 0.704444 0.019932 0.121100
H8    H     H_    0.085094 0.654271 0.203568 0.261858
H9    H     H_    0.909920 0.684509 0.139233 0.196654
H10   H     H_    0.950205 0.488980 0.171331 0.262554
H11   H     H_    0.812140 0.783799 0.992945 0.147232
H12   H     H_    0.654003 0.777994 0.911682 0.140772
I1    I     I_    0.735630 0.028368 0.612640 -0.328797
I2    I     I_    0.263860 0.971217 0.387745 -0.324744
N1    N     N_2   0.954190 0.457600 0.473930 -0.148719
N2    N     N_2   0.045810 0.542400 0.526070 -0.149415
O1    O     O_R   0.388300 0.738660 0.506400 -0.596035
O2    O     O_3   0.735282 0.561128 0.947345 -0.622230
O3    O     O_R   0.611700 0.261340 0.493600 -0.592218
O4    O     O_R   0.679920 0.711490 0.489690 -0.603483
O5    O     O_R   0.320080 0.288510 0.510310 -0.598813
O6    O     O_R   0.333200 0.515510 0.649910 -0.616246
O7    O     O_R   0.666800 0.484490 0.350090 -0.623319
O8    O     O_R   0.624820 0.488340 0.633200 -0.601180
O9    O     O_R   0.375180 0.511660 0.366800 -0.597699
O10   O     O_3   0.271094 0.487633 0.057434 -0.617796
Zn1   Zn    Zn3+2 0.305280 0.518140 0.511160 0.997748
Zn2   Zn    Zn3+2 0.694720 0.481860 0.488840 0.993583

loop_
_geom_bond_atom_site_label_1
_geom_bond_atom_site_label_2
_ccdc_geom_bond_type
C14   O2    S    
C5    O10   S    
O5    Zn1   S    
O7    Zn2   S    
N1    N2    D    
C5    H7    S    
O8    Zn2   S    
C10   O6    A    
C2    C12   T    
C9    O5    A    
C6    H8    S    
C7    C8    S    
C8    H4    S    
C11   O7    A    
O3    Zn2   S    
O9    Zn1   S    
C3    I1    S    
C6    H10   S    
H1    N1    S    
C7    O2    S    
N2    Zn1   S    
C11   O9    A    
C5    C6    S    
C2    C14   S    
H5    N2    S    
C4    I2    S    
O4    Zn2   S    
C8    H3    S    
N1    Zn2   S    
C7    H12   S    
C1    O1    A    
C15   C16   S    
O1    Zn1   S    
O6    Zn1   S    
C7    H11   S    
C15   O10   S    
C10   O8    A    
C6    H9    S    
C13   C16   T    
C9    O3    A    
C14   C15   D    
C4    C9    S    
C1    O4    A    
C8    H2    S    
C5    H6    S    
C3    C4    D    
C11   C12   S    
C1    C3    S    
C10   C13   S    
