data_mof_unit_28562.cif
_audit_creation_date              2012-10-26T20:00:14-0400
_audit_creation_method            fapswitch 2.2
_symmetry_space_group_name_H-M    P1
_symmetry_Int_Tables_number       1
_space_group_crystal_system       triclinic
_cell_length_a                    23.566166
_cell_length_b                    10.927475
_cell_length_c                    9.961186
_cell_angle_alpha                 90.354926
_cell_angle_beta                  92.682767
_cell_angle_gamma                 94.200921
_cell_volume                      2555.3765332

loop_
_atom_site_label
_atom_site_type_symbol
_atom_type_description
_atom_site_fract_x
_atom_site_fract_y
_atom_site_fract_z
_atom_type_partial_charge
C1    C     C_R   0.497303 0.266442 0.498360 0.613967
C2    C     C_R   0.122739 0.636788 0.488631 0.390388
C3    C     C_R   0.245071 0.594826 0.375871 0.081616
C4    C     C_R   0.391477 0.503701 0.497404 0.509954
C5    C     C_R   0.304710 0.593156 0.392333 0.175536
C6    C     C_R   0.329119 0.516819 0.490665 -0.024959
C7    C     C_R   0.293461 0.456290 0.584091 0.190744
C8    C     C_R   0.234619 0.469761 0.577775 0.083564
C9    C     C_R   0.209897 0.533340 0.469274 0.166365
C10   C     C_R   0.754397 0.446101 0.372067 0.046173
C11   C     C_R   0.695524 0.430139 0.391347 0.195241
C12   C     C_R   0.968785 0.292273 0.428214 0.232616
C13   C     C_R   0.671717 0.491648 0.499524 -0.040493
C14   C     C_R   0.709151 0.557125 0.594129 0.162485
C15   C     C_R   0.768124 0.545235 0.592580 0.332975
C16   C     C_R   0.504130 0.733886 0.501802 0.526687
C17   C     C_R   0.791216 0.496268 0.477968 0.191680
C18   C     C_2   0.531852 0.945334 0.420750 -0.033812
C19   C     C_2   0.515049 0.866075 0.515517 -0.147783
C20   C     C_2   0.537432 0.075361 0.464100 0.229629
C21   C     C_2   0.490247 0.133642 0.487827 0.041359
C22   C     C_2   0.471518 0.416256 0.921668 0.176335
C23   C     C_R   0.027143 0.303931 0.408398 -0.055003
C24   C     C_2   0.469001 0.418315 0.077197 0.235719
C25   C     C_R   0.608763 0.498158 0.501540 0.547684
C26   C     C_R   0.882614 0.613736 0.474129 0.453419
C27   C     C_R   0.879423 0.394996 0.461414 0.401282
C28   C     C_R   0.939219 0.398605 0.451583 0.030043
C29   C     C_R   0.970645 0.514023 0.462796 -0.079430
C30   C     C_R   0.942224 0.621555 0.478164 -0.018314
C31   C     C_3   0.540470 0.908322 0.276441 -0.273039
C32   C     C_3   0.559343 0.015135 0.186240 -0.426873
C33   C     C_3   0.430728 0.072873 0.452941 -0.333613
C34   C     C_R   0.058563 0.417296 0.426023 -0.020902
C35   C     C_3   0.382049 0.145831 0.496944 -0.446530
C36   C     C_3   0.440320 0.304557 0.852567 -0.241905
C37   C     C_3   0.475511 0.192278 0.864155 -0.432565
C38   C     C_3   0.538959 0.595284 0.910688 -0.108750
C39   C     C_3   0.592581 0.634964 0.841021 -0.358546
C40   C     C_3   0.418606 0.345238 0.137108 -0.242987
C41   C     C_3   0.363041 0.407577 0.110159 -0.410057
C42   C     C_3   0.220027 0.665555 0.259340 -0.189508
C43   C     C_3   0.227140 0.601017 0.125958 -0.434193
C44   C     C_3   0.198673 0.411719 0.686841 -0.196937
C45   C     C_R   0.030683 0.522264 0.458506 -0.076506
C46   C     C_3   0.208506 0.483556 0.818303 -0.426998
C47   C     C_3   0.776456 0.410400 0.237199 -0.195714
C48   C     C_3   0.755998 0.494156 0.125348 -0.413673
C49   C     C_R   0.062643 0.635122 0.486800 0.033109
C50   C     C_R   0.033125 0.741290 0.511066 0.233631
C51   C     C_R   0.973756 0.734433 0.499262 -0.049058
C52   C     C_R   0.117831 0.426947 0.417453 0.384852
Cu1   Cu    Cu3+1 0.500010 0.500020 0.638630 0.929008
Cu2   Cu    Cu3+1 0.499990 0.499980 0.361370 0.956972
H1    H     H_    0.510610 0.902019 0.616598 0.102282
H2    H     H_    0.562472 0.980784 0.081882 0.133574
H3    H     H_    0.573062 0.839843 0.275243 0.154066
H4    H     H_    0.499351 0.866451 0.232495 0.174081
H5    H     H_    0.619719 0.077290 0.467407 0.338472
H6    H     H_    0.384764 0.156055 0.607846 0.140192
H7    H     H_    0.383199 0.236946 0.448334 0.135720
H8    H     H_    0.340722 0.095326 0.467201 0.173642
H9    H     H_    0.425907 0.057610 0.342410 0.151938
H10   H     H_    0.424974 0.982604 0.502436 0.152679
H11   H     H_    0.519610 0.214257 0.832526 0.195820
H12   H     H_    0.048305 0.221819 0.386551 0.203636
H13   H     H_    0.478126 0.159880 0.969356 0.122730
H14   H     H_    0.455233 0.116462 0.799799 0.141229
H15   H     H_    0.397895 0.280324 0.890823 0.124831
H16   H     H_    0.427960 0.323346 0.748827 0.205859
H17   H     H_    0.619031 0.555707 0.830866 0.213814
H18   H     H_    0.583788 0.684151 0.747379 0.194291
H19   H     H_    0.618480 0.703134 0.906139 0.107822
H20   H     H_    0.516194 0.679767 0.923544 0.169743
H21   H     H_    0.560494 0.560826 0.001606 0.145364
H22   H     H_    0.367877 0.503550 0.147656 0.243283
H23   H     H_    0.952380 0.817668 0.513872 0.202128
H24   H     H_    0.350634 0.410204 0.001657 0.155033
H25   H     H_    0.327998 0.357576 0.162813 0.136680
H26   H     H_    0.414121 0.248839 0.101367 0.089295
H27   H     H_    0.423646 0.334001 0.244917 0.203999
H28   H     H_    0.513891 0.667976 0.158456 0.334711
H29   H     H_    0.083964 0.841390 0.627497 0.357925
H30   H     H_    0.272781 0.598466 0.104355 0.194478
H31   H     H_    0.207204 0.505777 0.128190 0.165022
H32   H     H_    0.205869 0.651744 0.044088 0.137598
H33   H     H_    0.173981 0.676110 0.267195 0.172566
H34   H     H_    0.924020 0.162187 0.508120 0.367742
H35   H     H_    0.241030 0.759941 0.257807 0.194679
H36   H     H_    0.373932 0.695657 0.363021 0.349499
H37   H     H_    0.343481 0.334675 0.642216 0.314959
H38   H     H_    0.253420 0.482561 0.856903 0.197951
H39   H     H_    0.197867 0.580031 0.803060 0.164367
H40   H     H_    0.180459 0.441175 0.894389 0.136744
H41   H     H_    0.152436 0.408099 0.661277 0.150015
H42   H     H_    0.209075 0.315103 0.702436 0.193808
H43   H     H_    0.708871 0.485621 0.111413 0.201500
H44   H     H_    0.770355 0.591239 0.149513 0.166122
H45   H     H_    0.629747 0.318067 0.345754 0.378172
H46   H     H_    0.774202 0.468439 0.029178 0.152764
H47   H     H_    0.823519 0.417358 0.237200 0.162834
H48   H     H_    0.761996 0.313461 0.212492 0.208099
H49   H     H_    0.661687 0.687845 0.626421 0.320456
H50   H     H_    0.782811 0.611736 0.774198 0.363668
H51   H     H_    0.527832 0.085979 0.185001 0.160639
H52   H     H_    0.601807 0.057001 0.221493 0.190902
N1    N     N_R   0.852412 0.501680 0.469395 -0.379356
N2    N     N_R   0.148752 0.533658 0.454498 -0.406282
N3    N     N_2   0.499380 0.498660 0.846910 -0.212341
N4    N     N_2   0.499370 0.498630 0.153040 -0.109241
O1    O     O_R   0.500010 0.321960 0.617040 -0.512331
O2    O     O_R   0.582130 0.500060 0.617050 -0.495828
O3    O     O_R   0.582110 0.500020 0.382900 -0.479520
O4    O     O_2   0.854905 0.717546 0.475673 -0.448037
O5    O     O_3   0.942221 0.175992 0.421259 -0.634020
O6    O     O_3   0.662432 0.357448 0.299502 -0.695101
O7    O     O_3   0.690703 0.644153 0.678451 -0.724593
O8    O     O_3   0.804959 0.590593 0.696268 -0.639533
O9    O     O_3   0.590736 0.136376 0.483750 -0.715448
O10   O     O_3   0.481956 0.610283 0.125678 -0.627034
O11   O     O_3   0.060532 0.853559 0.544077 -0.641292
O12   O     O_2   0.848056 0.286719 0.460241 -0.469783
O13   O     O_3   0.337806 0.669808 0.312559 -0.712705
O14   O     O_3   0.314580 0.381959 0.682700 -0.723792
O15   O     O_2   0.144824 0.328943 0.378210 -0.498771
O16   O     O_2   0.155274 0.740000 0.522356 -0.484858
O17   O     O_R   0.499990 0.321920 0.382900 -0.526016
O18   O     O_R   0.417890 0.499980 0.617100 -0.488227
O19   O     O_R   0.417870 0.499940 0.382950 -0.495660
O20   O     O_R   0.500010 0.678080 0.617100 -0.512370
O21   O     O_R   0.499990 0.678040 0.382960 -0.492167

loop_
_geom_bond_atom_site_label_1
_geom_bond_atom_site_label_2
_ccdc_geom_bond_type
C30   C51   A    
C37   H14   S    
C3    C42   S    
C1    C21   S    
C47   H47   S    
H36   O13   S    
H28   O10   S    
C7    O14   S    
C26   O4    S    
C7    C8    A    
Cu1   Cu2   S    
C9    N2    S    
Cu2   O21   S    
C12   C23   A    
C12   C28   A    
C3    C9    A    
C31   H4    S    
C36   C37   S    
Cu1   O18   S    
C17   N1    S    
C38   C39   S    
C46   H38   S    
C10   C17   A    
Cu1   N3    S    
Cu2   O3    S    
Cu2   N4    S    
C18   C19   D    
C16   O21   A    
C25   O2    A    
C24   C40   S    
C31   C32   S    
C44   C46   S    
C8    C9    A    
C37   H11   S    
C39   H18   S    
C40   H26   S    
C45   C49   A    
C16   O20   A    
C12   O5    S    
Cu1   O1    S    
C47   H48   S    
C32   H52   S    
C13   C14   A    
C43   H30   S    
C13   C25   S    
H49   O7    S    
C50   O11   S    
C27   O12   S    
C36   H16   S    
H50   O8    S    
C38   H21   S    
C16   C19   S    
C48   H46   S    
C4    O18   A    
C43   H31   S    
C8    C44   S    
C24   N4    D    
C4    C6    S    
N4    O10   S    
C41   H24   S    
C29   C45   A    
C35   H6    S    
C51   H23   S    
C29   C30   A    
C44   H42   S    
C2    C49   A    
C25   O3    A    
C47   C48   S    
C46   H40   S    
C27   N1    A    
C33   H9    S    
C22   N3    D    
C50   C51   A    
C35   H7    S    
C34   C45   A    
H29   O11   S    
C38   N3    S    
C11   O6    S    
C6    C7    A    
C2    O16   S    
Cu1   O2    S    
C40   C41   S    
C26   C30   A    
H37   O14   S    
C22   C24   S    
C42   C43   S    
H45   O6    S    
C48   H44   S    
C36   H15   S    
C23   H12   S    
C38   H20   S    
C19   H1    S    
C15   C17   A    
Cu2   O19   S    
C28   C29   A    
C23   C34   A    
H5    O9    S    
C43   H32   S    
C40   H27   S    
C1    O17   A    
C3    C5    A    
C26   N1    A    
C41   H25   S    
C52   O15   S    
C4    O19   A    
C18   C31   S    
C22   C36   S    
Cu2   O17   S    
C5    O13   S    
C34   C52   A    
C15   O8    S    
C32   H51   S    
C42   H35   S    
C31   H3    S    
H34   O5    S    
C44   H41   S    
C1    O1    A    
C41   H22   S    
C11   C13   A    
C5    C6    A    
C46   H39   S    
C48   H43   S    
C33   H10   S    
C37   H13   S    
C2    N2    A    
C33   C35   S    
C35   H8    S    
C18   C20   S    
C39   H19   S    
C42   H33   S    
C10   C11   A    
C21   C33   S    
C20   C21   D    
C52   N2    A    
C49   C50   A    
C10   C47   S    
C39   H17   S    
C14   C15   A    
C14   O7    S    
Cu1   O20   S    
C32   H2    S    
C20   O9    S    
C27   C28   A    
