data_mof_unit_54398.cif
_audit_creation_date              2012-12-10T20:25:45-0500
_audit_creation_method            fapswitch 2.2
_symmetry_space_group_name_H-M    P1
_symmetry_Int_Tables_number       1
_space_group_crystal_system       triclinic
_cell_length_a                    8.584683
_cell_length_b                    10.671053
_cell_length_c                    9.867562
_cell_angle_alpha                 89.836739
_cell_angle_beta                  98.675145
_cell_angle_gamma                 89.906893
_cell_volume                      893.596537494

loop_
_atom_site_label
_atom_site_type_symbol
_atom_type_description
_atom_site_fract_x
_atom_site_fract_y
_atom_site_fract_z
_atom_type_partial_charge
C1    C     C_R   0.497414 0.260184 0.500073 0.893216
C2    C     C_R   0.382112 0.441833 0.913393 0.218240
C3    C     C_3   0.340845 0.306305 0.902124 -0.505533
C4    C     C_R   0.201183 0.498707 0.464118 0.951389
C5    C     C_3   0.342030 0.305728 0.056163 -0.531852
C6    C     C_R   0.490660 0.739809 0.498368 0.882311
C7    C     C_R   0.798839 0.499805 0.535914 0.968407
C8    C     C_2   0.035976 0.498493 0.444847 -0.392589
C9    C     C_2   0.964055 0.498835 0.555204 -0.391004
C10   C     C_R   0.524971 0.062552 0.619965 0.125582
C11   C     C_R   0.476789 0.128999 0.500204 -0.131781
C12   C     C_R   0.386321 0.938550 0.382208 0.151909
C13   C     C_R   0.394872 0.069029 0.385283 -0.274791
C14   C     C_3   0.292516 0.877129 0.257232 -0.384738
C15   C     C_3   0.143395 0.815685 0.292857 -0.838218
C16   C     C_R   0.466632 0.871795 0.497066 -0.137582
C17   C     C_R   0.520909 0.935296 0.618005 0.112092
C18   C     C_3   0.673872 0.923877 0.712481 -0.477860
C19   C     C_3   0.678343 0.065949 0.714366 -0.486974
C20   C     C_R   0.382301 0.441586 0.055909 0.229235
C21   C     C_R   0.607644 0.567434 0.085904 -0.145752
C22   C     C_R   0.607670 0.567424 0.941919 -0.134697
H1    H     H_    0.974037 0.498862 0.340168 0.180380
H2    H     H_    0.768682 0.881010 0.662388 0.195669
H3    H     H_    0.665881 0.106159 0.815971 0.201830
H4    H     H_    0.775583 0.106057 0.665218 0.198403
H5    H     H_    0.696444 0.619920 0.151677 0.147472
H6    H     H_    0.081460 0.765737 0.201832 0.239950
H7    H     H_    0.172112 0.747544 0.377789 0.253875
H8    H     H_    0.063172 0.888187 0.324421 0.250089
H9    H     H_    0.255157 0.947891 0.175785 0.191736
H10   H     H_    0.364804 0.808749 0.209676 0.228911
H11   H     H_    0.696465 0.619892 0.899103 0.144377
H12   H     H_    0.221777 0.291002 0.842686 0.200165
H13   H     H_    0.436036 0.248108 0.869575 0.219621
H14   H     H_    0.223836 0.289246 0.085767 0.198442
H15   H     H_    0.438690 0.247728 0.112254 0.218819
H16   H     H_    0.026033 0.498482 0.659876 0.177777
H17   H     H_    0.341259 0.123557 0.297704 0.158297
H18   H     H_    0.658583 0.882046 0.812946 0.203812
N1    N     N_R   0.498950 0.499140 0.142680 -0.107707
N2    N     N_R   0.498950 0.499180 0.857030 -0.107445
O1    O     O_R   0.500020 0.316790 0.614690 -0.619822
O2    O     O_R   0.500000 0.316760 0.385350 -0.623452
O3    O     O_R   0.271760 0.500010 0.587850 -0.613228
O4    O     O_R   0.271740 0.499970 0.358500 -0.624045
O5    O     O_R   0.500000 0.683240 0.614650 -0.617385
O6    O     O_R   0.499980 0.683210 0.385310 -0.625324
O7    O     O_R   0.728260 0.500030 0.641500 -0.628508
O8    O     O_R   0.728240 0.499990 0.412150 -0.613183
Zn1   Zn    Zn3+2 0.500010 0.500020 0.653130 0.937518
Zn2   Zn    Zn3+2 0.499990 0.499980 0.346870 0.933944

loop_
_geom_bond_atom_site_label_1
_geom_bond_atom_site_label_2
_ccdc_geom_bond_type
O8    Zn2   S    
C19   H4    S    
C5    H15   S    
C10   C19   S    
N1    Zn2   S    
C1    C11   S    
C3    H13   S    
N2    Zn1   S    
C4    C8    S    
O2    Zn2   S    
C2    C3    S    
C21   H5    S    
C5    C20   S    
C4    O4    A    
C21   C22   A    
C11   C13   A    
O1    Zn1   S    
C15   H6    S    
C22   N2    A    
C6    O6    A    
C2    N2    A    
C18   H2    S    
C9    H16   S    
C12   C14   S    
C15   H7    S    
C4    O3    A    
C19   H3    S    
C21   N1    A    
C13   H17   S    
C10   C11   A    
O3    Zn1   S    
C10   C17   A    
C2    C20   A    
C5    H14   S    
O4    Zn2   S    
O6    Zn2   S    
C8    H1    S    
C12   C13   A    
C7    O7    A    
C15   H8    S    
C17   C18   S    
C18   C19   S    
C6    O5    A    
C14   H10   S    
C7    C9    S    
C14   H9    S    
C18   H18   S    
C14   C15   S    
C8    C9    D    
O5    Zn1   S    
C1    O2    A    
C3    H12   S    
O7    Zn1   S    
C6    C16   S    
C1    O1    A    
C12   C16   A    
C7    O8    A    
C20   N1    A    
C16   C17   A    
C3    C5    S    
C22   H11   S    
