data_mof_unit_32743.cif
_audit_creation_date              2012-12-11T15:47:05-0500
_audit_creation_method            fapswitch 2.2
_symmetry_space_group_name_H-M    P1
_symmetry_Int_Tables_number       1
_space_group_crystal_system       triclinic
_cell_length_a                    20.034631
_cell_length_b                    7.256673
_cell_length_c                    13.599226
_cell_angle_alpha                 90.001704
_cell_angle_beta                  103.012885
_cell_angle_gamma                 89.998149
_cell_volume                      1926.34675344

loop_
_atom_site_label
_atom_site_type_symbol
_atom_type_description
_atom_site_fract_x
_atom_site_fract_y
_atom_site_fract_z
_atom_type_partial_charge
O1    O     O_R   0.449560 0.506810 0.599700 -0.535298
O2    O     O_R   0.550440 0.006810 0.400300 -0.535285
O3    O     O_R   0.587960 0.180060 0.595760 -0.545759
O4    O     O_R   0.412040 0.680060 0.404240 -0.545747
C1    C     C_R   0.614806 0.344225 0.617699 0.681277
C2    C     C_R   0.385194 0.844226 0.382301 0.681275
O5    O     O_R   0.452380 0.177430 0.611700 -0.539309
O6    O     O_R   0.547620 0.677430 0.388300 -0.539317
O7    O     O_R   0.413900 0.001890 0.416350 -0.540856
O8    O     O_R   0.586100 0.501890 0.583650 -0.540847
C3    C     C_R   0.436825 0.345786 0.637921 0.684461
C4    C     C_R   0.563175 0.845780 0.362079 0.684463
O9    O     O_3   0.487530 0.337490 0.435890 -0.378730
O10   O     O_3   0.512470 0.837490 0.564110 -0.378738
V1    V     V_3+5 0.502310 0.064660 0.511890 1.393413
V2    V     V_3+5 0.497690 0.564660 0.488110 1.393409
C5    C     C_R   0.607402 0.880423 0.107496 -0.169427
C6    C     C_R   0.392598 0.380313 0.892510 -0.169428
H1    H     H_    0.692351 0.896943 0.983573 0.119164
H2    H     H_    0.307650 0.396631 0.016443 0.119165
H3    H     H_    0.583261 0.892270 0.028136 0.113554
H4    H     H_    0.416740 0.392151 0.971871 0.113525
C7    C     C_R   0.601140 0.854751 0.282251 -0.062810
C8    C     C_R   0.398859 0.354758 0.717749 -0.062817
C9    C     C_R   0.933355 0.844597 0.318512 0.072993
C10   C     C_R   0.066645 0.344606 0.681486 0.072990
C11   C     C_R   0.895588 0.835277 0.393537 -0.126094
C12   C     C_R   0.104412 0.335197 0.606463 -0.126081
C13   C     C_R   0.824198 0.840234 0.368908 -0.197194
C14   C     C_R   0.175803 0.340074 0.631096 -0.197184
C15   C     C_R   0.786866 0.854777 0.267559 0.082011
C16   C     C_R   0.213135 0.354602 0.732448 0.082007
C17   C     C_R   0.824477 0.864874 0.190697 0.048080
C18   C     C_R   0.175524 0.364721 0.809310 0.048080
C19   C     C_R   0.713493 0.859588 0.239912 0.075800
C20   C     C_R   0.286508 0.359406 0.760095 0.075802
C21   C     C_R   0.679489 0.875088 0.136604 0.112024
C22   C     C_R   0.320513 0.374882 0.863406 0.112026
C23   C     C_R   0.717659 0.885130 0.062665 -0.205882
C24   C     C_R   0.282342 0.384859 0.937349 -0.205904
C25   C     C_R   0.788749 0.880001 0.088967 -0.177868
C26   C     C_R   0.211252 0.379771 0.911044 -0.177860
C27   C     C_R   0.672563 0.849506 0.311393 -0.236750
C28   C     C_R   0.327438 0.349371 0.688612 -0.236745
C29   C     C_R   0.567162 0.870303 0.179832 0.069020
C30   C     C_R   0.432837 0.370379 0.820165 0.069024
C31   C     C_R   0.897226 0.859542 0.216677 -0.107919
C32   C     C_R   0.102774 0.359503 0.783324 -0.107923
H5    H     H_    0.694399 0.837614 0.391107 0.102122
H6    H     H_    0.305603 0.337440 0.608899 0.102123
H7    H     H_    0.799977 0.832423 0.431836 0.115139
H8    H     H_    0.200025 0.332220 0.568168 0.115139
H9    H     H_    0.920670 0.824038 0.472469 0.117956
H10   H     H_    0.079332 0.323964 0.527529 0.117960
H11   H     H_    0.815441 0.888204 0.028185 0.116280
H12   H     H_    0.184560 0.387962 0.971827 0.116277
C33   C     C_R   0.217008 0.023144 0.224309 -0.160207
C34   C     C_R   0.782984 0.523146 0.775707 -0.160099
H13   H     H_    0.192706 0.155941 0.206146 0.119792
H14   H     H_    0.807280 0.655946 0.793884 0.119765
C35   C     C_R   0.282435 0.018743 0.287527 -0.168407
C36   C     C_R   0.717557 0.518744 0.712489 -0.168273
H15   H     H_    0.306286 0.147720 0.316259 0.118745
H16   H     H_    0.693700 0.647723 0.683771 0.118713
C37   C     C_R   0.316286 0.850212 0.313483 -0.032014
C38   C     C_R   0.683714 0.350210 0.686516 -0.032009
C39   C     C_R   0.283118 0.686191 0.274162 -0.164217
C40   C     C_R   0.716890 0.186189 0.725821 -0.164343
H17   H     H_    0.307538 0.553520 0.292289 0.118687
H18   H     H_    0.692476 0.053516 0.707679 0.118709
C41   C     C_R   0.217695 0.690551 0.210929 -0.164465
C42   C     C_R   0.782313 0.190550 0.789054 -0.164573
H19   H     H_    0.193967 0.561481 0.182115 0.118639
H20   H     H_    0.806046 0.061479 0.817854 0.118667
C43   C     C_R   0.183682 0.859058 0.185281 -0.028958
C44   C     C_R   0.816318 0.359060 0.814719 -0.028963
O11   O     O_R   0.913920 0.203370 0.916260 -0.539832
O12   O     O_R   0.086080 0.703370 0.083740 -0.539827
O13   O     O_R   0.047620 0.535540 0.888290 -0.538801
O14   O     O_R   0.952380 0.035540 0.111710 -0.538805
C45   C     C_R   0.064020 0.368298 0.862793 0.677660
C46   C     C_R   0.935980 0.868306 0.137207 0.677659
O15   O     O_R   0.912040 0.532780 0.904220 -0.545560
O16   O     O_R   0.087960 0.032780 0.095780 -0.545565
O17   O     O_R   0.949550 0.708160 0.099720 -0.535462
O18   O     O_R   0.050450 0.208160 0.900280 -0.535464
C47   C     C_R   0.885505 0.364905 0.882945 0.674023
C48   C     C_R   0.114495 0.864904 0.117056 0.674026
O19   O     O_3   0.012480 0.375300 0.064060 -0.378225
O20   O     O_3   0.987520 0.875300 0.935940 -0.378222
V3    V     V_3+5 0.997690 0.648180 0.988110 1.394440
V4    V     V_3+5 0.002310 0.148180 0.011890 1.394435
C49   C     C_3   0.488875 0.874604 0.152369 -0.370302
C50   C     C_3   0.454362 0.898833 0.040114 -0.332519
C51   C     C_3   0.376427 0.903421 0.024173 -0.727468
H21   H     H_    0.357439 0.772158 0.049930 0.227161
H22   H     H_    0.360372 0.020038 0.066524 0.226031
H23   H     H_    0.352880 0.921894 0.942668 0.228011
H24   H     H_    0.471144 0.029482 0.011483 0.195634
H25   H     H_    0.468133 0.783693 0.995159 0.193310
H26   H     H_    0.469926 0.743994 0.179135 0.167987
H27   H     H_    0.471704 0.989901 0.194612 0.172158
C52   C     C_3   0.511120 0.375118 0.847607 -0.370278
C53   C     C_3   0.545630 0.398873 0.959897 -0.332529
C54   C     C_3   0.623558 0.404387 0.975789 -0.727442
H28   H     H_    0.642731 0.273662 0.949689 0.227250
H29   H     H_    0.639419 0.521674 0.933715 0.225912
H30   H     H_    0.647104 0.422349 0.057331 0.228008
H31   H     H_    0.528664 0.529032 0.988822 0.195703
H32   H     H_    0.532047 0.283135 0.004615 0.193254
H33   H     H_    0.530177 0.244823 0.820644 0.167870
H34   H     H_    0.528182 0.490808 0.805523 0.172294
C55   C     C_3   0.011708 0.839338 0.343265 -0.370961
C56   C     C_3   0.047668 0.819672 0.455252 -0.328217
C57   C     C_3   0.125428 0.814026 0.468869 -0.737373
H35   H     H_    0.140682 0.694801 0.427566 0.225616
H36   H     H_    0.144047 0.943386 0.440443 0.226751
H37   H     H_    0.150007 0.799329 0.550261 0.226934
H38   H     H_    0.034605 0.937933 0.498972 0.192922
H39   H     H_    0.031230 0.690449 0.486226 0.194612
H40   H     H_    0.027943 0.721585 0.301761 0.174440
H41   H     H_    0.030366 0.968238 0.314229 0.170024
C58   C     C_3   0.988291 0.339526 0.656727 -0.370946
C59   C     C_3   0.952333 0.319716 0.544744 -0.328221
C60   C     C_3   0.874568 0.314493 0.531114 -0.737388
H42   H     H_    0.859233 0.195627 0.572589 0.225690
H43   H     H_    0.856028 0.444158 0.559334 0.226701
H44   H     H_    0.849994 0.299469 0.449736 0.226935
H45   H     H_    0.965471 0.437753 0.500941 0.192933
H46   H     H_    0.968695 0.190292 0.513870 0.194593
H47   H     H_    0.972018 0.221901 0.698277 0.174368
H48   H     H_    0.969671 0.468540 0.685706 0.170083

loop_
_geom_bond_atom_site_label_1
_geom_bond_atom_site_label_2
_ccdc_geom_bond_type
C34   C36   A    
O15   C47   A    
O11   V4    S    
O4    V2    S    
C49   C50   S    
C7    C29   A    
C58   H48   S    
C11   C13   A    
C54   H28   S    
C38   C40   A    
C51   H21   S    
O1    C3    A    
C42   C44   A    
C29   C49   S    
C2    O7    A    
C56   C57   S    
O17   V3    S    
C51   H23   S    
C34   C44   A    
C58   C59   S    
C23   C25   A    
O5    C3    A    
C54   H29   S    
C4    C7    S    
C16   C20   A    
C19   C21   A    
C5    C29   A    
C53   H31   S    
H2    C24   S    
C33   H13   S    
O12   C48   A    
C57   H35   S    
C3    C8    S    
C7    C27   A    
C32   C45   S    
C52   H33   S    
C31   C46   S    
C35   H15   S    
C25   H11   S    
C36   H16   S    
C26   H12   S    
C2    C37   S    
C55   H41   S    
C37   C39   A    
C18   C26   A    
C60   H44   S    
C15   C17   A    
C14   C16   A    
C19   C27   A    
C9    C31   A    
O13   V3    S    
C56   H38   S    
C10   C32   A    
C24   C26   A    
O2    C4    A    
O6    V2    S    
C6    C30   A    
C53   C54   S    
C21   C23   A    
C54   H30   S    
C41   C43   A    
C36   C38   A    
C42   H20   S    
C49   H26   S    
O13   C45   A    
C12   H10   S    
C27   H5    S    
O5    V1    S    
C57   H36   S    
C5    H3    S    
C40   C42   A    
C39   H17   S    
C16   C18   A    
O14   V4    S    
C9    C55   S    
C50   H25   S    
O6    C4    A    
C57   H37   S    
C51   H22   S    
C45   O18   A    
C59   H46   S    
O1    V2    S    
C5    C21   A    
O19   V4    S    
O2    V1    S    
C44   C47   S    
H1    C23   S    
O4    C2    A    
C60   H42   S    
C17   C31   A    
C15   C19   A    
C20   C28   A    
C18   C32   A    
C10   C58   S    
O3    V1    S    
C53   H32   S    
C41   H19   S    
C55   C56   S    
C13   H7    S    
C28   H6    S    
C14   H8    S    
C58   H47   S    
C6    H4    S    
O16   C48   A    
C1    C38   S    
O3    C1    A    
C49   H27   S    
C11   H9    S    
C33   C35   A    
O12   V3    S    
C9    C11   A    
C46   O17   A    
O15   V3    S    
C30   C52   S    
C10   C12   A    
C8    C30   A    
C33   C43   A    
C20   C22   A    
C6    C22   A    
C17   C25   A    
C1    O8    A    
C13   C15   A    
O8    V2    S    
C22   C24   A    
O20   V3    S    
C50   H24   S    
C8    C28   A    
C12   C14   A    
O14   C46   A    
C59   H45   S    
C39   C41   A    
O7    V1    S    
C50   C51   S    
C35   C37   A    
C43   C48   S    
C55   H40   S    
O11   C47   A    
C40   H18   S    
O9    V2    S    
C52   C53   S    
C60   H43   S    
O10   V1    S    
C52   H34   S    
O18   V4    S    
O16   V4    S    
C34   H14   S    
C56   H39   S    
C59   C60   S    
