data_mof_unit_55692.cif
_audit_creation_date              2012-10-26T19:15:28-0400
_audit_creation_method            fapswitch 2.2
_symmetry_space_group_name_H-M    P1
_symmetry_Int_Tables_number       1
_space_group_crystal_system       triclinic
_cell_length_a                    15.969193
_cell_length_b                    10.781991
_cell_length_c                    9.597474
_cell_angle_alpha                 89.963666
_cell_angle_beta                  89.990228
_cell_angle_gamma                 91.038529
_cell_volume                      1652.21833898

loop_
_atom_site_label
_atom_site_type_symbol
_atom_type_description
_atom_site_fract_x
_atom_site_fract_y
_atom_site_fract_z
_atom_type_partial_charge
C1    C     C_R   0.499285 0.262696 0.499839 0.549616
C2    C     C_R   0.554976 0.936988 0.412521 -0.160615
C3    C     C_R   0.497520 0.870509 0.496073 0.008407
C4    C     C_R   0.341406 0.500286 0.500017 0.560936
C5    C     C_R   0.432803 0.934344 0.559795 -0.009174
C6    C     C_3   0.394031 0.925616 0.701026 -0.099588
C7    C     C_3   0.395498 0.067447 0.703224 -0.283977
C8    C     C_R   0.506248 0.608683 0.072968 0.175939
C9    C     C_R   0.485778 0.393946 0.074145 -0.014551
C10   C     C_R   0.485774 0.393979 0.926033 -0.012782
C11   C     C_R   0.506294 0.608741 0.926777 0.187304
C12   C     C_R   0.045294 0.535650 0.625549 -0.063290
C13   C     C_3   0.570998 0.712100 0.920237 -0.135034
C14   C     C_3   0.570380 0.712447 0.080482 -0.140549
C15   C     C_R   0.499489 0.737316 0.499673 0.539893
C16   C     C_R   0.658569 0.500462 0.500055 0.534370
C17   C     C_R   0.957314 0.536683 0.628732 0.032767
C18   C     C_R   0.912673 0.507192 0.505518 0.000430
C19   C     C_R   0.955660 0.478257 0.382932 -0.105037
C20   C     C_R   0.042828 0.477645 0.381458 -0.103355
C21   C     C_R   0.087541 0.506007 0.502644 0.004355
C22   C     C_3   0.653858 0.679989 0.848835 -0.365277
C23   C     C_1   0.822867 0.504821 0.502256 -0.081818
C24   C     C_3   0.653218 0.681173 0.152399 -0.363260
C25   C     C_2   0.913163 0.568145 0.760107 0.218627
C26   C     C_2   0.307517 0.868825 0.695469 0.240438
C27   C     C_1   0.177096 0.503988 0.501205 -0.041604
C28   C     C_1   0.252214 0.502141 0.500340 0.002891
C29   C     C_1   0.747736 0.502641 0.500473 -0.044606
C30   C     C_R   0.433402 0.061855 0.561201 -0.015671
C31   C     C_R   0.497659 0.129472 0.496647 0.020618
C32   C     C_R   0.554789 0.066556 0.412271 -0.152002
Cu1   Cu    Cu3+1 0.500000 0.499980 0.640670 0.957278
Cu2   Cu    Cu3+1 0.500000 0.500020 0.359330 0.940848
H1    H     H_    0.081153 0.557563 0.718530 0.176521
H2    H     H_    0.602322 0.889499 0.353429 0.107653
H3    H     H_    0.435287 0.883885 0.780183 0.144340
H4    H     H_    0.332713 0.110447 0.701822 0.133084
H5    H     H_    0.647802 0.694381 0.735214 0.169339
H6    H     H_    0.704452 0.744900 0.882889 0.120517
H7    H     H_    0.672387 0.583170 0.871167 0.156946
H8    H     H_    0.703176 0.747905 0.120032 0.119360
H9    H     H_    0.646751 0.693262 0.266079 0.167204
H10   H     H_    0.672889 0.585207 0.128459 0.163762
H11   H     H_    0.845301 0.569949 0.763845 0.106367
H12   H     H_    0.439683 0.106412 0.781844 0.124979
H13   H     H_    0.261533 0.903239 0.622329 0.115326
H14   H     H_    0.475197 0.307222 0.128207 0.126499
H15   H     H_    0.475251 0.307440 0.872117 0.117009
H16   H     H_    0.545222 0.799063 0.878170 0.114573
H17   H     H_    0.542738 0.798609 0.122692 0.128087
H18   H     H_    0.921616 0.455683 0.288324 0.135769
H19   H     H_    0.075342 0.454705 0.286033 0.135340
H20   H     H_    0.601627 0.117247 0.352293 0.123193
N1    N     N_R   0.500520 0.500930 0.147930 -0.233175
N2    N     N_R   0.500520 0.500890 0.852020 -0.229601
O1    O     O_R   0.500000 0.319640 0.618810 -0.511650
O2    O     O_2   0.288509 0.782974 0.772830 -0.489071
O3    O     O_R   0.500010 0.319680 0.381230 -0.513387
O4    O     O_R   0.380300 0.499950 0.618760 -0.466832
O5    O     O_R   0.380310 0.499990 0.381180 -0.488284
O6    O     O_R   0.499990 0.680320 0.618770 -0.502257
O7    O     O_R   0.500000 0.680360 0.381190 -0.507404
O8    O     O_R   0.619690 0.500010 0.618820 -0.508843
O9    O     O_R   0.619700 0.500050 0.381240 -0.505872
O10   O     O_2   0.952160 0.592607 0.866347 -0.512019

loop_
_geom_bond_atom_site_label_1
_geom_bond_atom_site_label_2
_ccdc_geom_bond_type
C12   C17   A    
Cu1   O1    S    
C23   C29   T    
C6    C7    S    
C9    N1    A    
C1    O1    A    
C10   H15   S    
C24   H8    S    
C9    C10   A    
C19   H18   S    
C31   C32   A    
C8    C11   A    
C30   C31   A    
C22   H6    S    
C4    O4    A    
Cu1   N2    S    
C17   C18   A    
C21   C27   S    
C6    H3    S    
C17   C25   S    
Cu2   N1    S    
C7    C30   S    
C13   C14   S    
C12   H1    S    
C11   C13   S    
C6    C26   S    
C26   H13   S    
Cu1   O8    S    
C15   O6    A    
C22   H5    S    
C12   C21   A    
C8    N1    A    
C32   H20   S    
Cu2   O7    S    
C4    C28   S    
C7    H4    S    
C13   C22   S    
Cu1   Cu2   S    
Cu1   O4    S    
C2    C3    A    
C1    O3    A    
C14   H17   S    
C18   C23   S    
C5    C6    S    
C24   H10   S    
C22   H7    S    
C25   O10   D    
C14   C24   S    
C13   H16   S    
C7    H12   S    
C25   H11   S    
C1    C31   S    
C10   N2    A    
C20   C21   A    
Cu2   O9    S    
C9    H14   S    
C2    C32   A    
C18   C19   A    
C5    C30   A    
C2    H2    S    
C27   C28   T    
C24   H9    S    
C15   O7    A    
Cu1   O6    S    
C3    C15   S    
C8    C14   S    
C16   O9    A    
C16   O8    A    
C16   C29   S    
Cu2   O3    S    
C4    O5    A    
C26   O2    D    
Cu2   O5    S    
C11   N2    A    
C19   C20   A    
C20   H19   S    
C3    C5    A    
