data_mof_unit_33282.cif
_audit_creation_date              2012-12-10T17:16:35-0500
_audit_creation_method            fapswitch 2.2
_symmetry_space_group_name_H-M    P1
_symmetry_Int_Tables_number       1
_space_group_crystal_system       triclinic
_cell_length_a                    10.510842
_cell_length_b                    10.765545
_cell_length_c                    10.54084
_cell_angle_alpha                 95.441576
_cell_angle_beta                  93.353659
_cell_angle_gamma                 80.62414
_cell_volume                      1170.38483013

loop_
_atom_site_label
_atom_site_type_symbol
_atom_type_description
_atom_site_fract_x
_atom_site_fract_y
_atom_site_fract_z
_atom_type_partial_charge
C1    C     C_R   0.447646 0.500589 0.265622 0.781160
C2    C     C_R   0.552452 0.492546 0.733309 0.782252
C3    C     C_2   0.424391 0.474565 0.127850 0.346519
C4    C     C_2   0.577508 0.484933 0.868796 0.348005
C5    C     C_2   0.520378 0.404928 0.061211 -0.266856
C6    C     C_2   0.522218 0.400822 0.923351 -0.251679
C7    C     C_2   0.068526 0.506636 0.471720 0.556972
C8    C     C_2   0.921294 0.526167 0.500155 0.569774
C9    C     C_R   0.504797 0.263087 0.517079 0.843664
C10   C     C_R   0.499777 0.740841 0.501251 0.849277
C11   C     C_R   0.752709 0.078025 0.532740 -0.244586
C12   C     C_R   0.356155 0.910765 0.698442 -0.203332
C13   C     C_R   0.855985 0.997454 0.478221 -0.337402
C14   C     C_R   0.263061 0.990751 0.769076 -0.290176
C15   C     C_R   0.833545 0.888430 0.400324 0.602963
C16   C     C_R   0.235770 0.119381 0.750223 0.514879
C17   C     C_R   0.710061 0.854431 0.398897 -0.132342
C18   C     C_R   0.320813 0.169124 0.680283 -0.270653
C19   C     C_R   0.612084 0.924909 0.475171 -0.025456
C20   C     C_R   0.416663 0.088810 0.608605 0.012529
C21   C     C_R   0.627470 0.047504 0.518935 0.084787
C22   C     C_R   0.422527 0.957013 0.605801 0.086926
C23   C     C_R   0.506040 0.876621 0.520134 -0.194684
C24   C     C_R   0.516499 0.133559 0.551610 -0.183372
H1    H     H_    0.771553 0.163947 0.586247 0.186061
H2    H     H_    0.384872 0.815797 0.724131 0.156097
H3    H     H_    0.693637 0.771126 0.340137 0.170897
H4    H     H_    0.313467 0.270489 0.690610 0.190422
H5    H     H_    0.477609 0.329148 0.865704 0.108735
H6    H     H_    0.608470 0.363721 0.109131 0.146877
N1    N     N_2   0.157300 0.551390 0.551120 -0.014706
N2    N     N_2   0.842700 0.448610 0.448880 -0.021097
O1    O     O_R   0.568940 0.489660 0.307530 -0.652783
O2    O     O_R   0.431060 0.510340 0.692470 -0.669278
O3    O     O_R   0.348880 0.522640 0.340350 -0.585138
O4    O     O_R   0.651120 0.477360 0.659650 -0.633632
O5    O     O_R   0.610030 0.300280 0.483580 -0.663061
O6    O     O_R   0.389970 0.699720 0.516420 -0.631056
O7    O     O_R   0.389970 0.333270 0.516400 -0.672136
O8    O     O_R   0.610030 0.666730 0.483600 -0.559439
Zn1   Zn    Zn3+2 0.646940 0.477980 0.478080 0.939214
Zn2   Zn    Zn3+2 0.353060 0.522020 0.521920 0.928561
O9    O     O_3   0.138091 0.202004 0.811217 -0.639853
C25   C     C_3   0.022711 0.149475 0.808752 0.096232
H7    H     H_    0.018607 0.104202 0.898628 0.156306
H8    H     H_    0.013097 0.078476 0.725875 0.137666
C26   C     C_3   0.907558 0.254204 0.799032 -0.870801
H9    H     H_    0.906769 0.297246 0.707242 0.246107
H10   H     H_    0.816559 0.215778 0.805570 0.209808
H11   H     H_    0.912924 0.328359 0.877677 0.238778
O10   O     O_3   0.926192 0.808269 0.328580 -0.628805
C27   C     C_3   0.046807 0.850637 0.331715 0.032534
H12   H     H_    0.093422 0.847269 0.429232 0.172727
H13   H     H_    0.036030 0.947522 0.299802 0.134426
C28   C     C_3   0.134878 0.764221 0.240578 -0.706892
H14   H     H_    0.094156 0.769954 0.141393 0.238898
H15   H     H_    0.232019 0.792941 0.246657 0.208096
H16   H     H_    0.144047 0.665663 0.266169 0.304393
H17   H     H_    0.950103 0.025963 0.492350 0.121989
H18   H     H_    0.214974 0.954936 0.841625 0.146806
O11   O     O_3   0.623499 0.584787 0.939848 -0.613511
C29   C     C_3   0.747528 0.544030 0.994494 0.051970
H19   H     H_    0.822407 0.556442 0.929521 0.134225
H20   H     H_    0.763752 0.443784 0.016186 0.145454
C30   C     C_3   0.765610 0.624438 0.118133 -0.719458
H21   H     H_    0.857578 0.587886 0.168790 0.257507
H22   H     H_    0.766092 0.723947 0.098612 0.239310
H23   H     H_    0.684949 0.620666 0.179736 0.268813
O12   O     O_3   0.305367 0.518242 0.070639 -0.621028
C31   C     C_3   0.238502 0.414529 0.040274 0.165667
H24   H     H_    0.251552 0.348823 0.116916 0.128278
H25   H     H_    0.273228 0.360217 0.950809 0.171906
C32   C     C_3   0.094973 0.461324 0.021313 -0.766514
H26   H     H_    0.071193 0.480847 0.920541 0.239182
H27   H     H_    0.039568 0.388188 0.044569 0.219140
H28   H     H_    0.065011 0.547696 0.084754 0.267266
O13   O     O_3   0.865238 0.644086 0.555508 -0.612228
C33   C     C_3   0.847609 0.643040 0.687585 0.163603
H29   H     H_    0.927933 0.676688 0.740381 0.207555
H30   H     H_    0.843250 0.548370 0.718202 0.127657
C34   C     C_3   0.736569 0.743666 0.734301 -0.772156
H31   H     H_    0.642099 0.712726 0.714862 0.254552
H32   H     H_    0.747334 0.764108 0.839331 0.208849
H33   H     H_    0.738461 0.833044 0.690716 0.254643
O14   O     O_3   0.103627 0.442744 0.354363 -0.619125
C35   C     C_3   0.178042 0.322670 0.371291 0.212969
H34   H     H_    0.182610 0.295913 0.471357 0.141214
H35   H     H_    0.273544 0.323368 0.333805 0.185917
C36   C     C_3   0.131019 0.214429 0.289882 -0.914326
H36   H     H_    0.212436 0.135480 0.273773 0.196884
H37   H     H_    0.059701 0.176860 0.342338 0.250460
H38   H     H_    0.092717 0.244282 0.195877 0.292664
O15   O     O_3   0.883875 0.382791 0.338449 -0.548819
C37   C     C_3   0.813846 0.281981 0.308845 0.246485
H39   H     H_    0.711094 0.314440 0.303110 0.209479
H40   H     H_    0.837258 0.214513 0.381663 0.138215
C38   C     C_3   0.843320 0.212929 0.177375 -0.992539
H41   H     H_    0.918255 0.128439 0.184258 0.247568
H42   H     H_    0.756239 0.176958 0.133415 0.219128
H43   H     H_    0.874006 0.276628 0.112814 0.272354
O16   O     O_3   0.113995 0.574993 0.670881 -0.657697
C39   C     C_3   0.200324 0.633529 0.753131 0.254042
H44   H     H_    0.261124 0.681892 0.699989 0.194839
H45   H     H_    0.255379 0.561177 0.811727 0.217414
C40   C     C_3   0.130788 0.732623 0.848950 -1.006017
H46   H     H_    0.065282 0.691802 0.905848 0.258457
H47   H     H_    0.203103 0.769126 0.917359 0.249423
H48   H     H_    0.074496 0.811483 0.798973 0.248212

loop_
_geom_bond_atom_site_label_1
_geom_bond_atom_site_label_2
_ccdc_geom_bond_type
C28   H14   S    
O15   C37   S    
N1    Zn2   S    
C32   H26   S    
C2    C4    S    
O2    Zn2   S    
C38   H43   S    
C38   H41   S    
C1    O1    A    
C7    C8    S    
C26   H10   S    
O13   C33   S    
C25   H7    S    
C40   H47   S    
O16   C39   S    
N1    O16   S    
C3    O12   S    
O6    Zn2   S    
O12   C31   S    
C5    C6    S    
C33   H30   S    
C11   H1    S    
C12   C22   A    
C9    O7    A    
C39   C40   S    
C10   O8    A    
O3    Zn2   S    
C29   H20   S    
C38   H42   S    
C20   C24   A    
C27   H13   S    
C30   H22   S    
N2    Zn1   S    
C31   H24   S    
C15   O10   S    
O7    Zn2   S    
C18   C20   A    
C27   C28   S    
C37   H40   S    
C2    O2    A    
N2    O15   S    
C32   H27   S    
O4    Zn1   S    
C39   H44   S    
C34   H32   S    
C25   H8    S    
C34   H31   S    
C26   H11   S    
C40   H48   S    
C7    N1    D    
O10   C27   S    
C17   H3    S    
C18   H4    S    
C4    C6    D    
C35   H34   S    
C37   C38   S    
O14   C35   S    
C4    O11   S    
C11   C21   A    
C12   H2    S    
C1    C3    S    
C8    N2    D    
C19   C23   A    
O9    C25   S    
C29   H19   S    
C26   H9    S    
C30   H23   S    
C31   C32   S    
C9    O5    A    
C37   H39   S    
C36   H38   S    
C39   H45   S    
C16   O9    S    
O8    Zn1   S    
C20   C22   A    
C13   C15   A    
C8    O13   S    
C32   H28   S    
C14   C16   A    
C28   H16   S    
C36   H37   S    
C34   H33   S    
C27   H12   S    
C1    O3    A    
C5    H6    S    
C2    O4    A    
C15   C17   A    
C29   C30   S    
C19   C21   A    
C33   H29   S    
C12   C14   A    
C3    C5    D    
C35   C36   S    
C25   C26   S    
C9    C24   S    
C13   H17   S    
C10   C23   S    
C14   H18   S    
C40   H46   S    
C10   O6    A    
O1    Zn1   S    
C28   H15   S    
C11   C13   A    
C33   C34   S    
C7    O14   S    
C17   C19   A    
C35   H35   S    
O5    Zn1   S    
O11   C29   S    
C6    H5    S    
C16   C18   A    
C30   H21   S    
C21   C24   A    
C22   C23   A    
C31   H25   S    
C36   H36   S    
