data_mof_unit_32516.cif
_audit_creation_date              2012-10-26T18:59:37-0400
_audit_creation_method            fapswitch 2.2
_symmetry_space_group_name_H-M    P1
_symmetry_Int_Tables_number       1
_space_group_crystal_system       triclinic
_cell_length_a                    23.484939
_cell_length_b                    10.906744
_cell_length_c                    9.539273
_cell_angle_alpha                 90.093844
_cell_angle_beta                  90.130713
_cell_angle_gamma                 90.382082
_cell_volume                      2443.36559165

loop_
_atom_site_label
_atom_site_type_symbol
_atom_type_description
_atom_site_fract_x
_atom_site_fract_y
_atom_site_fract_z
_atom_type_partial_charge
C1    C     C_R   0.498383 0.262432 0.499181 0.577960
C2    C     C_R   0.119577 0.562107 0.600830 0.405775
C3    C     C_R   0.239548 0.453414 0.620143 -0.047088
C4    C     C_R   0.390962 0.499359 0.499996 0.575677
C5    C     C_R   0.298889 0.456161 0.619561 -0.122172
C6    C     C_R   0.328426 0.497306 0.500520 0.015520
C7    C     C_R   0.297725 0.536420 0.382546 -0.142691
C8    C     C_R   0.238348 0.534797 0.383817 -0.055273
C9    C     C_R   0.208935 0.493117 0.502524 0.235530
C10   C     C_R   0.759226 0.405430 0.554553 -0.078382
C11   C     C_R   0.700244 0.408108 0.557220 -0.155958
C12   C     C_R   0.968667 0.351872 0.307566 -0.114920
C13   C     C_R   0.671017 0.507700 0.500935 -0.026717
C14   C     C_R   0.701122 0.608912 0.443786 -0.038694
C15   C     C_R   0.761681 0.606604 0.442474 0.072974
C16   C     C_R   0.500058 0.737483 0.499378 0.555097
C17   C     C_R   0.790163 0.503040 0.497593 0.225690
C18   C     C_R   0.517690 0.063476 0.611230 0.015063
C19   C     C_R   0.499112 0.129064 0.494418 -0.012762
C20   C     C_R   0.485427 0.062577 0.370142 -0.009258
C21   C     C_R   0.489611 0.934002 0.368689 0.260939
C22   C     C_R   0.502328 0.870439 0.494374 0.002998
C23   C     C_R   0.028073 0.350483 0.308245 -0.115414
C24   C     C_R   0.520118 0.937931 0.610579 -0.056212
C25   C     C_3   0.507317 0.927711 0.763341 -0.252040
C26   C     C_3   0.503848 0.067611 0.765143 -0.089194
C27   C     C_R   0.537839 0.571170 0.073725 0.095964
C28   C     C_R   0.608766 0.502162 0.500209 0.517906
C29   C     C_R   0.458450 0.439174 0.074715 0.363670
C30   C     C_R   0.459740 0.437536 0.924307 -0.012499
C31   C     C_R   0.537602 0.571829 0.926490 0.124566
C32   C     C_3   0.600931 0.564678 0.920367 -0.259396
C33   C     C_3   0.601165 0.563673 0.079054 -0.271461
C34   C     C_R   0.058892 0.420538 0.406571 0.031410
C35   C     C_R   0.880104 0.563916 0.601833 0.426573
C36   C     C_R   0.879148 0.427165 0.405715 0.442784
C37   C     C_R   0.938838 0.422919 0.405589 0.035640
C38   C     C_R   0.969302 0.492592 0.505496 -0.023471
C39   C     C_R   0.939818 0.563496 0.604935 0.038193
C40   C     C_2   0.668370 0.715374 0.388811 0.179330
C41   C     C_2   0.795263 0.713321 0.390598 0.326970
C42   C     C_2   0.462099 0.121747 0.243077 0.310598
C43   C     C_3   0.522707 0.871203 0.156954 -0.088185
C44   C     C_2   0.445100 0.111845 0.803655 0.232636
C45   C     C_R   0.029400 0.491747 0.505611 -0.026902
C46   C     C_3   0.364331 0.372068 0.088800 -0.100684
C47   C     C_R   0.059860 0.562564 0.604361 0.030864
C48   C     C_R   0.030018 0.632597 0.703385 -0.115572
C49   C     C_R   0.970615 0.632772 0.703929 -0.112931
C50   C     C_R   0.118644 0.421354 0.408492 0.406060
Cu1   Cu    Cu3+1 0.500000 0.499980 0.640670 0.954720
Cu2   Cu    Cu3+1 0.500000 0.500020 0.359330 1.024863
H1    H     H_    0.946243 0.297389 0.229819 0.173529
H2    H     H_    0.616634 0.475756 0.123452 0.165103
H3    H     H_    0.620728 0.647487 0.124664 0.175808
H4    H     H_    0.052435 0.687601 0.780666 0.174698
H5    H     H_    0.948953 0.687971 0.781497 0.178237
H6    H     H_    0.217284 0.420366 0.712056 0.144295
H7    H     H_    0.321641 0.424880 0.711592 0.132759
H8    H     H_    0.319586 0.569789 0.290205 0.140343
H9    H     H_    0.215133 0.566596 0.292810 0.146977
H10   H     H_    0.781270 0.327262 0.598033 0.140398
H11   H     H_    0.626444 0.735253 0.430208 0.110170
H12   H     H_    0.677132 0.331020 0.601357 0.122863
H13   H     H_    0.779968 0.805870 0.406422 0.152392
H14   H     H_    0.488201 0.184343 0.182315 0.111714
H15   H     H_    0.511189 0.819586 0.060804 0.135565
H16   H     H_    0.559933 0.825464 0.206132 0.134871
H17   H     H_    0.534827 0.965420 0.123702 0.080844
H18   H     H_    0.433442 0.116603 0.913411 0.136284
H19   H     H_    0.361050 0.302165 0.004343 0.134192
H20   H     H_    0.352581 0.464627 0.049322 0.092551
H21   H     H_    0.332757 0.346367 0.170076 0.181901
H22   H     H_    0.466371 0.879005 0.783728 0.170175
H23   H     H_    0.544365 0.892150 0.823099 0.111082
H24   H     H_    0.538306 0.112045 0.827588 0.090956
H25   H     H_    0.049724 0.294883 0.231039 0.173502
H26   H     H_    0.429440 0.383377 0.865139 0.132938
H27   H     H_    0.616302 0.477166 0.874555 0.163637
H28   H     H_    0.620289 0.649029 0.875116 0.141465
N1    N     N_R   0.851205 0.497869 0.501938 -0.375209
N2    N     N_R   0.147736 0.492038 0.504065 -0.397224
N3    N     N_R   0.500360 0.500930 0.147930 -0.215411
N4    N     N_R   0.500360 0.500890 0.852020 -0.259958
O1    O     O_R   0.500000 0.319640 0.618810 -0.481714
O2    O     O_R   0.582120 0.500020 0.618760 -0.512592
O3    O     O_R   0.582120 0.500060 0.381180 -0.517291
O4    O     O_2   0.851064 0.630205 0.697101 -0.488392
O5    O     O_2   0.686580 0.779323 0.293854 -0.538694
O6    O     O_2   0.840250 0.699137 0.328960 -0.469817
O7    O     O_2   0.414062 0.096570 0.202643 -0.450095
O8    O     O_3   0.475188 0.870759 0.247427 -0.507930
O9    O     O_2   0.410283 0.141059 0.714701 -0.483121
O10   O     O_3   0.419067 0.370658 0.150318 -0.531069
O11   O     O_2   0.849213 0.362291 0.309768 -0.473950
O12   O     O_2   0.147458 0.351375 0.316302 -0.489479
O13   O     O_2   0.149282 0.632249 0.692306 -0.487561
O14   O     O_R   0.500010 0.319680 0.381230 -0.502633
O15   O     O_R   0.417880 0.499940 0.618820 -0.508377
O16   O     O_R   0.417880 0.499980 0.381240 -0.443000
O17   O     O_R   0.499990 0.680320 0.618770 -0.509368
O18   O     O_R   0.500000 0.680360 0.381190 -0.464458

loop_
_geom_bond_atom_site_label_1
_geom_bond_atom_site_label_2
_ccdc_geom_bond_type
C33   H3    S    
C19   C20   A    
C18   C26   S    
Cu1   O1    S    
C35   N1    A    
C26   C44   S    
C7    C8    A    
C27   C33   S    
C12   C23   A    
Cu2   O18   S    
C37   C38   A    
C40   H11   S    
C18   C24   A    
C36   C37   A    
C29   N3    A    
C38   C39   A    
C10   C17   A    
C49   H5    S    
C15   C17   A    
C25   H22   S    
C12   C37   A    
C38   C45   A    
C44   O9    D    
C31   C32   S    
C2    O13   S    
C43   H16   S    
C26   H24   S    
C13   C28   S    
C44   H18   S    
C40   O5    D    
C46   H20   S    
C12   H1    S    
C9    N2    S    
C41   O6    D    
C43   H17   S    
C21   C22   A    
Cu1   O15   S    
C10   H10   S    
Cu1   O2    S    
C45   C47   A    
C1    O1    A    
C1    C19   S    
C34   C50   A    
C5    H7    S    
C27   C31   A    
Cu1   Cu2   S    
C24   C25   S    
C15   C41   S    
C4    C6    S    
C11   H12   S    
C18   C19   A    
C41   H13   S    
C25   C26   S    
Cu2   O16   S    
C31   N4    A    
C25   H23   S    
Cu2   N3    S    
C35   C39   A    
C29   C30   A    
C3    C9    A    
C32   H28   S    
C35   O4    S    
C47   C48   A    
C46   O10   S    
C36   N1    A    
C23   C34   A    
C28   O3    A    
C8    C9    A    
C34   C45   A    
C23   H25   S    
C46   H19   S    
C16   O18   A    
C48   C49   A    
C39   C49   A    
C4    O16   A    
C28   O2    A    
C29   O10   S    
C22   C24   A    
C2    N2    A    
C7    H8    S    
C50   N2    A    
C33   H2    S    
C48   H4    S    
C16   C22   S    
Cu2   O3    S    
C3    C5    A    
C1    O14   A    
C20   C42   S    
C6    C7    A    
C2    C47   A    
Cu1   O17   S    
C8    H9    S    
C43   O8    S    
C32   C33   S    
C27   N3    A    
C32   H27   S    
C11   C13   A    
C36   O11   S    
C50   O12   S    
C5    C6    A    
Cu2   O14   S    
C17   N1    S    
C30   N4    A    
C10   C11   A    
C14   C40   S    
C30   H26   S    
C3    H6    S    
C16   O17   A    
C20   C21   A    
C43   H15   S    
C4    O15   A    
C42   H14   S    
C14   C15   A    
C13   C14   A    
Cu1   N4    S    
C46   H21   S    
C42   O7    D    
C21   O8    S    
