data_mof_unit_25348.cif
_audit_creation_date              2012-12-10T17:34:24-0500
_audit_creation_method            fapswitch 2.2
_symmetry_space_group_name_H-M    P1
_symmetry_Int_Tables_number       1
_space_group_crystal_system       triclinic
_cell_length_a                    12.338794
_cell_length_b                    13.080046
_cell_length_c                    14.341442
_cell_angle_alpha                 78.750794
_cell_angle_beta                  100.699732
_cell_angle_gamma                 115.928045
_cell_volume                      2028.36414808

loop_
_atom_site_label
_atom_site_type_symbol
_atom_type_description
_atom_site_fract_x
_atom_site_fract_y
_atom_site_fract_z
_atom_type_partial_charge
C1    C     C_R   0.854861 0.286729 0.503453 0.795192
C2    C     C_1   0.000134 0.500115 0.228876 -0.205398
C3    C     C_R   0.271330 0.036098 0.446199 -0.173539
C4    C     C_R   0.228581 0.835275 0.473110 -0.071598
C5    C     C_R   0.821299 0.083405 0.524731 -0.285977
C6    C     C_R   0.746927 0.967512 0.530549 -0.205858
C7    C     C_R   0.620896 0.928042 0.513392 0.476373
C8    C     C_R   0.566668 0.007718 0.478280 -0.035204
C9    C     C_R   0.645853 0.126635 0.463462 -0.038500
C10   C     C_R   0.438137 0.976894 0.462394 0.017081
C11   C     C_R   0.394229 0.063938 0.441619 0.050398
C12   C     C_R   0.999844 0.499827 0.668756 0.814623
C13   C     C_R   0.472909 0.176625 0.412486 0.416648
C14   C     C_R   0.595597 0.204602 0.417625 -0.249091
C15   C     C_R   0.350643 0.863397 0.467025 -0.209788
C16   C     C_R   0.189991 0.922470 0.465664 -0.211634
C17   C     C_R   0.772679 0.164503 0.495170 -0.078630
C18   C     C_R   0.343765 0.326734 0.650098 -0.314925
C19   C     C_R   0.753529 0.645395 0.373499 0.326251
C20   C     C_R   0.644550 0.654794 0.335850 -0.232938
C21   C     C_R   0.541716 0.592460 0.380312 -0.220104
C22   C     C_R   0.544109 0.519702 0.465053 0.031486
C23   C     C_R   0.145006 0.713614 0.486708 0.786737
C24   C     C_R   0.650976 0.499583 0.496587 0.251403
C25   C     C_R   0.442419 0.465296 0.518222 0.005558
C26   C     C_R   0.443458 0.382579 0.597627 0.185512
C27   C     C_R   0.544636 0.357795 0.624812 -0.260771
C28   C     C_R   0.647027 0.416489 0.576522 -0.158821
C29   C     C_R   0.340763 0.492969 0.497698 0.029449
C30   C     C_R   0.245322 0.355598 0.624955 0.062628
C31   C     C_R   0.000139 0.500174 0.331232 0.797222
C32   C     C_1   0.999671 0.499827 0.771104 -0.210840
C33   C     C_1   0.999626 0.499854 0.856541 -0.014349
C34   C     C_1   0.999701 0.499911 0.957246 -0.003464
C35   C     C_1   0.999831 0.499974 0.042707 -0.004248
C36   C     C_1   0.000012 0.500055 0.143423 -0.014710
Cu1   Cu    Cu3+1 0.098280 0.475420 0.520190 0.922691
Cu2   Cu    Cu3+1 0.901720 0.524580 0.479810 0.902332
H1    H     H_    0.097048 0.903236 0.472336 0.143491
H2    H     H_    0.546010 0.294396 0.685740 0.145566
H3    H     H_    0.342445 0.262141 0.710608 0.139413
H4    H     H_    0.335355 0.559354 0.441926 0.127404
H5    H     H_    0.461485 0.604015 0.346573 0.143780
H6    H     H_    0.637299 0.713340 0.273118 0.169554
H7    H     H_    0.720896 0.393872 0.604938 0.199053
H8    H     H_    0.237926 0.102088 0.435154 0.169106
H9    H     H_    0.373403 0.795103 0.460823 0.208570
H10   H     H_    0.917716 0.109366 0.545350 0.175290
H11   H     H_    0.787686 0.906958 0.552529 0.150242
H12   H     H_    0.649461 0.289079 0.384636 0.191412
H13   H     H_    0.168054 0.312762 0.665354 0.128942
N1    N     N_R   0.246290 0.438200 0.550780 -0.180249
N2    N     N_R   0.754310 0.561180 0.449760 -0.228898
O1    O     O_R   0.972510 0.318130 0.525390 -0.577242
O2    O     O_R   0.806530 0.359650 0.491290 -0.598649
O3    O     O_R   0.083010 0.479240 0.641000 -0.558695
O4    O     O_R   0.917030 0.520750 0.606900 -0.575167
O5    O     O_R   0.193470 0.640350 0.508710 -0.586135
O6    O     O_R   0.027490 0.681870 0.474610 -0.599985
O7    O     O_R   0.082970 0.479250 0.393100 -0.558049
O8    O     O_R   0.916990 0.520760 0.359000 -0.582399
C37   C     C_3   0.869840 0.736962 0.334835 -0.333415
C38   C     C_3   0.856710 0.820012 0.246493 -0.961209
H14   H     H_    0.802173 0.772315 0.185502 0.261871
H15   H     H_    0.815186 0.873749 0.262774 0.263140
H16   H     H_    0.948005 0.878626 0.224884 0.256799
H17   H     H_    0.921556 0.790933 0.392214 0.207917
H18   H     H_    0.924110 0.698857 0.314503 0.244981
O9    O     O_3   0.432706 0.262902 0.385064 -0.615341
C39   C     C_3   0.386207 0.265016 0.287103 0.033941
H19   H     H_    0.313185 0.295344 0.277918 0.173889
H20   H     H_    0.343462 0.178801 0.261987 0.126312
C40   C     C_3   0.485379 0.349077 0.224853 -0.347611
H21   H     H_    0.532431 0.432276 0.254177 0.241832
H22   H     H_    0.553050 0.314254 0.225485 0.203814
C41   C     C_3   0.432586 0.369304 0.121577 -0.910962
H23   H     H_    0.385829 0.287227 0.090472 0.254500
H24   H     H_    0.506804 0.429350 0.078270 0.258051
H25   H     H_    0.367150 0.407544 0.118294 0.256492
O10   O     O_3   0.554845 0.810687 0.526699 -0.645642
C42   C     C_3   0.534443 0.771592 0.623923 0.032997
H26   H     H_    0.437578 0.710314 0.624874 0.188006
H27   H     H_    0.548698 0.840375 0.666513 0.123787
C43   C     C_3   0.613695 0.708341 0.671751 -0.339775
H28   H     H_    0.613114 0.652035 0.622757 0.237625
H29   H     H_    0.708631 0.771464 0.687263 0.200427
C44   C     C_3   0.568569 0.635084 0.765041 -0.901837
H30   H     H_    0.568541 0.689420 0.815664 0.252810
H31   H     H_    0.629227 0.592221 0.798445 0.257364
H32   H     H_    0.475302 0.568028 0.750903 0.261680

loop_
_geom_bond_atom_site_label_1
_geom_bond_atom_site_label_2
_ccdc_geom_bond_type
C23   O5    A    
C44   H30   S    
C38   H15   S    
C29   H4    S    
C40   H21   S    
C31   O8    A    
C35   C36   S    
C18   C26   A    
C43   C44   S    
C15   H9    S    
C30   H13   S    
C42   H26   S    
C7    C8    A    
C23   O6    A    
C26   C27   A    
Cu1   Cu2   S    
C37   H17   S    
C41   H24   S    
C10   C15   A    
C5    C6    A    
C5    C17   A    
C19   C37   S    
C34   C35   T    
C20   H6    S    
C21   H5    S    
Cu1   O3    S    
Cu2   O2    S    
C19   C20   A    
C8    C9    A    
C22   C25   A    
C41   H25   S    
C39   H19   S    
C18   C30   A    
Cu1   O5    S    
Cu2   O8    S    
C19   N2    A    
C38   H16   S    
C21   C22   A    
C12   C32   S    
C40   H22   S    
C42   H27   S    
C25   C29   A    
C5    H10   S    
C28   H7    S    
Cu1   N1    S    
C41   H23   S    
C18   H3    S    
C9    C14   A    
C25   C26   A    
C38   H14   S    
C2    C31   S    
C31   O7    A    
C4    C16   A    
C1    O1    A    
C37   C38   S    
Cu2   O4    S    
C27   H2    S    
C39   C40   S    
C33   C34   S    
C43   H28   S    
C12   O3    A    
C12   O4    A    
C9    C17   A    
C44   H31   S    
C40   C41   S    
C22   C24   A    
Cu1   O1    S    
C42   C43   S    
C2    C36   T    
C4    C23   S    
C30   N1    A    
C24   C28   A    
C43   H29   S    
O10   C42   S    
C6    C7    A    
C3    H8    S    
C1    C17   S    
C37   H18   S    
C32   C33   T    
C4    C15   A    
C24   N2    A    
C11   C13   A    
C14   H12   S    
Cu2   N2    S    
C13   O9    S    
C6    H11   S    
C1    O2    A    
O9    C39   S    
Cu1   O7    S    
C3    C11   A    
C10   C11   A    
C16   H1    S    
Cu2   O6    S    
C20   C21   A    
C8    C10   A    
C44   H32   S    
C27   C28   A    
C39   H20   S    
C13   C14   A    
C3    C16   A    
C7    O10   S    
C29   N1    A    
