data_mof_unit_15240.cif
_audit_creation_date              2012-12-11T14:49:47-0500
_audit_creation_method            fapswitch 2.2
_symmetry_space_group_name_H-M    P1
_symmetry_Int_Tables_number       1
_space_group_crystal_system       triclinic
_cell_length_a                    11.231457
_cell_length_b                    11.231562
_cell_length_c                    19.072107
_cell_angle_alpha                 90.000417
_cell_angle_beta                  89.999579
_cell_angle_gamma                 120.0
_cell_volume                      2083.55785326

loop_
_atom_site_label
_atom_site_type_symbol
_atom_type_description
_atom_site_fract_x
_atom_site_fract_y
_atom_site_fract_z
_atom_type_partial_charge
C1    C     C_R   0.530634 0.465472 0.645681 0.538824
C2    C     C_R   0.465475 0.530632 0.354316 0.550014
C3    C     C_R   0.467916 0.934617 0.145711 0.556361
C4    C     C_R   0.065158 0.534526 0.354317 0.550016
C5    C     C_R   0.391133 0.018323 0.535488 -0.019262
C6    C     C_R   0.562501 0.615065 0.955106 -0.005013
C7    C     C_R   0.981678 0.372812 0.535487 -0.019265
C8    C     C_R   0.384929 0.947445 0.955110 -0.005017
C9    C     C_R   0.627188 0.608867 0.535488 -0.019265
C10   C     C_R   0.052549 0.437518 0.955100 -0.005003
C11   C     C_R   0.059398 0.423446 0.028166 -0.010076
C12   C     C_R   0.929094 0.469550 0.855489 0.539858
C13   C     C_R   0.608868 0.627189 0.464508 -0.019192
C14   C     C_R   0.364014 0.940632 0.028180 -0.009980
C15   C     C_R   0.018319 0.391132 0.464508 -0.019195
C16   C     C_R   0.576597 0.635974 0.028176 -0.010006
C17   C     C_R   0.372812 0.981681 0.464508 -0.019194
C18   C     C_R   0.484921 0.989529 0.426445 0.005351
C19   C     C_R   0.513023 0.519863 0.074622 0.007828
C20   C     C_R   0.010472 0.495393 0.426445 0.005350
C21   C     C_R   0.480125 0.993182 0.074628 0.007838
C22   C     C_R   0.504608 0.515080 0.426445 0.005349
C23   C     C_R   0.534527 0.065161 0.645681 0.538827
C24   C     C_R   0.006840 0.486983 0.074620 0.007827
C25   C     C_R   0.971758 0.489704 0.929189 0.001089
C26   C     C_R   0.515082 0.504601 0.573551 0.004103
C27   C     C_R   0.517919 0.028220 0.929190 0.001069
C28   C     C_R   0.989519 0.484918 0.573550 0.004104
C29   C     C_R   0.510277 0.482079 0.929185 0.001061
C30   C     C_R   0.495398 0.010480 0.573550 0.004104
C31   C     C_R   0.602410 0.016007 0.464401 -0.067376
C32   C     C_R   0.462075 0.387497 0.047622 -0.066834
C33   C     C_R   0.983993 0.586402 0.464402 -0.067376
C34   C     C_R   0.530441 0.459558 0.855486 0.539811
C35   C     C_R   0.612486 0.074654 0.047632 -0.066830
C36   C     C_R   0.413598 0.397591 0.464401 -0.067376
C37   C     C_R   0.925347 0.537854 0.047631 -0.066809
C38   C     C_R   0.918845 0.551221 0.975527 -0.066941
C39   C     C_R   0.397599 0.413586 0.535592 -0.067296
C40   C     C_R   0.632349 0.081131 0.975528 -0.066936
C41   C     C_R   0.015989 0.602401 0.535592 -0.067297
C42   C     C_R   0.448714 0.367641 0.975518 -0.066973
C43   C     C_R   0.586413 0.984011 0.535592 -0.067298
C44   C     C_3   0.321187 0.091563 0.563770 -0.308421
C45   C     C_R   0.934839 0.469366 0.645681 0.538832
C46   C     C_3   0.581860 0.730101 0.905858 -0.361921
C47   C     C_3   0.908438 0.229626 0.563769 -0.308422
C48   C     C_3   0.269897 0.851755 0.905863 -0.361936
C49   C     C_3   0.770375 0.678817 0.563770 -0.308424
C50   C     C_3   0.148252 0.418221 0.905842 -0.361981
C51   C     C_3   0.128920 0.346558 0.053970 -0.326030
C52   C     C_3   0.678815 0.770377 0.436227 -0.309331
C53   C     C_3   0.217575 0.871210 0.053985 -0.325986
C54   C     C_3   0.091561 0.321185 0.436226 -0.309331
C55   C     C_3   0.653596 0.782405 0.053984 -0.325989
C56   C     C_R   0.540443 0.070888 0.855487 0.539808
C57   C     C_3   0.229622 0.908440 0.436227 -0.309333
C58   C     C_1   0.730322 0.056882 0.428893 0.200144
C59   C     C_1   0.415097 0.270823 0.094701 0.230588
C60   C     C_1   0.943115 0.673435 0.428895 0.200143
C61   C     C_1   0.729150 0.144359 0.094717 0.230554
C62   C     C_1   0.326565 0.269680 0.428894 0.200143
C63   C     C_1   0.855645 0.584813 0.094717 0.230558
C64   C     C_1   0.886695 0.653871 0.951096 0.235083
C65   C     C_1   0.269684 0.326556 0.571095 0.195514
C66   C     C_1   0.767150 0.113269 0.951104 0.235086
C67   C     C_R   0.466697 0.532083 0.145710 0.556329
C68   C     C_1   0.056875 0.730315 0.571096 0.195515
C69   C     C_1   0.346099 0.232831 0.951082 0.235107
C70   C     C_1   0.673446 0.943131 0.571095 0.195512
C71   C     C_R   0.469368 0.934843 0.354316 0.550014
C72   C     C_R   0.065393 0.533310 0.145708 0.556365
Cr1   Cr    Cr6+3 0.776430 0.541680 0.750000 1.050594
Cr2   Cr    Cr6+3 0.765250 0.223570 0.750000 1.050584
Cr3   Cr    Cr6+3 0.458320 0.234750 0.750000 1.050599
Cr4   Cr    Cr6+3 0.541680 0.776430 0.250000 1.048476
Cr5   Cr    Cr6+3 0.223570 0.765250 0.250000 1.048473
Cr6   Cr    Cr6+3 0.234750 0.458320 0.250000 1.048493
H1    H     H_    0.243668 0.091563 0.528652 0.146025
H2    H     H_    0.191635 0.883230 0.899254 0.187448
H3    H     H_    0.307979 0.845769 0.853061 0.135766
H4    H     H_    0.219609 0.745750 0.927178 0.117744
H5    H     H_    0.847894 0.756337 0.528653 0.146027
H6    H     H_    0.782277 0.730758 0.614401 0.209731
H7    H     H_    0.793863 0.595582 0.570503 0.157726
H8    H     H_    0.116486 0.308446 0.899030 0.187573
H9    H     H_    0.154590 0.462759 0.853126 0.135561
H10   H     H_    0.254180 0.473533 0.927275 0.117806
H11   H     H_    0.121498 0.268989 0.015673 0.140655
H12   H     H_    0.269244 0.051528 0.614400 0.209734
H13   H     H_    0.238026 0.422247 0.061720 0.143368
H14   H     H_    0.080125 0.285540 0.101719 0.194884
H15   H     H_    0.756339 0.847896 0.471342 0.145971
H16   H     H_    0.730756 0.782285 0.385595 0.211494
H17   H     H_    0.595579 0.793866 0.429497 0.154711
H18   H     H_    0.147590 0.879089 0.015772 0.140702
H19   H     H_    0.183889 0.761993 0.061550 0.143211
H20   H     H_    0.205386 0.919781 0.101823 0.194920
H21   H     H_    0.091557 0.243662 0.471341 0.145970
H22   H     H_    0.051529 0.269244 0.385594 0.211496
H23   H     H_    0.404426 0.198285 0.570502 0.157723
H24   H     H_    0.198287 0.404420 0.429496 0.154712
H25   H     H_    0.731427 0.852418 0.015764 0.140697
H26   H     H_    0.578041 0.816053 0.061573 0.143238
H27   H     H_    0.714388 0.794589 0.101811 0.194916
H28   H     H_    0.152102 0.908445 0.471343 0.145971
H29   H     H_    0.217714 0.948472 0.385596 0.211493
H30   H     H_    0.206132 0.801715 0.429497 0.154713
H31   H     H_    0.526157 0.780404 0.927175 0.117746
H32   H     H_    0.691604 0.808348 0.899248 0.187454
H33   H     H_    0.537785 0.692020 0.853059 0.135769
H34   H     H_    0.908439 0.152108 0.528651 0.146027
H35   H     H_    0.948474 0.217720 0.614399 0.209736
H36   H     H_    0.801714 0.206140 0.570501 0.157722
N1    N     N_1   0.828258 0.083159 0.397578 -0.316245
N2    N     N_1   0.083164 0.828257 0.602407 -0.323544
N3    N     N_1   0.260276 0.127058 0.931552 -0.294115
N4    N     N_1   0.745106 0.916849 0.602405 -0.323548
N5    N     N_1   0.377696 0.179875 0.133441 -0.285708
N6    N     N_1   0.916837 0.745092 0.397581 -0.316248
N7    N     N_1   0.820086 0.197909 0.133466 -0.285670
N8    N     N_1   0.254908 0.171744 0.397578 -0.316244
N9    N     N_1   0.802094 0.622202 0.133462 -0.285701
N10   N     N_1   0.866784 0.739723 0.931569 -0.294156
N11   N     N_1   0.171741 0.254900 0.602406 -0.323545
N12   N     N_1   0.872920 0.133174 0.931590 -0.294171
O1    O     O_R   0.916700 0.566820 0.669930 -0.508238
O2    O     O_R   0.566820 0.916700 0.330070 -0.502521
O3    O     O_R   0.083300 0.650120 0.169930 -0.515613
O4    O     O_R   0.349880 0.433180 0.330070 -0.502517
O5    O     O_R   0.649840 0.534790 0.674920 -0.524838
O6    O     O_R   0.884950 0.350160 0.825080 -0.484854
O7    O     O_R   0.465210 0.115050 0.674920 -0.524837
O8    O     O_R   0.649840 0.534790 0.825080 -0.484852
O9    O     O_R   0.884950 0.350160 0.674920 -0.524831
O10   O     O_R   0.465210 0.115050 0.825080 -0.484843
O11   O     O_R   0.534790 0.649840 0.174920 -0.503463
O12   O     O_R   0.650120 0.083300 0.830070 -0.508531
O13   O     O_R   0.350160 0.884950 0.325080 -0.519858
O14   O     O_R   0.115050 0.465210 0.174920 -0.503448
O15   O     O_R   0.534790 0.649840 0.325080 -0.519856
O16   O     O_R   0.350160 0.884950 0.174920 -0.503472
O17   O     O_R   0.115050 0.465210 0.325080 -0.519852
O18   O     O_3   0.666667 0.333333 0.750000 -0.290933
O19   O     O_3   0.333333 0.666667 0.250000 -0.291278
O20   O     O_R   0.433180 0.349880 0.669930 -0.508239
O21   O     O_R   0.916700 0.566820 0.830070 -0.508532
O22   O     O_R   0.650120 0.083300 0.669930 -0.508240
O23   O     O_R   0.433180 0.349880 0.830070 -0.508518
O24   O     O_R   0.566820 0.916700 0.169930 -0.515613
O25   O     O_R   0.083300 0.650120 0.330070 -0.502521
O26   O     O_R   0.349880 0.433180 0.169930 -0.515632

loop_
_geom_bond_atom_site_label_1
_geom_bond_atom_site_label_2
_ccdc_geom_bond_type
C47   H36   S    
Cr1   O5    S    
Cr2   O6    S    
C29   C42   A    
C11   C24   A    
Cr3   O23   S    
Cr5   O25   S    
C4    O17   A    
Cr6   O26   S    
C72   O3    A    
Cr4   O11   S    
C44   H12   S    
Cr2   O12   S    
C24   C72   S    
C31   C43   A    
C55   H27   S    
C31   C58   S    
Cr2   O22   S    
C45   O1    A    
C54   H21   S    
C51   H14   S    
C26   C39   A    
C5    C17   A    
C34   O8    A    
C47   H34   S    
C55   H25   S    
C28   C41   A    
C48   H3    S    
C52   H17   S    
C61   N7    T    
C9    C13   A    
Cr5   O16   S    
C8    C27   A    
Cr6   O19   S    
C51   H13   S    
C2    C22   S    
C8    C14   A    
C19   C67   S    
C12   O6    A    
C50   H10   S    
Cr4   O15   S    
C7    C15   A    
C57   H28   S    
C40   C66   S    
C46   H33   S    
C53   H18   S    
C39   C65   S    
C54   H22   S    
C1    O20   A    
C3    O16   A    
C36   C62   S    
C19   C32   A    
C37   C63   S    
C34   O23   A    
C9    C26   A    
C24   C37   A    
C41   C68   S    
C38   C64   S    
C36   C39   A    
Cr3   O20   S    
C15   C20   A    
C28   C45   S    
C45   O9    A    
C23   O7    A    
C23   C30   S    
C49   H7    S    
C9    C49   S    
C15   C54   S    
Cr3   O18   S    
Cr3   O10   S    
C71   O13   A    
C53   H19   S    
Cr1   O1    S    
C29   C34   S    
C42   C69   S    
C7    C28   A    
C66   N12   T    
C7    C47   S    
C8    C48   S    
C37   C38   A    
C25   C38   A    
C13   C52   S    
C56   O12   A    
Cr4   O24   S    
C27   C40   A    
Cr2   O9    S    
C14   C53   S    
C17   C18   A    
C52   H15   S    
C35   C61   S    
Cr5   O3    S    
C52   H16   S    
C50   H9    S    
C68   N2    T    
C20   C33   A    
C10   C25   A    
C57   H29   S    
C5    C44   S    
Cr1   O21   S    
Cr4   O19   S    
C56   O10   A    
C43   C70   S    
C46   H32   S    
C58   N1    T    
Cr4   O2    S    
C30   C43   A    
C3    C21   S    
C10   C50   S    
Cr5   O19   S    
C62   N8    T    
C12   O21   A    
C14   C21   A    
C5    C30   A    
C49   H6    S    
C18   C71   S    
C47   H35   S    
C4    O25   A    
Cr2   O18   S    
C3    O24   A    
C59   N5    T    
C6    C46   S    
C67   O26   A    
C27   C56   S    
C54   H24   S    
C44   H1    S    
C71   O2    A    
Cr5   O13   S    
C1    O5    A    
Cr6   O14   S    
C6    C29   A    
C63   N9    T    
C44   H23   S    
Cr3   O7    S    
C21   C35   A    
C53   H20   S    
C33   C60   S    
C22   C36   A    
C23   O22   A    
C12   C25   S    
C33   C41   A    
C49   H5    S    
C35   C40   A    
Cr6   O4    S    
C16   C55   S    
C64   N10   T    
Cr6   O17   S    
C51   H11   S    
C48   H2    S    
C1    C26   S    
C70   N4    T    
C16   C19   A    
C55   H26   S    
C69   N3    T    
C2    O4    A    
C48   H4    S    
C13   C22   A    
C60   N6    T    
C67   O11   A    
C11   C51   S    
C10   C11   A    
C50   H8    S    
C6    C16   A    
C4    C20   S    
C72   O14   A    
C57   H30   S    
Cr1   O8    S    
C46   H31   S    
C17   C57   S    
C2    O15   A    
C32   C42   A    
C18   C31   A    
C32   C59   S    
C65   N11   T    
Cr1   O18   S    
