data_mof_unit_35954.cif
_audit_creation_date              2012-12-10T17:44:50-0500
_audit_creation_method            fapswitch 2.2
_symmetry_space_group_name_H-M    P1
_symmetry_Int_Tables_number       1
_space_group_crystal_system       triclinic
_cell_length_a                    15.057987
_cell_length_b                    13.954232
_cell_length_c                    19.243474
_cell_angle_alpha                 90.098829
_cell_angle_beta                  88.367067
_cell_angle_gamma                 88.146261
_cell_volume                      4039.71814346

loop_
_atom_site_label
_atom_site_type_symbol
_atom_type_description
_atom_site_fract_x
_atom_site_fract_y
_atom_site_fract_z
_atom_type_partial_charge
C1    C     C_R   0.328957 0.501453 0.504213 0.883571
C2    C     C_R   0.670866 0.498371 0.494347 0.885077
C3    C     C_R   0.809207 0.501121 0.555795 -0.110253
C4    C     C_R   0.192010 0.480258 0.443296 -0.132628
C5    C     C_R   0.901167 0.509110 0.558059 -0.000385
C6    C     C_R   0.099508 0.477876 0.438294 0.006208
C7    C     C_R   0.953439 0.492868 0.496412 -0.051397
C8    C     C_R   0.046215 0.500681 0.498059 -0.043570
C9    C     C_R   0.913011 0.467374 0.433900 -0.125038
C10   C     C_R   0.085067 0.535631 0.558966 -0.127240
C11   C     C_R   0.941508 0.540478 0.618835 0.346727
C12   C     C_R   0.059659 0.449552 0.375950 0.344767
C13   C     C_R   0.028234 0.572646 0.613123 0.327431
C14   C     C_R   0.967410 0.432963 0.376813 0.311414
C15   C     C_R   0.422925 0.799799 0.486853 0.493539
C16   C     C_R   0.576275 0.200359 0.482774 0.455023
C17   C     C_R   0.577174 0.794519 0.513644 0.504351
C18   C     C_R   0.425258 0.205480 0.520698 0.519578
C19   C     C_R   0.580610 0.895316 0.498301 -0.212425
C20   C     C_R   0.420536 0.106199 0.502883 -0.216324
C21   C     C_R   0.420105 0.901106 0.501309 -0.208201
C22   C     C_R   0.579719 0.100289 0.498694 -0.201190
C23   C     C_R   0.500264 0.949258 0.499314 -0.058256
C24   C     C_R   0.500127 0.051608 0.499679 -0.054818
C25   C     C_R   0.661189 0.946605 0.492842 0.377685
C26   C     C_R   0.339687 0.057721 0.500856 0.374507
C27   C     C_R   0.339803 0.957378 0.511187 0.370152
C28   C     C_R   0.659850 0.046029 0.505362 0.380686
C29   C     C_R   0.494855 0.499893 0.367150 0.888536
C30   C     C_R   0.503888 0.500210 0.632621 0.906972
C31   C     C_R   0.492103 0.577452 0.245658 0.011791
C32   C     C_R   0.546321 0.418399 0.743175 -0.019362
C33   C     C_R   0.459558 0.570235 0.750752 -0.019084
C34   C     C_R   0.447620 0.410952 0.260526 -0.028812
C35   C     C_R   0.471657 0.570011 0.174592 0.369256
C36   C     C_R   0.525899 0.400110 0.814030 0.266659
C37   C     C_R   0.434071 0.549241 0.820193 0.355545
C38   C     C_R   0.454023 0.397441 0.187907 0.274634
C39   C     C_R   0.463580 0.478236 0.144807 -0.233654
C40   C     C_R   0.471317 0.466847 0.852290 -0.219492
C41   C     C_R   0.479208 0.496933 0.290317 -0.102876
C42   C     C_R   0.505935 0.498668 0.710022 -0.128350
C43   C     C_R   0.470838 0.463054 0.928332 0.553018
C44   C     C_R   0.467868 0.467965 0.068690 0.545088
C45   C     C_R   0.819825 0.483282 0.429939 0.434584
C46   C     C_R   0.178707 0.530264 0.564538 0.423867
C47   C     C_R   0.768174 0.493355 0.492438 -0.116708
C48   C     C_R   0.231610 0.504720 0.505008 -0.119135
Cu1   Cu    Cu3+1 0.500000 0.597420 0.500000 1.105015
Cu2   Cu    Cu3+1 0.500000 0.402580 0.500000 1.090894
H1    H     H_    0.767278 0.511929 0.601875 0.200426
H2    H     H_    0.235550 0.458260 0.400359 0.181794
N1    N     N_R   0.535503 0.506918 0.031594 -0.120152
N2    N     N_R   0.404533 0.421247 0.965209 -0.084294
N3    N     N_R   0.536771 0.504848 0.962571 -0.167054
N4    N     N_R   0.402646 0.424469 0.034382 -0.128616
N5    N     N_R   0.500000 0.743810 0.500000 -0.297859
N6    N     N_R   0.500000 0.256190 0.500000 -0.300456
O1    O     O_R   0.370260 0.582280 0.500020 -0.525764
O2    O     O_R   0.629740 0.417720 0.499980 -0.549981
O3    O     O_R   0.629740 0.582280 0.499980 -0.495108
O4    O     O_R   0.370260 0.417720 0.500020 -0.547896
O5    O     O_R   0.499990 0.582300 0.400140 -0.542054
O6    O     O_R   0.500010 0.417700 0.599860 -0.521918
O7    O     O_R   0.500010 0.582300 0.599860 -0.556154
O8    O     O_R   0.499990 0.417700 0.400140 -0.563331
C49   C     C_3   0.529317 0.670552 0.270531 -0.550033
H3    H     H_    0.475328 0.722242 0.286640 0.281936
H4    H     H_    0.571040 0.703477 0.229170 0.256139
H5    H     H_    0.574544 0.659963 0.313290 0.237820
C50   C     C_3   0.618090 0.358876 0.704522 -0.539198
H6    H     H_    0.647088 0.397949 0.659570 0.195293
H7    H     H_    0.674848 0.342883 0.738467 0.233401
H8    H     H_    0.591002 0.290951 0.685608 0.290509
C51   C     C_3   0.446342 0.671150 0.722604 -0.521915
H9    H     H_    0.423074 0.724761 0.761815 0.267302
H10   H     H_    0.400326 0.673282 0.679075 0.275821
H11   H     H_    0.510829 0.698299 0.704574 0.227803
C52   C     C_3   0.399019 0.337911 0.304458 -0.582888
H12   H     H_    0.358893 0.374018 0.346645 0.207932
H13   H     H_    0.350494 0.299052 0.273694 0.260948
H14   H     H_    0.446278 0.284726 0.326945 0.254312
S1    S     S_3+6 0.454297 0.675541 0.123085 0.065492
O9    O     O_2   0.391701 0.656534 0.065515 -0.234860
O10   O     O_2   0.415112 0.756414 0.166937 -0.220572
O11   O     O_3   0.552542 0.708179 0.088499 -0.478592
H15   H     H_    0.537836 0.762316 0.057187 0.412746
S2    S     S_3+6 0.568692 0.294634 0.856321 0.089585
O12   O     O_2   0.500734 0.258536 0.907739 -0.160441
O13   O     O_2   0.592075 0.214846 0.805854 -0.219952
O14   O     O_3   0.659874 0.322475 0.899567 -0.433375
H16   H     H_    0.698414 0.354971 0.865017 0.341883
S3    S     S_3+6 0.354286 0.625163 0.866571 0.082907
O15   O     O_2   0.402722 0.703190 0.901997 -0.230766
O16   O     O_2   0.289065 0.669435 0.817293 -0.179750
O17   O     O_3   0.295526 0.564546 0.926490 -0.468607
H17   H     H_    0.260596 0.614300 0.953122 0.416110
S4    S     S_3+6 0.453908 0.279167 0.151602 0.104358
O18   O     O_2   0.520598 0.270845 0.092095 -0.159315
O19   O     O_2   0.478051 0.204580 0.204680 -0.228840
O20   O     O_3   0.352624 0.257146 0.121690 -0.413421
H18   H     H_    0.310120 0.294066 0.152404 0.351875
S5    S     S_3+6 0.775491 0.528077 0.351412 0.076776
O21   O     O_2   0.848746 0.560102 0.302891 -0.230155
O22   O     O_2   0.722814 0.453910 0.315934 -0.190371
O23   O     O_3   0.709204 0.623604 0.370195 -0.535960
H19   H     H_    0.720464 0.668734 0.331509 0.396742
S6    S     S_3+6 0.226474 0.535728 0.648029 0.080469
O24   O     O_2   0.248978 0.637178 0.663531 -0.193253
O25   O     O_2   0.161691 0.501592 0.702809 -0.214844
O26   O     O_3   0.318849 0.466463 0.651783 -0.543761
H20   H     H_    0.322400 0.447369 0.701191 0.377924
S7    S     S_3+6 0.885536 0.543038 0.701510 0.085772
O27   O     O_2   0.951383 0.549006 0.758469 -0.160951
O28   O     O_2   0.822279 0.628373 0.705932 -0.237290
O29   O     O_3   0.828453 0.442353 0.712403 -0.548323
H21   H     H_    0.800713 0.448384 0.759567 0.372171
S8    S     S_3+6 0.124320 0.440551 0.296464 0.077186
O30   O     O_2   0.176853 0.347112 0.295957 -0.273149
O31   O     O_2   0.067215 0.445156 0.233811 -0.143270
O32   O     O_3   0.194729 0.531705 0.290850 -0.543384
H22   H     H_    0.242343 0.509728 0.257375 0.365950
S9    S     S_3+6 0.045402 0.689230 0.646597 0.153851
O33   O     O_2   0.077148 0.684311 0.719864 -0.128812
O34   O     O_2   0.112322 0.738593 0.601233 -0.191387
O35   O     O_3   0.949253 0.754001 0.645957 -0.436524
H23   H     H_    0.964628 0.819015 0.661366 0.394724
S10   S     S_3+6 0.927295 0.343674 0.319831 0.159135
O36   O     O_2   0.848372 0.296696 0.352341 -0.172417
O37   O     O_2   0.901149 0.386406 0.251484 -0.137787
O38   O     O_3   0.007226 0.258503 0.305108 -0.456024
H24   H     H_    0.980869 0.212402 0.273047 0.398741
S11   S     S_3+6 0.333690 0.760562 0.433944 0.091881
O39   O     O_2   0.259269 0.722945 0.478597 -0.207410
O40   O     O_2   0.297688 0.844949 0.393834 -0.221834
O41   O     O_3   0.363045 0.676365 0.375135 -0.549050
H25   H     H_    0.307275 0.660628 0.352214 0.390547
S12   S     S_3+6 0.660294 0.236800 0.421699 0.119540
O42   O     O_2   0.733751 0.283017 0.459097 -0.188714
O43   O     O_2   0.699877 0.150187 0.384318 -0.221593
O44   O     O_3   0.622531 0.310452 0.360068 -0.467265
H26   H     H_    0.607606 0.268607 0.320736 0.378353
S13   S     S_3+6 0.663685 0.751853 0.570552 0.095169
O45   O     O_2   0.742732 0.712784 0.529137 -0.178561
O46   O     O_2   0.693273 0.835105 0.612914 -0.235933
O47   O     O_3   0.634591 0.666807 0.626936 -0.561915
H27   H     H_    0.666106 0.680426 0.670094 0.392473
S14   S     S_3+6 0.359550 0.238231 0.596862 0.114732
O48   O     O_2   0.283225 0.304748 0.579433 -0.193862
O49   O     O_2   0.321538 0.150007 0.629185 -0.227334
O50   O     O_3   0.421154 0.286247 0.658227 -0.518888
H28   H     H_    0.386429 0.279557 0.702355 0.384761
S15   S     S_3+6 0.757657 0.897849 0.448757 0.131742
O51   O     O_2   0.829234 0.874474 0.499486 -0.146023
O52   O     O_2   0.735231 0.809674 0.409268 -0.268885
O53   O     O_3   0.796567 0.978139 0.391476 -0.438798
H29   H     H_    0.851853 0.947841 0.371276 0.397896
S16   S     S_3+6 0.241340 0.118594 0.472638 0.119789
O54   O     O_2   0.178788 0.140968 0.533120 -0.156970
O55   O     O_2   0.264175 0.210366 0.436429 -0.291998
O56   O     O_3   0.190331 0.047849 0.416439 -0.437712
H30   H     H_    0.136538 0.085294 0.402974 0.403827
S17   S     S_3+6 0.249731 0.911405 0.560925 0.149931
O57   O     O_2   0.173629 0.892088 0.514586 -0.136634
O58   O     O_2   0.279396 0.821099 0.597147 -0.231787
O59   O     O_3   0.214699 0.991102 0.622079 -0.432163
H31   H     H_    0.163345 0.961312 0.645850 0.398548
S18   S     S_3+6 0.751486 0.094867 0.548178 0.129093
O60   O     O_2   0.825706 0.114435 0.496812 -0.151229
O61   O     O_2   0.723290 0.186018 0.585592 -0.278739
O62   O     O_3   0.788924 0.015360 0.606913 -0.441753
H32   H     H_    0.842256 0.044287 0.626072 0.394383

loop_
_geom_bond_atom_site_label_1
_geom_bond_atom_site_label_2
_ccdc_geom_bond_type
S13   O47   S    
O62   H32   S    
C29   O5    A    
C9    C45   A    
S3    O15   D    
Cu1   O5    S    
C30   O6    A    
Cu2   O6    S    
C30   O7    A    
C19   C23   A    
O26   H20   S    
S14   O50   S    
C38   S4    S    
C1    O4    A    
O56   H30   S    
C14   S10   S    
C7    C8    A    
C36   S2    S    
C25   C28   A    
C31   C49   S    
C26   C27   A    
O20   H18   S    
Cu1   O7    S    
C4    H2    S    
C33   C42   A    
C32   C36   A    
O53   H29   S    
S17   O58   D    
S14   O49   D    
C5    C11   A    
C37   C40   A    
C18   S14   S    
C1    O1    A    
C6    C12   A    
C38   C39   A    
C13   S9    S    
C2    O2    A    
S9    O34   D    
O23   H19   S    
S13   O45   D    
Cu1   N5    S    
S6    O24   D    
S13   O46   D    
C3    C47   A    
S8    O30   D    
C45   S5    S    
S16   O56   S    
C27   S17   S    
C44   N1    A    
C33   C51   S    
S18   O62   S    
C20   C24   A    
C46   S6    S    
C10   C46   A    
S11   O41   S    
C23   C24   A    
S15   O52   D    
C18   C20   A    
C2    O3    A    
S7    O29   S    
C45   C47   A    
C21   C27   A    
S3    O16   D    
C22   C28   A    
S10   O36   D    
S16   O55   D    
C15   N5    A    
C34   C41   A    
C19   C25   A    
C18   N6    A    
C32   C50   S    
C46   C48   A    
N1    N3    A    
N2    N4    A    
Cu1   O3    S    
O47   H27   S    
C25   S15   S    
C49   H3    S    
Cu2   N6    S    
S9    O33   D    
S17   O59   S    
S14   O48   D    
C4    C6    A    
O14   H16   S    
C5    C7    A    
C9    C14   A    
C3    H1    S    
O11   H15   S    
S9    O35   S    
C6    C8    A    
C10   C13   A    
C33   C37   A    
C52   H12   S    
C49   H4    S    
S8    O32   S    
S16   O54   D    
C35   C39   A    
C51   H9    S    
C34   C52   S    
C52   H14   S    
Cu2   O8    S    
C44   N4    A    
C43   N2    A    
S1    O9    D    
S2    O14   S    
C36   C40   A    
O50   H28   S    
O17   H17   S    
C40   C43   S    
C37   S3    S    
S5    O22   D    
C16   N6    A    
S15   O53   S    
C51   H10   S    
O32   H22   S    
S12   O43   D    
C12   S8    S    
C43   N3    A    
S18   O60   D    
S1    O10   D    
S2    O13   D    
S4    O18   D    
S3    O17   S    
S4    O19   D    
C21   C23   A    
O59   H31   S    
Cu2   O4    S    
C22   C24   A    
O38   H24   S    
S10   O38   S    
C50   H7    S    
S7    O27   D    
C4    C48   A    
C7    C9    A    
C16   C22   A    
C31   C41   A    
C29   C41   S    
C34   C38   A    
C16   S12   S    
C12   C14   A    
O41   H25   S    
C3    C5    A    
S12   O44   S    
S10   O37   D    
C50   H8    S    
C1    C48   S    
C35   S1    S    
C39   C44   S    
C15   S11   S    
C2    C47   S    
S4    O20   S    
C52   H13   S    
Cu1   O1    S    
S6    O26   S    
C17   S13   S    
C49   H5    S    
Cu2   O2    S    
C50   H6    S    
O44   H26   S    
C11   C13   A    
S11   O39   D    
C20   C26   A    
O35   H23   S    
S18   O61   D    
C17   C19   A    
S6    O25   D    
O29   H21   S    
C26   S16   S    
S5    O23   S    
C31   C35   A    
C11   S7    S    
C51   H11   S    
S8    O31   D    
S17   O57   D    
S12   O42   D    
C28   S18   S    
C29   O8    A    
C15   C21   A    
S1    O11   S    
S2    O12   D    
C8    C10   A    
Cu1   Cu2   S    
S5    O21   D    
S11   O40   D    
C32   C42   A    
C30   C42   S    
S15   O51   D    
C17   N5    A    
S7    O28   D    
