data_mof_unit_52664.cif
_audit_creation_date              2012-12-11T16:26:06-0500
_audit_creation_method            fapswitch 2.2
_symmetry_space_group_name_H-M    P1
_symmetry_Int_Tables_number       1
_space_group_crystal_system       triclinic
_cell_length_a                    13.984501
_cell_length_b                    13.984504
_cell_length_c                    31.957351
_cell_angle_alpha                 90.0
_cell_angle_beta                  90.000021
_cell_angle_gamma                 120.000234
_cell_volume                      5412.45654053

loop_
_atom_site_label
_atom_site_type_symbol
_atom_type_description
_atom_site_fract_x
_atom_site_fract_y
_atom_site_fract_z
_atom_type_partial_charge
C1    C     C_R   0.567744 0.444041 0.810608 0.565452
C2    C     C_R   0.876297 0.432256 0.689392 0.565452
C3    C     C_R   0.555958 0.123703 0.810608 0.565451
C4    C     C_R   0.567744 0.444041 0.689392 0.565452
C5    C     C_R   0.876297 0.432256 0.810608 0.565451
C6    C     C_R   0.555958 0.123703 0.689392 0.565451
C7    C     C_R   0.444041 0.567744 0.310608 0.565452
C8    C     C_R   0.432256 0.876297 0.189392 0.565451
C9    C     C_R   0.123703 0.555958 0.310608 0.565451
C10   C     C_R   0.444041 0.567744 0.189392 0.565452
C11   C     C_R   0.432256 0.876297 0.310608 0.565451
C12   C     C_R   0.123703 0.555958 0.189392 0.565451
C13   C     C_1   0.004132 0.525973 0.018695 -0.026889
C14   C     C_1   0.521842 0.995869 0.481305 -0.026889
C15   C     C_1   0.474027 0.478158 0.018695 -0.026889
C16   C     C_1   0.004135 0.525972 0.481305 -0.026889
C17   C     C_1   0.521842 0.995868 0.018695 -0.026889
C18   C     C_1   0.474027 0.478158 0.481304 -0.026889
C19   C     C_1   0.525974 0.004133 0.518695 -0.026889
C20   C     C_1   0.995868 0.521841 0.981305 -0.026889
C21   C     C_1   0.478159 0.474026 0.518695 -0.026889
C22   C     C_1   0.525973 0.004132 0.981305 -0.026889
C23   C     C_1   0.995871 0.521841 0.518696 -0.026889
C24   C     C_1   0.478158 0.474026 0.981305 -0.026889
C25   C     C_R   0.929574 0.470160 0.851944 0.038914
C26   C     C_R   0.540585 0.070426 0.648056 0.038915
C27   C     C_R   0.529841 0.459415 0.851944 0.038914
C28   C     C_R   0.929574 0.470160 0.648056 0.038916
C29   C     C_R   0.540585 0.070426 0.851944 0.038915
C30   C     C_R   0.529841 0.459415 0.648056 0.038914
C31   C     C_R   0.470160 0.929574 0.351944 0.038914
C32   C     C_R   0.070426 0.540585 0.148056 0.038915
C33   C     C_R   0.459415 0.529840 0.351944 0.038914
C34   C     C_R   0.470160 0.929574 0.148056 0.038914
C35   C     C_R   0.070426 0.540585 0.351944 0.038915
C36   C     C_R   0.459415 0.529840 0.148056 0.038914
C37   C     C_R   0.914235 0.549202 0.873599 -0.180191
C38   C     C_R   0.634966 0.085764 0.626401 -0.180190
C39   C     C_R   0.450798 0.365033 0.873599 -0.180191
C40   C     C_R   0.914231 0.549198 0.626400 -0.180193
C41   C     C_R   0.634966 0.085765 0.873599 -0.180191
C42   C     C_R   0.450798 0.365033 0.626400 -0.180191
C43   C     C_R   0.549202 0.914235 0.373599 -0.180191
C44   C     C_R   0.085765 0.634966 0.126400 -0.180191
C45   C     C_R   0.365033 0.450798 0.373599 -0.180191
C46   C     C_R   0.549202 0.914235 0.126400 -0.180191
C47   C     C_R   0.085766 0.634966 0.373600 -0.180191
C48   C     C_R   0.365033 0.450798 0.126400 -0.180191
C49   C     C_R   0.939962 0.569332 0.915845 -0.136541
C50   C     C_R   0.629370 0.060038 0.584155 -0.136541
C51   C     C_R   0.430668 0.370629 0.915845 -0.136541
C52   C     C_R   0.939958 0.569328 0.584154 -0.136541
C53   C     C_R   0.629370 0.060039 0.915845 -0.136541
C54   C     C_R   0.430668 0.370629 0.584154 -0.136542
C55   C     C_R   0.569332 0.939962 0.415846 -0.136541
C56   C     C_R   0.060039 0.629370 0.084154 -0.136541
C57   C     C_R   0.370629 0.430667 0.415845 -0.136541
C58   C     C_R   0.569332 0.939962 0.084154 -0.136541
C59   C     C_R   0.060041 0.629370 0.415846 -0.136541
C60   C     C_R   0.370629 0.430667 0.084154 -0.136541
C61   C     C_R   0.983740 0.512728 0.936860 0.000782
C62   C     C_R   0.528988 0.016261 0.563140 0.000782
C63   C     C_R   0.487272 0.471011 0.936860 0.000782
C64   C     C_R   0.983741 0.512728 0.563141 0.000782
C65   C     C_R   0.528988 0.016261 0.936860 0.000782
C66   C     C_R   0.487272 0.471011 0.563140 0.000782
C67   C     C_R   0.512729 0.983740 0.436860 0.000782
C68   C     C_R   0.016261 0.528988 0.063140 0.000783
C69   C     C_R   0.471012 0.487271 0.436860 0.000782
C70   C     C_R   0.512728 0.983740 0.063140 0.000782
C71   C     C_R   0.016263 0.528988 0.436860 0.000782
C72   C     C_R   0.471011 0.487272 0.063140 0.000782
C73   C     C_R   0.008391 0.440935 0.915219 -0.105428
C74   C     C_R   0.432544 0.991611 0.584781 -0.105428
C75   C     C_R   0.559066 0.567456 0.915219 -0.105428
C76   C     C_R   0.008396 0.440938 0.584782 -0.105429
C77   C     C_R   0.432543 0.991609 0.915219 -0.105428
C78   C     C_R   0.559067 0.567456 0.584781 -0.105428
C79   C     C_R   0.440935 0.008391 0.415219 -0.105428
C80   C     C_R   0.991609 0.432543 0.084781 -0.105428
C81   C     C_R   0.567457 0.559065 0.415219 -0.105428
C82   C     C_R   0.440935 0.008391 0.084781 -0.105428
C83   C     C_R   0.991611 0.432543 0.415219 -0.105428
C84   C     C_R   0.567456 0.559066 0.084781 -0.105428
C85   C     C_R   0.979741 0.416866 0.872607 0.271760
C86   C     C_R   0.437125 0.020261 0.627393 0.271760
C87   C     C_R   0.583135 0.562875 0.872607 0.271760
C88   C     C_R   0.979745 0.416870 0.627394 0.271760
C89   C     C_R   0.437125 0.020260 0.872607 0.271760
C90   C     C_R   0.583135 0.562875 0.627393 0.271760
C91   C     C_R   0.416866 0.979741 0.372607 0.271760
C92   C     C_R   0.020260 0.437125 0.127393 0.271760
C93   C     C_R   0.562875 0.583134 0.372607 0.271760
C94   C     C_R   0.416866 0.979740 0.127393 0.271760
C95   C     C_R   0.020261 0.437125 0.372607 0.271761
C96   C     C_R   0.562875 0.583135 0.127393 0.271760
Cr1   Cr    Cr6+3 0.504240 0.249200 0.750000 1.028012
Cr2   Cr    Cr6+3 0.744960 0.495760 0.750000 1.028012
Cr3   Cr    Cr6+3 0.750800 0.255040 0.750000 1.028012
Cr4   Cr    Cr6+3 0.249200 0.504240 0.250000 1.028012
Cr5   Cr    Cr6+3 0.495760 0.744960 0.250000 1.028011
Cr6   Cr    Cr6+3 0.255040 0.750800 0.250000 1.028011
H1    H     H_    0.875798 0.590806 0.858564 0.139566
H2    H     H_    0.715008 0.124200 0.641436 0.139564
H3    H     H_    0.409194 0.284991 0.858564 0.139566
H4    H     H_    0.875789 0.590799 0.641434 0.139568
H5    H     H_    0.715008 0.124203 0.858564 0.139566
H6    H     H_    0.409194 0.284991 0.641435 0.139567
H7    H     H_    0.590805 0.875797 0.358565 0.139566
H8    H     H_    0.124203 0.715008 0.141435 0.139566
H9    H     H_    0.284991 0.409194 0.358565 0.139566
H10   H     H_    0.590806 0.875798 0.141435 0.139566
H11   H     H_    0.124204 0.715008 0.358565 0.139566
H12   H     H_    0.284991 0.409193 0.141435 0.139566
H13   H     H_    0.078334 0.704187 0.067530 0.110359
H14   H     H_    0.625854 0.921667 0.432470 0.110359
H15   H     H_    0.295812 0.374145 0.067530 0.110358
H16   H     H_    0.078336 0.704187 0.432471 0.110359
H17   H     H_    0.625854 0.921667 0.067530 0.110359
H18   H     H_    0.295812 0.374145 0.432470 0.110359
H19   H     H_    0.704187 0.078332 0.567530 0.110360
H20   H     H_    0.921667 0.625854 0.932470 0.110359
H21   H     H_    0.374145 0.295812 0.567530 0.110358
H22   H     H_    0.704187 0.078334 0.932470 0.110359
H23   H     H_    0.921660 0.625847 0.567529 0.110360
H24   H     H_    0.374146 0.295812 0.932470 0.110359
H25   H     H_    0.953047 0.354868 0.068022 0.095403
H26   H     H_    0.401822 0.046953 0.431978 0.095403
H27   H     H_    0.645132 0.598179 0.068022 0.095403
H28   H     H_    0.953049 0.354868 0.431978 0.095402
H29   H     H_    0.401821 0.046953 0.068022 0.095403
H30   H     H_    0.645132 0.598178 0.431978 0.095403
H31   H     H_    0.354869 0.953050 0.568021 0.095402
H32   H     H_    0.046953 0.401821 0.931978 0.095403
H33   H     H_    0.598181 0.645131 0.568022 0.095402
H34   H     H_    0.354868 0.953047 0.931978 0.095403
H35   H     H_    0.046962 0.401828 0.568024 0.095404
H36   H     H_    0.598180 0.645131 0.931978 0.095403
O1    O     O_R   0.480350 0.140770 0.796330 -0.461583
O2    O     O_R   0.660420 0.519650 0.703670 -0.461583
O3    O     O_R   0.859230 0.339580 0.796330 -0.461582
O4    O     O_R   0.480350 0.140770 0.703670 -0.461581
O5    O     O_R   0.660420 0.519650 0.796330 -0.461583
O6    O     O_R   0.859230 0.339580 0.703670 -0.461582
O7    O     O_R   0.140770 0.480350 0.296330 -0.461582
O8    O     O_R   0.519650 0.660420 0.203670 -0.461583
O9    O     O_R   0.339580 0.859230 0.296330 -0.461582
O10   O     O_R   0.140770 0.480350 0.203670 -0.461583
O11   O     O_R   0.519650 0.660420 0.296330 -0.461583
O12   O     O_R   0.339580 0.859230 0.203670 -0.461582
O13   O     O_R   0.514930 0.348530 0.793250 -0.520951
O14   O     O_R   0.833600 0.485070 0.706750 -0.520951
O15   O     O_R   0.651470 0.166400 0.793250 -0.520951
O16   O     O_R   0.514930 0.348530 0.706750 -0.520951
O17   O     O_R   0.833600 0.485070 0.793250 -0.520951
O18   O     O_R   0.651470 0.166400 0.706750 -0.520951
O19   O     O_R   0.348530 0.514930 0.293250 -0.520951
O20   O     O_R   0.485070 0.833600 0.206750 -0.520951
O21   O     O_R   0.166400 0.651470 0.293250 -0.520951
O22   O     O_R   0.348530 0.514930 0.206750 -0.520951
O23   O     O_R   0.485070 0.833600 0.293250 -0.520951
O24   O     O_R   0.166400 0.651470 0.206750 -0.520951
O25   O     O_3   0.666667 0.333333 0.750000 -0.255901
O26   O     O_3   0.333333 0.666667 0.250000 -0.255901
O27   O     O_3   0.995826 0.342658 0.150166 -0.529380
C97   C     C_3   0.021549 0.271244 0.127692 -0.004410
H37   H     H_    0.098200 0.317390 0.108648 0.105572
H38   H     H_    0.951364 0.216473 0.106995 0.125858
C98   C     C_3   0.039562 0.198722 0.158479 -0.361352
H39   H     H_    0.963602 0.148810 0.177247 0.160383
H40   H     H_    0.059641 0.142072 0.141202 0.076605
H41   H     H_    0.109020 0.250844 0.179863 0.164715
O28   O     O_3   0.346833 0.004174 0.349834 -0.529380
C99   C     C_3   0.249696 0.978451 0.372308 -0.004410
H42   H     H_    0.265109 0.048636 0.393005 0.125858
H43   H     H_    0.219190 0.901800 0.391352 0.105572
C100  C     C_3   0.159161 0.960437 0.341521 -0.361351
H44   H     H_    0.141825 0.890979 0.320137 0.164715
H45   H     H_    0.082432 0.940359 0.358798 0.076604
H46   H     H_    0.185209 0.036396 0.322752 0.160384
O29   O     O_3   0.657342 0.653169 0.150166 -0.529380
C101  C     C_3   0.728755 0.750306 0.127692 -0.004411
H47   H     H_    0.682609 0.780811 0.108648 0.105572
H48   H     H_    0.783527 0.734893 0.106995 0.125858
C102  C     C_3   0.801277 0.840842 0.158479 -0.361351
H49   H     H_    0.851189 0.814794 0.177247 0.160384
H50   H     H_    0.857928 0.917570 0.141202 0.076604
H51   H     H_    0.749155 0.858177 0.179862 0.164714
O30   O     O_3   0.995827 0.342658 0.349834 -0.529380
C103  C     C_3   0.021548 0.271243 0.372308 -0.004411
H52   H     H_    0.951362 0.216471 0.393004 0.125859
H53   H     H_    0.098199 0.317387 0.391352 0.105572
C104  C     C_3   0.039560 0.198721 0.341521 -0.361351
H54   H     H_    0.109019 0.250843 0.320137 0.164714
H55   H     H_    0.059637 0.142069 0.358798 0.076604
H56   H     H_    0.963601 0.148811 0.322752 0.160384
O31   O     O_3   0.346832 0.004173 0.150166 -0.529380
C105  C     C_3   0.249696 0.978450 0.127692 -0.004411
H57   H     H_    0.219190 0.901799 0.108648 0.105572
H58   H     H_    0.265108 0.048635 0.106995 0.125858
C106  C     C_3   0.159160 0.960436 0.158479 -0.361351
H59   H     H_    0.185207 0.036395 0.177247 0.160383
H60   H     H_    0.082431 0.940357 0.141202 0.076604
H61   H     H_    0.141824 0.890978 0.179863 0.164715
O32   O     O_3   0.657342 0.653168 0.349834 -0.529380
C107  C     C_3   0.728756 0.750305 0.372308 -0.004410
H62   H     H_    0.783528 0.734892 0.393005 0.125857
H63   H     H_    0.682610 0.780810 0.391352 0.105572
C108  C     C_3   0.801278 0.840841 0.341521 -0.361352
H64   H     H_    0.749155 0.858177 0.320137 0.164714
H65   H     H_    0.857928 0.917570 0.358798 0.076604
H66   H     H_    0.851189 0.814793 0.322752 0.160384
O33   O     O_3   0.342658 0.995829 0.650166 -0.529380
C109  C     C_3   0.271244 0.021549 0.627691 -0.004412
H67   H     H_    0.216472 0.951363 0.606995 0.125859
H68   H     H_    0.317389 0.098199 0.608647 0.105572
C110  C     C_3   0.198722 0.039563 0.658478 -0.361352
H69   H     H_    0.250844 0.109023 0.679861 0.164713
H70   H     H_    0.142071 0.059640 0.641200 0.076605
H71   H     H_    0.148811 0.963605 0.677247 0.160384
O34   O     O_3   0.004173 0.346832 0.849834 -0.529380
C111  C     C_3   0.978451 0.249696 0.872308 -0.004411
H72   H     H_    0.901800 0.219190 0.891352 0.105572
H73   H     H_    0.048636 0.265109 0.893004 0.125858
C112  C     C_3   0.960437 0.159160 0.841521 -0.361351
H74   H     H_    0.036396 0.185208 0.822752 0.160382
H75   H     H_    0.940358 0.082432 0.858798 0.076605
H76   H     H_    0.890979 0.141824 0.820137 0.164715
O35   O     O_3   0.653170 0.657342 0.650166 -0.529380
C113  C     C_3   0.750305 0.728757 0.627692 -0.004410
H77   H     H_    0.734892 0.783528 0.606995 0.125858
H78   H     H_    0.780811 0.682612 0.608647 0.105570
C114  C     C_3   0.840842 0.801279 0.658478 -0.361351
H79   H     H_    0.858179 0.749156 0.679862 0.164715
H80   H     H_    0.917570 0.857930 0.641201 0.076605
H81   H     H_    0.814794 0.851189 0.677247 0.160383
O36   O     O_3   0.342658 0.995826 0.849834 -0.529380
C115  C     C_3   0.271244 0.021549 0.872308 -0.004411
H82   H     H_    0.317390 0.098200 0.891352 0.105572
H83   H     H_    0.216472 0.951364 0.893005 0.125858
C116  C     C_3   0.198722 0.039562 0.841521 -0.361351
H84   H     H_    0.148810 0.963602 0.822753 0.160383
H85   H     H_    0.142072 0.059640 0.858798 0.076604
H86   H     H_    0.250844 0.109020 0.820137 0.164715
O37   O     O_3   0.004183 0.346841 0.650168 -0.529382
C117  C     C_3   0.978464 0.249705 0.627695 -0.004410
H87   H     H_    0.048651 0.265119 0.606999 0.125860
H88   H     H_    0.901814 0.219196 0.608650 0.105572
C118  C     C_3   0.960452 0.159171 0.658483 -0.361346
H89   H     H_    0.890977 0.141818 0.679860 0.164697
H90   H     H_    0.940401 0.082450 0.641206 0.076602
H91   H     H_    0.036404 0.185233 0.677258 0.160401
O38   O     O_3   0.653169 0.657342 0.849834 -0.529380
C119  C     C_3   0.750306 0.728755 0.872308 -0.004410
H92   H     H_    0.780811 0.682610 0.891352 0.105572
H93   H     H_    0.734893 0.783527 0.893005 0.125857
C120  C     C_3   0.840841 0.801278 0.841521 -0.361351
H94   H     H_    0.814794 0.851190 0.822753 0.160383
H95   H     H_    0.917570 0.857928 0.858798 0.076604
H96   H     H_    0.858177 0.749156 0.820137 0.164715

loop_
_geom_bond_atom_site_label_1
_geom_bond_atom_site_label_2
_ccdc_geom_bond_type
C68   C80   A    
C4    O16   A    
C79   H26   S    
C103  H52   S    
C82   C94   A    
C46   H10   S    
Cr2   O5    S    
C18   C21   T    
C2    O6    A    
C106  H59   S    
C39   C51   A    
C3    O15   A    
C96   O29   S    
C30   C90   A    
C8    O20   A    
C108  H66   S    
C29   C89   A    
Cr2   O25   S    
Cr2   O14   S    
C76   H35   S    
C78   C90   A    
C110  H71   S    
C15   C72   S    
C50   H19   S    
C115  C116  S    
C45   C57   A    
C118  H89   S    
O27   C97   S    
C31   C43   A    
C9    O21   A    
C40   H4    S    
C120  H94   S    
C112  H75   S    
O38   C119  S    
C21   C66   S    
C13   C68   S    
C107  H63   S    
C102  H50   S    
C55   H14   S    
C60   C72   A    
C19   C62   S    
C74   H31   S    
Cr2   O17   S    
C84   H27   S    
C11   O23   A    
C112  H76   S    
C33   C45   A    
C59   C71   A    
C91   O28   S    
C113  C114  S    
C39   H3    S    
C116  H84   S    
C84   C96   A    
Cr5   O11   S    
C20   C61   S    
C3    C29   S    
C44   C56   A    
C99   H42   S    
C58   H17   S    
C119  H93   S    
C73   H32   S    
C103  C104  S    
C25   C37   A    
C88   O37   S    
C7    O11   A    
Cr4   O19   S    
C42   C54   A    
C27   C39   A    
C104  H55   S    
C28   C88   A    
C38   H2    S    
C14   C67   S    
C62   C74   A    
C90   O35   S    
C36   C48   A    
C105  H57   S    
C34   C46   A    
C77   H34   S    
C6    O4    A    
C53   C65   A    
C114  H79   S    
C76   C88   A    
C110  H70   S    
C79   C91   A    
Cr6   O24   S    
C117  H87   S    
C100  H46   S    
C18   C69   S    
C11   C31   S    
C17   C70   S    
O28   C99   S    
O37   C117  S    
C46   C58   A    
C97   H38   S    
C106  H60   S    
O31   C105  S    
C16   C71   S    
C92   O27   S    
O35   C113  S    
C42   H6    S    
C48   C60   A    
C71   C83   A    
C2    O14   A    
C66   C78   A    
C117  H88   S    
Cr5   O8    S    
C118  H90   S    
C49   C61   A    
C38   C50   A    
C7    C33   S    
C9    C35   S    
C78   H33   S    
C89   O36   S    
Cr3   O6    S    
C67   C79   A    
C83   H28   S    
C108  H64   S    
C52   C64   A    
C115  H83   S    
C37   H1    S    
C95   O30   S    
C109  H67   S    
C26   C38   A    
C81   H30   S    
C119  C120  S    
C61   C73   A    
C110  H69   S    
O29   C101  S    
C12   O24   A    
C109  C110  S    
C113  H77   S    
C4    C30   S    
Cr2   O2    S    
C116  H85   S    
C101  C102  S    
C80   C92   A    
C8    O12   A    
C22   C65   S    
C119  H92   S    
C1    O5    A    
Cr6   O9    S    
C4    O2    A    
O34   C111  S    
C81   C93   A    
Cr4   O22   S    
C5    O3    A    
O33   C109  S    
Cr4   O7    S    
C26   C86   A    
C104  H56   S    
C83   C95   A    
Cr3   O18   S    
C105  C106  S    
C25   C85   A    
C112  H74   S    
Cr1   O13   S    
C51   C63   A    
C60   H15   S    
Cr4   O26   S    
C98   H39   S    
C8    C34   S    
Cr1   O16   S    
C74   C86   A    
C113  H78   S    
C114  H80   S    
C99   C100  S    
C41   C53   A    
C37   C49   A    
C72   C84   A    
C10   O8    A    
C57   H18   S    
Cr3   O25   S    
C75   C87   A    
C23   C64   S    
Cr6   O12   S    
Cr5   O20   S    
C100  H44   S    
C24   C63   S    
C31   C91   A    
C7    O19   A    
C97   H37   S    
C50   C62   A    
C106  H61   S    
C5    C25   S    
C54   H21   S    
C12   C32   S    
C99   H43   S    
C10   O22   A    
C48   H12   S    
C93   O32   S    
C98   H40   S    
C64   C76   A    
C43   C55   A    
C47   H11   S    
O32   C107  S    
C115  H82   S    
C111  H73   S    
C118  H91   S    
C103  H53   S    
C65   C77   A    
C13   C20   T    
C29   C41   A    
C107  H62   S    
C51   H24   S    
C14   C19   T    
Cr3   O3    S    
Cr5   O26   S    
C58   C70   A    
C34   C94   A    
C105  H58   S    
C102  H51   S    
C53   H22   S    
C33   C93   A    
Cr6   O21   S    
C55   C67   A    
C52   H23   S    
C45   H9    S    
C5    O17   A    
C54   C66   A    
C80   H25   S    
C35   C95   A    
C16   C23   T    
C43   H7    S    
C17   C22   T    
C111  C112  S    
C94   O31   S    
C56   C68   A    
C120  H96   S    
Cr5   O23   S    
C82   H29   S    
C86   O33   S    
C73   C85   A    
C40   C52   A    
C27   C87   A    
C15   C24   T    
C107  C108  S    
C12   O10   A    
C102  H49   S    
C6    C26   S    
C63   C75   A    
C100  H45   S    
Cr4   O10   S    
C49   H20   S    
Cr3   O15   S    
C9    O7    A    
C77   C89   A    
C108  H65   S    
C56   H13   S    
C10   C36   S    
C1    O13   A    
C109  H68   S    
O30   C103  S    
C70   C82   A    
C114  H81   S    
C101  H48   S    
Cr1   O4    S    
C69   C81   A    
C32   C92   A    
C47   C59   A    
C75   H36   S    
C41   H5    S    
C87   O38   S    
C3    O1    A    
C59   H16   S    
C32   C44   A    
C97   C98   S    
Cr6   O26   S    
C104  H54   S    
C120  H95   S    
C1    C27   S    
C28   C40   A    
C30   C42   A    
C116  H86   S    
C2    C28   S    
C98   H41   S    
C11   O9    A    
C57   C69   A    
C35   C47   A    
O36   C115  S    
C85   O34   S    
C111  H72   S    
Cr1   O1    S    
C6    O18   A    
C101  H47   S    
Cr1   O25   S    
C36   C96   A    
C117  C118  S    
C44   H8    S    
