data_mof_unit_6338.cif
_audit_creation_date              2012-12-10T21:11:35-0500
_audit_creation_method            fapswitch 2.2
_symmetry_space_group_name_H-M    P1
_symmetry_Int_Tables_number       1
_space_group_crystal_system       triclinic
_cell_length_a                    17.544417
_cell_length_b                    16.689735
_cell_length_c                    10.639903
_cell_angle_alpha                 89.618875
_cell_angle_beta                  90.166524
_cell_angle_gamma                 89.98265
_cell_volume                      3115.40552499

loop_
_atom_site_label
_atom_site_type_symbol
_atom_type_description
_atom_site_fract_x
_atom_site_fract_y
_atom_site_fract_z
_atom_type_partial_charge
C1    C     C_R   0.353017 0.500015 0.498535 0.871239
C2    C     C_R   0.437889 0.167745 0.451860 -0.170286
C3    C     C_R   0.439213 0.748323 0.451692 0.038582
C4    C     C_R   0.560780 0.251684 0.548349 0.036941
C5    C     C_R   0.560896 0.747914 0.547809 0.046295
C6    C     C_R   0.439128 0.252080 0.452123 0.047925
C7    C     C_R   0.500057 0.875629 0.499635 0.139150
C8    C     C_R   0.499952 0.124371 0.500393 0.139092
C9    C     C_1   0.500016 0.963411 0.499881 0.030013
C10   C     C_1   0.499997 0.036589 0.500156 0.029989
C11   C     C_R   0.487855 0.500391 0.260071 0.890520
C12   C     C_R   0.646981 0.499997 0.498770 0.868390
C13   C     C_R   0.511966 0.499609 0.740030 0.891777
C14   C     C_R   0.465496 0.649717 0.108206 -0.275287
C15   C     C_R   0.533774 0.350228 0.892039 -0.275593
C16   C     C_R   0.550056 0.644380 0.888423 -0.277594
C17   C     C_R   0.449250 0.355717 0.111849 -0.277338
C18   C     C_R   0.489630 0.721032 0.051834 0.389068
C19   C     C_R   0.509510 0.278958 0.948407 0.389303
C20   C     C_R   0.535003 0.718155 0.944235 0.389005
C21   C     C_R   0.464152 0.281917 0.056019 0.388783
C22   C     C_R   0.520690 0.572388 0.940073 0.030280
C23   C     C_R   0.886005 0.500209 0.455262 0.155253
C24   C     C_R   0.478680 0.427647 0.060115 0.030553
C25   C     C_R   0.486791 0.574474 0.058554 0.031334
C26   C     C_R   0.512568 0.425524 0.941624 0.031062
C27   C     C_R   0.523470 0.498612 0.875978 -0.169398
C28   C     C_R   0.476018 0.501398 0.124216 -0.168142
C29   C     C_R   0.847416 0.572957 0.464055 -0.150235
C30   C     C_R   0.152614 0.427424 0.460927 -0.149520
C31   C     C_R   0.152510 0.573005 0.462193 -0.151030
C32   C     C_R   0.847427 0.427371 0.463283 -0.151523
C33   C     C_R   0.769057 0.572993 0.480404 -0.188765
C34   C     C_R   0.113933 0.500259 0.453342 0.155247
C35   C     C_R   0.231014 0.427212 0.477488 -0.191532
C36   C     C_R   0.230912 0.573035 0.478749 -0.193242
C37   C     C_R   0.769066 0.427163 0.479634 -0.190752
C38   C     C_R   0.729501 0.500036 0.488094 -0.041138
C39   C     C_R   0.270517 0.500077 0.486697 -0.043062
C40   C     C_1   0.966111 0.500252 0.447182 -0.055331
C41   C     C_1   0.033762 0.500273 0.446542 -0.055413
C42   C     C_R   0.438019 0.832669 0.451040 -0.173901
C43   C     C_R   0.561974 0.167338 0.549028 -0.174412
C44   C     C_R   0.562137 0.832248 0.548096 -0.170661
Cl1   Cl    Cl    0.427117 0.194099 0.124534 -0.551961
Cl2   Cl    Cl    0.571892 0.806044 0.875721 -0.551364
Cl3   Cl    Cl    0.534952 0.187072 0.880250 -0.535608
Cl4   Cl    Cl    0.464036 0.812870 0.119991 -0.536210
H1    H     H_    0.429137 0.653724 0.189893 0.185896
H2    H     H_    0.260538 0.370276 0.482809 0.157425
H3    H     H_    0.260354 0.629906 0.485090 0.156351
H4    H     H_    0.739591 0.370229 0.485055 0.157304
H5    H     H_    0.389131 0.864017 0.412416 0.163993
H6    H     H_    0.610853 0.135994 0.587691 0.163894
H7    H     H_    0.611094 0.863271 0.586419 0.170902
H8    H     H_    0.388948 0.136717 0.413494 0.171095
H9    H     H_    0.391353 0.715795 0.413174 0.121363
H10   H     H_    0.608637 0.284220 0.586863 0.122383
H11   H     H_    0.608821 0.715071 0.586187 0.126894
H12   H     H_    0.570196 0.346119 0.810448 0.186106
H13   H     H_    0.391227 0.284915 0.413660 0.125860
H14   H     H_    0.585656 0.643606 0.805516 0.181478
H15   H     H_    0.413733 0.356579 0.194858 0.181278
H16   H     H_    0.877922 0.629359 0.459336 0.142345
H17   H     H_    0.122128 0.371073 0.455468 0.142411
H18   H     H_    0.121937 0.629404 0.457722 0.141752
H19   H     H_    0.877945 0.371020 0.457959 0.141832
H20   H     H_    0.739577 0.629871 0.486449 0.158302
N1    N     N_R   0.500000 0.707230 0.500000 -0.100277
N2    N     N_R   0.500000 0.292770 0.500000 -0.100279
O1    O     O_R   0.389110 0.566570 0.499990 -0.631801
O2    O     O_R   0.610890 0.433430 0.500010 -0.632311
O3    O     O_R   0.610890 0.566570 0.500010 -0.632875
O4    O     O_R   0.389110 0.433430 0.499990 -0.632328
O5    O     O_R   0.499990 0.566540 0.316770 -0.611016
O6    O     O_R   0.500010 0.433460 0.683230 -0.610277
O7    O     O_R   0.500010 0.566540 0.683230 -0.607157
O8    O     O_R   0.499990 0.433460 0.316770 -0.607923
Zn1   Zn    Zn3+2 0.500000 0.588860 0.500000 0.958441
Zn2   Zn    Zn3+2 0.500000 0.411140 0.500000 0.958434

loop_
_geom_bond_atom_site_label_1
_geom_bond_atom_site_label_2
_ccdc_geom_bond_type
C31   H18   S    
C3    C42   A    
C15   H12   S    
C14   C18   A    
C8    C43   A    
O1    Zn1   S    
C25   C28   A    
C15   C19   A    
C26   C27   A    
C1    O1    A    
C30   C35   A    
C1    O4    A    
C23   C29   A    
C6    H13   S    
C19   C21   A    
C24   C26   A    
C42   H5    S    
C19   Cl3   S    
C14   H1    S    
C23   C40   S    
C29   C33   A    
C7    C9    S    
C7    C42   A    
C5    N1    A    
C22   C25   A    
C9    C10   T    
C12   O2    A    
C29   H16   S    
O4    Zn2   S    
C12   O3    A    
C2    C6    A    
C34   C41   S    
C16   H14   S    
C4    N2    A    
C21   Cl1   S    
O7    Zn1   S    
C13   O7    A    
C31   C34   A    
C17   C24   A    
C5    H11   S    
N2    Zn2   S    
O6    Zn2   S    
C37   H4    S    
C30   C34   A    
C15   C26   A    
C7    C44   A    
C17   C21   A    
C35   C39   A    
C37   C38   A    
C11   O8    A    
C43   H6    S    
C13   O6    A    
C16   C20   A    
C35   H2    S    
O3    Zn1   S    
O8    Zn2   S    
C32   C37   A    
C36   H3    S    
C32   H19   S    
C3    H9    S    
C40   C41   T    
C5    C44   A    
C22   C27   A    
N1    Zn1   S    
C6    N2    A    
C16   C22   A    
C3    N1    A    
C36   C39   A    
C2    C8    A    
C24   C28   A    
C18   Cl4   S    
C4    C43   A    
C33   C38   A    
C23   C32   A    
O2    Zn2   S    
C2    H8    S    
C17   H15   S    
C44   H7    S    
C11   C28   S    
C18   C20   A    
C14   C25   A    
C12   C38   S    
C30   H17   S    
C1    C39   S    
C8    C10   S    
C4    H10   S    
C31   C36   A    
C13   C27   S    
C11   O5    A    
O5    Zn1   S    
C20   Cl2   S    
C33   H20   S    
