data_mof_unit_7445.cif
_audit_creation_date              2012-12-11T18:51:45-0500
_audit_creation_method            fapswitch 2.2
_symmetry_space_group_name_H-M    P1
_symmetry_Int_Tables_number       1
_space_group_crystal_system       triclinic
_cell_length_a                    8.217407
_cell_length_b                    15.047652
_cell_length_c                    14.911594
_cell_angle_alpha                 99.210204
_cell_angle_beta                  97.593132
_cell_angle_gamma                 99.009697
_cell_volume                      1774.10745476

loop_
_atom_site_label
_atom_site_type_symbol
_atom_type_description
_atom_site_fract_x
_atom_site_fract_y
_atom_site_fract_z
_atom_type_partial_charge
Ba1   Ba    Ba6+2 0.844890 0.542420 0.457460 1.742852
Ba2   Ba    Ba6+2 0.344950 0.457650 0.542550 1.676875
C1    C     C_3   0.637128 0.871449 0.219446 0.656749
C2    C     C_R   0.896076 0.445795 0.919202 -0.034954
C3    C     C_R   0.038215 0.460374 0.107203 -0.058425
C4    C     C_3   0.091478 0.728788 0.217643 0.421069
C5    C     C_R   0.876772 0.411243 0.071930 -0.038884
C6    C     C_R   0.806006 0.405487 0.980648 -0.074814
C7    C     C_R   0.108248 0.470066 0.201609 0.073431
C8    C     C_R   0.272631 0.516104 0.231121 -0.224783
C9    C     C_R   0.085580 0.523829 0.795697 0.037255
C10   C     C_R   0.155280 0.534895 0.890507 -0.038298
C11   C     C_R   0.061672 0.493459 0.951635 -0.003311
C12   C     C_3   0.553891 0.772886 0.218370 0.739557
C13   C     C_R   0.315716 0.585885 0.926407 -0.028488
C14   C     C_R   0.387514 0.590201 0.017333 -0.100350
C15   C     C_R   0.298474 0.548521 0.078338 -0.048456
C16   C     C_3   0.088267 0.756051 0.123155 0.225593
C17   C     C_R   0.132681 0.501045 0.045906 0.003980
C18   C     C_R   0.369084 0.554234 0.171278 -0.022910
C19   C     C_R   0.923867 0.474132 0.765165 -0.303973
C20   C     C_R   0.324370 0.823923 0.447662 -0.012678
C21   C     C_R   0.582783 0.791593 0.524164 0.142040
C22   C     C_R   0.768028 0.231983 0.534185 -0.294972
C23   C     C_3   0.446655 0.299729 0.251147 0.672334
C24   C     C_R   0.868107 0.173924 0.567109 0.013197
C25   C     C_R   0.804444 0.080669 0.558000 -0.127681
C26   C     C_R   0.638413 0.043334 0.513682 0.025948
C27   C     C_R   0.541543 0.103143 0.475519 -0.023096
C28   C     C_3   0.253720 0.751265 0.679486 0.638342
C29   C     C_R   0.566627 0.948441 0.503377 0.041737
C30   C     C_R   0.398425 0.916766 0.457932 -0.085231
C31   C     C_R   0.308148 0.977919 0.421879 -0.110570
C32   C     C_R   0.379774 0.067981 0.427877 -0.023436
C33   C     C_R   0.655173 0.884066 0.537436 -0.117584
C34   C     C_3   0.463670 0.268449 0.150332 0.207837
C35   C     C_R   0.418998 0.761681 0.478190 0.200140
C36   C     C_R   0.608753 0.197086 0.485060 0.009530
C37   C     C_3   0.171015 0.835317 0.696694 -0.351963
C38   C     C_3   0.920849 0.263818 0.341585 0.351888
C39   C     C_3   0.875088 0.159967 0.315993 -0.366214
C40   C     C_3   0.776262 0.663615 0.736881 0.312081
C41   C     C_3   0.817294 0.690623 0.841275 -0.367473
C42   C     C_3   0.118737 0.272678 0.789490 0.359813
C43   C     C_3   0.154158 0.250913 0.885967 0.213677
C44   C     C_3   0.573543 0.216520 0.734981 0.351175
C45   C     C_3   0.536940 0.122247 0.761099 0.219667
C46   C     C_R   0.826048 0.439069 0.826020 -0.006661
H1    H     H_    0.514780 0.768913 0.286596 -0.664760
H2    H     H_    0.843150 0.631173 0.872345 0.050245
H3    H     H_    0.709982 0.715152 0.868990 0.131451
H4    H     H_    0.443237 0.754265 0.163189 -0.163331
H5    H     H_    0.537493 0.364202 0.278038 0.049485
H6    H     H_    0.358855 0.211610 0.117048 0.061115
H7    H     H_    0.458133 0.326725 0.113128 -0.027644
H8    H     H_    0.695357 0.872908 0.156217 0.079979
H9    H     H_    0.176091 0.821666 0.129537 0.123861
H10   H     H_    0.986147 0.280403 0.775660 -0.040217
H11   H     H_    0.137922 0.309709 0.937157 0.037296
H12   H     H_    0.235921 0.882591 0.760858 0.107913
H13   H     H_    0.285658 0.240902 0.901592 0.049172
H14   H     H_    0.707620 0.231637 0.728533 -0.036890
H15   H     H_    0.496220 0.214166 0.667404 0.030814
H16   H     H_    0.560389 0.070066 0.705024 0.036044
H17   H     H_    0.996242 0.666112 0.211733 0.055868
H18   H     H_    0.403277 0.104963 0.768778 0.058045
H19   H     H_    0.513376 0.627924 0.039189 0.084658
H20   H     H_    0.390014 0.622524 0.884963 0.106776
H21   H     H_    0.328634 0.519017 0.301439 0.078267
H22   H     H_    0.869561 0.467456 0.693722 0.067510
H23   H     H_    0.175802 0.872420 0.638118 0.074249
H24   H     H_    0.181244 0.957139 0.386360 0.118670
H25   H     H_    0.779687 0.903454 0.575888 0.072208
H26   H     H_    0.216646 0.712986 0.239342 -0.136005
H27   H     H_    0.819026 0.303928 0.540539 0.060816
H28   H     H_    0.130778 0.703324 0.075009 -0.027542
H29   H     H_    0.196797 0.711840 0.610128 0.091782
H30   H     H_    0.820687 0.291417 0.372886 -0.025259
H31   H     H_    0.886123 0.642647 0.709963 -0.029583
H32   H     H_    0.669655 0.605364 0.719159 0.077738
H33   H     H_    0.827103 0.959588 0.288363 0.304004
H34   H     H_    0.039394 0.814767 0.704712 0.120175
H35   H     H_    0.474892 0.931011 0.277541 0.319305
H36   H     H_    0.209755 0.256292 0.237042 0.296697
H37   H     H_    0.617640 0.217934 0.078798 0.303999
H38   H     H_    0.200170 0.338486 0.787964 0.034817
H39   H     H_    0.084973 0.119223 0.865383 0.326082
H40   H     H_    0.593007 0.149468 0.894094 0.316576
H41   H     H_    0.801783 0.376974 0.114363 0.139839
H42   H     H_    0.679977 0.368000 0.959119 0.099696
H43   H     H_    0.399376 0.637313 0.424061 0.304340
H44   H     H_    0.888513 0.039507 0.584645 0.081172
H45   H     H_    0.037471 0.281594 0.392139 0.074454
H46   H     H_    0.303082 0.109497 0.395392 0.106256
H47   H     H_    0.862573 0.705095 0.061858 0.303947
H48   H     H_    0.473486 0.810916 0.745572 0.319425
H49   H     H_    0.751776 0.139371 0.270744 0.194697
H50   H     H_    0.869212 0.129573 0.378609 0.052668
H51   H     H_    0.971082 0.132535 0.279416 0.107977
H52   H     H_    0.929008 0.745963 0.861138 0.141589
O1    O     O_2   0.826410 0.445300 0.275350 -0.481510
O2    O     O_2   0.203522 0.176985 0.553998 -0.499569
O3    O     O_3   0.153287 0.202165 0.724788 -0.613871
O4    O     O_3   0.098900 0.448430 0.388910 -0.469160
O5    O     O_3   0.590780 0.611410 0.551120 -0.455737
O6    O     O_2   0.326530 0.274990 0.446290 -0.453905
O7    O     O_3   0.477097 0.230822 0.301248 -0.644633
O8    O     O_2   0.490287 0.452109 0.824480 -0.499108
O9    O     O_3   0.532884 0.282314 0.802342 -0.623204
O10   O     O_3   0.628630 0.613330 0.338230 -0.458661
O11   O     O_2   0.707088 0.546058 0.178122 -0.503744
O12   O     O_3   0.736281 0.739380 0.701060 -0.608743
O13   O     O_3   0.941541 0.298957 0.261688 -0.582096
O14   O     O_3   0.667383 0.714714 0.198809 -0.582977
O15   O     O_2   0.863180 0.725040 0.553770 -0.501338
O16   O     O_3   0.060890 0.661420 0.386090 -0.439284
O17   O     O_2   0.979369 0.821751 0.446396 -0.451012
O18   O     O_3   0.760196 0.902011 0.297859 -0.680665
O19   O     O_3   0.518229 0.928992 0.218461 -0.762874
O20   O     O_3   0.285477 0.316646 0.255425 -0.803921
O21   O     O_3   0.615205 0.238040 0.145253 -0.711683
O22   O     O_3   0.042622 0.173236 0.894483 -0.670778
O23   O     O_3   0.057066 0.800775 0.280721 -0.560256
O24   O     O_3   0.641535 0.119221 0.842419 -0.669213
O25   O     O_3   0.345465 0.672045 0.469857 -0.711902
O26   O     O_3   0.927647 0.767369 0.087856 -0.701048
O27   O     O_3   0.423893 0.780976 0.681343 -0.769455
O28   O     O_2   0.363300 0.554730 0.724710 -0.458354
O29   O     O_3   0.090820 0.551650 0.611100 -0.492995
O30   O     O_3   0.561090 0.386750 0.661790 -0.482042
O31   O     O_3   0.233083 0.700992 0.750039 -0.665250
O32   O     O_3   0.598940 0.388670 0.448890 -0.483995
O33   O     O_3   0.128820 0.338650 0.613920 -0.487843
P1    P     P_3+3 0.996530 0.418490 0.288400 1.051319
P2    P     P_3+3 0.693090 0.712100 0.580610 1.064804
P3    P     P_3+3 0.104896 0.778922 0.392267 1.053220
P4    P     P_3+3 0.193180 0.581580 0.711620 0.998776
P5    P     P_3+3 0.088101 0.221510 0.614130 0.947207
P6    P     P_3+3 0.589688 0.606183 0.219394 0.992031
P7    P     P_3+3 0.505320 0.272838 0.420213 0.968578
P8    P     P_3+3 0.603740 0.391211 0.779951 0.932879

loop_
_geom_bond_atom_site_label_1
_geom_bond_atom_site_label_2
_ccdc_geom_bond_type
C40   H32   S    
C38   H45   S    
H40   O24   S    
Ba1   O32   S    
C15   C18   A    
O11   P6    D    
C5    C6    A    
O1    P1    D    
C26   C27   A    
C24   C25   A    
C20   C30   A    
C44   H14   S    
C18   P6    S    
O10   P6    S    
C23   H5    S    
Ba1   O29   S    
C12   H1    S    
C37   H12   S    
C13   C14   A    
C5    H41   S    
C2    C11   A    
Ba2   O29   S    
Ba1   Ba2   S    
O2    P5    D    
H35   O19   S    
O7    P7    S    
O30   P8    S    
C40   O12   S    
C31   H24   S    
C15   C17   A    
C28   O27   S    
C28   H29   S    
O6    P7    D    
C4    H17   S    
C12   H4    S    
C29   C30   A    
C42   H10   S    
C14   C15   A    
C27   C36   A    
C28   C37   S    
Ba2   O32   S    
C39   H51   S    
H37   O21   S    
Ba1   O16   S    
C7    C8    A    
C45   H18   S    
C2    C6    A    
O5    P2    S    
C19   C46   A    
C7    P1    S    
C40   H31   S    
C4    O23   S    
C42   H38   S    
O8    P8    D    
C42   O3    S    
C4    H26   S    
C35   O25   S    
C4    C16   S    
Ba2   O33   S    
C11   C17   A    
C19   H22   S    
C36   P7    S    
C1    O19   S    
C41   H52   S    
O3    P5    S    
C8    C18   A    
C45   H16   S    
C3    C5    A    
C21   C35   A    
C20   C35   A    
C27   C32   A    
Ba2   O6    S    
H48   O27   S    
C20   P3    S    
O28   P4    D    
C3    C7    A    
O31   P4    S    
C1    O18   S    
Ba1   O10   S    
C1    H8    S    
C16   H9    S    
C22   C36   A    
C38   O13   S    
C10   C13   A    
Ba2   O4    S    
H36   O20   S    
C31   C32   A    
C25   H44   S    
C41   H2    S    
C14   H19   S    
O14   P6    S    
Ba1   O4    S    
C1    C12   S    
O4    P1    S    
O16   P3    S    
C38   H30   S    
C38   C39   S    
C21   C33   A    
O13   P1    S    
C39   H49   S    
C6    H42   S    
C40   C41   S    
O12   P2    S    
Ba1   P1    S    
C23   O20   S    
Ba1   O1    S    
C42   C43   S    
C23   O7    S    
C2    C46   A    
C44   C45   S    
C33   H25   S    
C16   H28   S    
H43   O25   S    
Ba2   P4    S    
C26   C29   A    
C32   H46   S    
C37   H34   S    
C22   C24   A    
C24   P5    S    
H39   O22   S    
C9    C10   A    
C22   H27   S    
C3    C17   A    
C43   O22   S    
O32   P7    S    
C44   H15   S    
Ba2   O5    S    
C21   P2    S    
O23   P3    S    
C30   C31   A    
C34   O21   S    
C9    P4    S    
C34   H7    S    
C12   O14   S    
C16   O26   S    
H47   O26   S    
C41   H3    S    
C45   O24   S    
O15   P2    D    
C13   H20   S    
H33   O18   S    
C43   H13   S    
Ba2   O30   S    
C9    C19   A    
C46   P8    S    
C29   C33   A    
C34   H6    S    
C23   C34   S    
C8    H21   S    
O33   P5    S    
O29   P4    S    
C10   C11   A    
C43   H11   S    
C44   O9    S    
C25   C26   A    
C37   H23   S    
C39   H50   S    
O9    P8    S    
Ba1   O15   S    
Ba1   P2    S    
O17   P3    D    
C28   O31   S    
Ba1   O5    S    
Ba2   O28   S    
