data_mof_unit_64590.cif
_audit_creation_date              2012-12-10T19:30:35-0500
_audit_creation_method            fapswitch 2.2
_symmetry_space_group_name_H-M    P1
_symmetry_Int_Tables_number       1
_space_group_crystal_system       monoclinic
_cell_length_a                    25.5797
_cell_length_b                    43.196133
_cell_length_c                    25.077109
_cell_angle_alpha                 90.0
_cell_angle_beta                  120.789355
_cell_angle_gamma                 90.0
_cell_volume                      23803.3872157

loop_
_atom_site_label
_atom_site_type_symbol
_atom_type_description
_atom_site_fract_x
_atom_site_fract_y
_atom_site_fract_z
_atom_type_partial_charge
C1    C     C_R   0.641669 0.249999 0.000027 0.833487
C2    C     C_R   0.358428 0.749917 0.000148 0.816190
C3    C     C_R   0.358331 0.249999 0.999973 0.833487
C4    C     C_R   0.641572 0.749917 0.999852 0.816190
C5    C     C_R   0.141572 0.750083 0.999852 0.816195
C6    C     C_R   0.858331 0.250001 0.999973 0.833508
C7    C     C_R   0.858428 0.750083 0.000148 0.816195
C8    C     C_R   0.141669 0.250001 0.000027 0.833508
C9    C     C_R   0.500000 0.032547 0.000000 0.099717
C10   C     C_R   0.500000 0.967452 0.000000 0.100188
C11   C     C_R   0.000000 0.532548 0.000000 0.100095
C12   C     C_R   0.000000 0.467453 0.000000 0.099622
C13   C     C_3   0.245990 0.229318 0.957918 -0.180103
C14   C     C_3   0.724275 0.778220 0.984284 -0.235474
C15   C     C_3   0.754009 0.229318 0.042081 -0.180104
C16   C     C_3   0.275725 0.778220 0.015716 -0.235472
C17   C     C_3   0.775725 0.721779 0.015716 -0.235689
C18   C     C_3   0.254010 0.270682 0.042082 -0.180290
C19   C     C_3   0.224275 0.721779 0.984284 -0.235690
C20   C     C_3   0.745991 0.270682 0.957919 -0.180289
C21   C     C_3   0.760636 0.742385 0.056716 -0.228466
C22   C     C_3   0.260151 0.278428 0.985205 -0.236368
C23   C     C_3   0.239364 0.742385 0.943284 -0.228467
C24   C     C_3   0.739849 0.278428 0.014796 -0.236368
C25   C     C_3   0.239849 0.221572 0.014795 -0.236154
C26   C     C_3   0.739364 0.757615 0.943285 -0.228316
C27   C     C_3   0.760151 0.221572 0.985204 -0.236154
C28   C     C_3   0.260636 0.757615 0.056715 -0.228317
C29   C     C_3   0.698518 0.749672 0.999362 -0.037975
C30   C     C_3   0.301061 0.249881 0.999881 -0.038824
C31   C     C_3   0.301482 0.749672 0.000638 -0.037973
C32   C     C_3   0.698939 0.249881 0.000119 -0.038824
C33   C     C_3   0.198939 0.250119 0.000119 -0.038870
C34   C     C_3   0.801482 0.750327 0.000639 -0.037955
C35   C     C_3   0.801061 0.250119 0.999881 -0.038870
C36   C     C_3   0.198518 0.750327 0.999361 -0.037955
C37   C     C_3   0.712910 0.729137 0.958502 0.250031
C38   C     C_3   0.295492 0.242166 0.056358 0.199778
C39   C     C_3   0.287090 0.729136 0.041498 0.250031
C40   C     C_3   0.704508 0.242166 0.943642 0.199778
C41   C     C_3   0.204508 0.257834 0.943642 0.199752
C42   C     C_3   0.787090 0.770863 0.041499 0.250105
C43   C     C_3   0.795493 0.257834 0.056358 0.199752
C44   C     C_3   0.212910 0.770863 0.958501 0.250105
C45   C     C_R   0.857191 0.278749 0.729896 0.165330
C46   C     C_R   0.143536 0.721338 0.270161 0.161767
C47   C     C_R   0.142809 0.278749 0.270104 0.165330
C48   C     C_R   0.856464 0.721338 0.729839 0.161767
C49   C     C_R   0.356465 0.778662 0.729839 0.161818
C50   C     C_R   0.642809 0.221250 0.270104 0.165380
C51   C     C_R   0.643537 0.778662 0.270161 0.161819
C52   C     C_R   0.357191 0.221250 0.729896 0.165380
C53   C     C_R   0.824042 0.277996 0.665130 -0.141606
C54   C     C_R   0.176677 0.722117 0.334919 -0.143682
C55   C     C_R   0.175958 0.277996 0.334870 -0.141606
C56   C     C_R   0.823323 0.722117 0.665081 -0.143682
C57   C     C_R   0.323324 0.777883 0.665081 -0.143807
C58   C     C_R   0.675957 0.222003 0.334869 -0.141732
C59   C     C_R   0.676678 0.777883 0.334919 -0.143808
C60   C     C_R   0.324043 0.222003 0.665130 -0.141730
C61   C     C_R   0.816036 0.250179 0.633246 0.099424
C62   C     C_R   0.184065 0.749877 0.366772 0.098731
C63   C     C_R   0.183964 0.250179 0.366754 0.099424
C64   C     C_R   0.815935 0.749876 0.633228 0.098731
C65   C     C_R   0.315935 0.750124 0.633227 0.098598
C66   C     C_R   0.683963 0.249821 0.366754 0.099294
C67   C     C_R   0.684065 0.750124 0.366773 0.098599
C68   C     C_R   0.316036 0.249821 0.633246 0.099294
C69   C     C_R   0.843074 0.223017 0.666411 -0.144736
C70   C     C_R   0.156430 0.776950 0.333589 -0.147566
C71   C     C_R   0.156925 0.223017 0.333589 -0.144737
C72   C     C_R   0.843571 0.776950 0.666411 -0.147565
C73   C     C_R   0.343571 0.723050 0.666410 -0.147231
C74   C     C_R   0.656925 0.276982 0.333589 -0.144410
C75   C     C_R   0.656427 0.723050 0.333589 -0.147232
C76   C     C_R   0.343075 0.276982 0.666411 -0.144411
C77   C     C_R   0.876288 0.223477 0.731099 -0.204640
C78   C     C_R   0.123210 0.776468 0.268903 -0.206330
C79   C     C_R   0.123711 0.223477 0.268900 -0.204639
C80   C     C_R   0.876791 0.776468 0.731097 -0.206331
C81   C     C_R   0.376790 0.723532 0.731096 -0.206069
C82   C     C_R   0.623711 0.276522 0.268901 -0.204405
C83   C     C_R   0.623208 0.723532 0.268903 -0.206068
C84   C     C_R   0.376289 0.276522 0.731099 -0.204405
C85   C     C_R   0.416496 0.249556 0.831766 0.825317
C86   C     C_R   0.583523 0.750441 0.168241 0.813565
C87   C     C_R   0.583504 0.249556 0.168234 0.825319
C88   C     C_R   0.416476 0.750441 0.831759 0.813563
C89   C     C_R   0.916476 0.749559 0.831759 0.813483
C90   C     C_R   0.083504 0.250444 0.168234 0.825241
C91   C     C_R   0.083524 0.749559 0.168241 0.813484
C92   C     C_R   0.916496 0.250444 0.831766 0.825240
C93   C     C_R   0.882973 0.251109 0.763535 -0.053342
C94   C     C_R   0.117106 0.748900 0.236483 -0.057676
C95   C     C_R   0.117027 0.251109 0.236465 -0.053342
C96   C     C_R   0.882894 0.748900 0.763517 -0.057677
C97   C     C_R   0.382894 0.751100 0.763517 -0.057830
C98   C     C_R   0.617027 0.248890 0.236465 -0.053495
C99   C     C_R   0.617106 0.751100 0.236483 -0.057832
C100  C     C_R   0.382973 0.248890 0.763535 -0.053495
C101  C     C_R   0.811733 0.242350 0.533479 -0.227988
C102  C     C_R   0.188125 0.757350 0.466491 -0.230270
C103  C     C_R   0.188267 0.242350 0.466521 -0.227988
C104  C     C_R   0.811875 0.757349 0.533509 -0.230269
C105  C     C_R   0.311876 0.742651 0.533509 -0.230197
C106  C     C_R   0.688266 0.257649 0.466521 -0.227918
C107  C     C_R   0.688124 0.742651 0.466491 -0.230197
C108  C     C_R   0.311734 0.257649 0.533479 -0.227918
C109  C     C_R   0.780909 0.242581 0.468749 0.182252
C110  C     C_R   0.218896 0.757061 0.531214 0.182828
C111  C     C_R   0.219091 0.242581 0.531251 0.182252
C112  C     C_R   0.781104 0.757061 0.468786 0.182827
C113  C     C_R   0.281105 0.742939 0.468786 0.182786
C114  C     C_R   0.719090 0.257418 0.531251 0.182212
C115  C     C_R   0.718895 0.742939 0.531214 0.182786
C116  C     C_R   0.280910 0.257418 0.468749 0.182212
C117  C     C_R   0.718599 0.250179 0.434916 0.003384
C118  C     C_R   0.281346 0.749764 0.565075 0.004090
C119  C     C_R   0.281401 0.250179 0.565084 0.003384
C120  C     C_R   0.718654 0.749764 0.434926 0.004091
C121  C     C_R   0.218654 0.750236 0.434925 0.004051
C122  C     C_R   0.781400 0.249820 0.565084 0.003349
C123  C     C_R   0.781346 0.750236 0.565075 0.004051
C124  C     C_R   0.218599 0.249820 0.434916 0.003349
C125  C     C_R   0.485901 0.615359 0.039365 -0.173134
C126  C     C_R   0.513942 0.384648 0.960518 -0.179570
C127  C     C_R   0.514099 0.615359 0.960634 -0.173134
C128  C     C_R   0.486057 0.384648 0.039482 -0.179570
C129  C     C_R   0.985920 0.115352 0.039378 -0.179620
C130  C     C_R   0.014239 0.884641 0.960739 -0.173291
C131  C     C_R   0.014080 0.115352 0.960622 -0.179619
C132  C     C_R   0.985761 0.884641 0.039261 -0.173291
C133  C     C_R   0.485884 0.583095 0.039340 -0.170803
C134  C     C_R   0.513968 0.416913 0.960550 -0.171820
C135  C     C_R   0.514116 0.583095 0.960660 -0.170803
C136  C     C_R   0.486032 0.416913 0.039450 -0.171820
C137  C     C_R   0.985939 0.083087 0.039380 -0.171918
C138  C     C_R   0.014210 0.916905 0.960731 -0.170960
C139  C     C_R   0.014061 0.083087 0.960620 -0.171919
C140  C     C_R   0.985789 0.916905 0.039268 -0.170960
C141  C     C_R   0.500000 0.566690 1.000000 0.107245
C142  C     C_R   0.500000 0.433316 1.000000 0.110358
C143  C     C_R   0.000000 0.066682 0.000000 0.110485
C144  C     C_R   0.000000 0.933308 0.000000 0.107307
C145  C     C_R   0.500000 0.631776 0.000000 -0.013156
C146  C     C_R   0.500000 0.368228 0.000000 -0.006460
C147  C     C_R   1.000000 0.131772 0.000000 -0.006433
C148  C     C_R   0.000000 0.868223 0.000000 -0.013071
C149  C     C_R   0.546447 0.516131 0.998194 -0.171176
C150  C     C_R   0.453556 0.483870 0.001812 -0.171848
C151  C     C_R   0.453553 0.516131 0.001806 -0.171176
C152  C     C_R   0.546444 0.483870 0.998188 -0.171848
C153  C     C_R   0.974312 0.016123 0.943822 -0.171889
C154  C     C_R   0.025682 0.983862 0.056177 -0.171245
C155  C     C_R   0.025688 0.016123 0.056178 -0.171889
C156  C     C_R   0.974318 0.983862 0.943823 -0.171245
C157  C     C_R   0.500000 0.467467 1.000000 0.101515
C158  C     C_R   0.500000 0.532537 1.000000 0.101898
C159  C     C_R   0.000000 0.967458 0.000000 0.101944
C160  C     C_R   0.000000 0.032529 0.000000 0.101033
C161  C     C_R   0.500000 0.334158 0.000000 0.780007
C162  C     C_R   0.500000 0.665844 0.000000 0.783380
C163  C     C_R   0.000000 0.834156 0.000000 0.783348
C164  C     C_R   0.000000 0.165842 0.000000 0.779969
C165  C     C_R   0.500000 0.165886 0.000000 0.810905
C166  C     C_R   0.500000 0.834114 0.000000 0.800638
C167  C     C_R   1.000000 0.665886 0.000000 0.800515
C168  C     C_R   0.000000 0.334114 0.000000 0.810786
C169  C     C_R   0.447277 0.884603 0.958274 -0.158956
C170  C     C_R   0.552708 0.115398 0.041758 -0.158384
C171  C     C_R   0.552723 0.884603 0.041726 -0.158957
C172  C     C_R   0.447292 0.115398 0.958242 -0.158384
C173  C     C_R   0.947290 0.384602 0.958246 -0.158614
C174  C     C_R   0.052724 0.615397 0.041723 -0.159180
C175  C     C_R   0.052710 0.384602 0.041754 -0.158614
C176  C     C_R   0.947276 0.615397 0.958277 -0.159180
C177  C     C_R   0.447303 0.916872 0.958257 -0.166221
C178  C     C_R   0.552684 0.083129 0.041773 -0.165839
C179  C     C_R   0.552697 0.916872 0.041743 -0.166221
C180  C     C_R   0.447316 0.083129 0.958227 -0.165840
C181  C     C_R   0.947315 0.416871 0.958230 -0.166296
C182  C     C_R   0.052698 0.583128 0.041740 -0.166677
C183  C     C_R   0.052685 0.416871 0.041770 -0.166296
C184  C     C_R   0.947302 0.583128 0.958260 -0.166677
C185  C     C_R   0.500000 0.933285 0.000000 0.102874
C186  C     C_R   0.500000 0.066715 0.000000 0.104451
C187  C     C_R   1.000000 0.433285 0.000000 0.104589
C188  C     C_R   1.000000 0.566715 0.000000 0.103008
C189  C     C_R   0.500000 0.868184 0.000000 -0.019689
C190  C     C_R   0.500000 0.131817 0.000000 -0.017220
C191  C     C_R   0.000000 0.368183 0.000000 -0.017071
C192  C     C_R   1.000000 0.631816 0.000000 -0.019546
C193  C     C_R   0.527878 0.983865 0.056250 -0.169101
C194  C     C_R   0.472123 0.016133 0.943750 -0.169031
C195  C     C_R   0.472122 0.983865 0.943750 -0.169100
C196  C     C_R   0.527877 0.016133 0.056250 -0.169031
C197  C     C_R   0.027881 0.483867 0.056250 -0.169608
C198  C     C_R   0.972118 0.516135 0.943750 -0.169677
C199  C     C_R   0.972119 0.483867 0.943750 -0.169608
C200  C     C_R   0.027882 0.516135 0.056250 -0.169677
H1    H     H_    0.405955 0.872539 0.925636 0.181355
H2    H     H_    0.594019 0.127462 0.074422 0.177575
H3    H     H_    0.594045 0.872539 0.074364 0.181355
H4    H     H_    0.405981 0.127462 0.925578 0.177575
H5    H     H_    0.905978 0.372538 0.925584 0.177488
H6    H     H_    0.094047 0.627461 0.074359 0.181276
H7    H     H_    0.094021 0.372538 0.074416 0.177488
H8    H     H_    0.905953 0.627461 0.925641 0.181276
H9    H     H_    0.895980 0.202082 0.755886 0.165846
H10   H     H_    0.103043 0.797804 0.244110 0.169553
H11   H     H_    0.104019 0.202082 0.244114 0.165846
H12   H     H_    0.896958 0.797804 0.755890 0.169553
H13   H     H_    0.396957 0.702196 0.755889 0.169861
H14   H     H_    0.604019 0.297918 0.244115 0.166153
H15   H     H_    0.603039 0.702197 0.244110 0.169864
H16   H     H_    0.395981 0.297918 0.755885 0.166154
H17   H     H_    0.859820 0.236820 0.559344 0.182439
H18   H     H_    0.139932 0.762638 0.440599 0.181403
H19   H     H_    0.140180 0.236821 0.440656 0.182439
H20   H     H_    0.860068 0.762638 0.559401 0.181403
H21   H     H_    0.360068 0.737362 0.559400 0.181432
H22   H     H_    0.640179 0.263179 0.440656 0.182462
H23   H     H_    0.639932 0.737362 0.440600 0.181431
H24   H     H_    0.359821 0.263178 0.559344 0.182462
H25   H     H_    0.474997 0.627417 0.070312 0.173430
H26   H     H_    0.524713 0.372591 0.929473 0.165133
H27   H     H_    0.525003 0.627417 0.929688 0.173430
H28   H     H_    0.475287 0.372591 0.070527 0.165133
H29   H     H_    0.974722 0.127409 0.070101 0.165101
H30   H     H_    0.025571 0.872583 0.930116 0.173451
H31   H     H_    0.025278 0.127409 0.929899 0.165101
H32   H     H_    0.974429 0.872583 0.069884 0.173451
H33   H     H_    0.475573 0.570961 0.070652 0.140035
H34   H     H_    0.524167 0.429050 0.929158 0.137694
H35   H     H_    0.524427 0.570961 0.929348 0.140035
H36   H     H_    0.475832 0.429050 0.070842 0.137694
H37   H     H_    0.974209 0.070953 0.069622 0.137539
H38   H     H_    0.026051 0.929042 0.930577 0.140088
H39   H     H_    0.025791 0.070953 0.930378 0.137539
H40   H     H_    0.973949 0.929042 0.069423 0.140088
H41   H     H_    0.583257 0.528262 0.997715 0.138261
H42   H     H_    0.416755 0.471736 0.002301 0.137430
H43   H     H_    0.416743 0.528262 0.002284 0.138261
H44   H     H_    0.583245 0.471736 0.997699 0.137430
H45   H     H_    0.953417 0.028254 0.899849 0.137813
H46   H     H_    0.046566 0.971728 0.100147 0.138036
H47   H     H_    0.046583 0.028254 0.100151 0.137813
H48   H     H_    0.953434 0.971728 0.899853 0.138036
H49   H     H_    0.405875 0.929004 0.926113 0.142677
H50   H     H_    0.594103 0.070998 0.073942 0.141025
H51   H     H_    0.594125 0.929004 0.073887 0.142677
H52   H     H_    0.405897 0.070998 0.926058 0.141025
H53   H     H_    0.905895 0.429002 0.926065 0.140770
H54   H     H_    0.094127 0.570996 0.073882 0.142427
H55   H     H_    0.094105 0.429002 0.073935 0.140770
H56   H     H_    0.905873 0.570996 0.926118 0.142427
H57   H     H_    0.548887 0.971736 0.100228 0.142265
H58   H     H_    0.451117 0.028262 0.899771 0.142496
H59   H     H_    0.451113 0.971736 0.899772 0.142265
H60   H     H_    0.548883 0.028262 0.100229 0.142496
H61   H     H_    0.048891 0.471738 0.100229 0.142518
H62   H     H_    0.951105 0.528264 0.899772 0.142287
H63   H     H_    0.951109 0.471738 0.899771 0.142518
H64   H     H_    0.048895 0.528264 0.100228 0.142287
H65   H     H_    0.768542 0.736182 0.103243 0.171496
H66   H     H_    0.269296 0.301667 0.972864 0.166434
H67   H     H_    0.231458 0.736182 0.896757 0.171496
H68   H     H_    0.730704 0.301667 0.027137 0.166433
H69   H     H_    0.230704 0.198333 0.027136 0.166711
H70   H     H_    0.731458 0.763817 0.896758 0.171519
H71   H     H_    0.769296 0.198333 0.972863 0.166710
H72   H     H_    0.268542 0.763817 0.103242 0.171519
H73   H     H_    0.243348 0.212438 0.923239 0.181941
H74   H     H_    0.702395 0.801371 0.971481 0.167755
H75   H     H_    0.756651 0.212437 0.076760 0.181940
H76   H     H_    0.297605 0.801372 0.028519 0.167754
H77   H     H_    0.797605 0.698628 0.028519 0.167553
H78   H     H_    0.256652 0.287562 0.076761 0.181844
H79   H     H_    0.202395 0.698628 0.971481 0.167553
H80   H     H_    0.743348 0.287563 0.923239 0.181844
H81   H     H_    0.804825 0.299227 0.639422 0.172032
H82   H     H_    0.196372 0.700944 0.360653 0.172803
H83   H     H_    0.195175 0.299227 0.360577 0.172032
H84   H     H_    0.803627 0.700944 0.639347 0.172803
H85   H     H_    0.303628 0.799056 0.639348 0.172709
H86   H     H_    0.695173 0.200772 0.360577 0.171937
H87   H     H_    0.696375 0.799056 0.360653 0.172710
H88   H     H_    0.304826 0.200772 0.639423 0.171937
H89   H     H_    0.837885 0.201438 0.642164 0.154372
H90   H     H_    0.161145 0.798479 0.357820 0.155418
H91   H     H_    0.162114 0.201438 0.357835 0.154372
H92   H     H_    0.838856 0.798479 0.642180 0.155418
H93   H     H_    0.338856 0.701522 0.642179 0.155732
H94   H     H_    0.662114 0.298561 0.357836 0.154685
H95   H     H_    0.661141 0.701522 0.357820 0.155731
H96   H     H_    0.337886 0.298561 0.642164 0.154685
O1    O     O_3   0.500000 0.250030 0.000000 -0.495274
O2    O     O_3   0.500000 0.749970 0.000000 -0.498542
O3    O     O_3   0.000000 0.750030 0.000000 -0.498486
O4    O     O_3   1.000000 0.249970 0.000000 -0.495231
O5    O     O_R   0.635440 0.231860 0.036300 -0.641385
O6    O     O_R   0.364560 0.768140 0.963700 -0.632485
O7    O     O_R   0.364560 0.231860 0.963700 -0.641384
O8    O     O_R   0.635440 0.768140 0.036300 -0.632484
O9    O     O_R   0.135440 0.731860 0.036300 -0.632516
O10   O     O_R   0.864560 0.268140 0.963700 -0.641441
O11   O     O_R   0.864560 0.731860 0.963700 -0.632517
O12   O     O_R   0.135440 0.268140 0.036300 -0.641440
O13   O     O_R   0.461440 0.268210 0.861400 -0.635961
O14   O     O_R   0.538560 0.731790 0.138600 -0.637040
O15   O     O_R   0.538560 0.268210 0.138600 -0.635961
O16   O     O_R   0.461440 0.731790 0.861400 -0.637039
O17   O     O_R   0.961440 0.768210 0.861400 -0.637123
O18   O     O_R   0.038560 0.231790 0.138600 -0.636016
O19   O     O_R   0.038560 0.768210 0.138600 -0.637123
O20   O     O_R   0.961440 0.231790 0.861400 -0.636015
O21   O     O_R   0.512550 0.319330 0.963650 -0.647908
O22   O     O_R   0.487450 0.680670 0.036350 -0.640024
O23   O     O_R   0.487450 0.319330 0.036350 -0.647909
O24   O     O_R   0.512550 0.680670 0.963650 -0.640023
O25   O     O_R   0.012550 0.819330 0.963650 -0.640051
O26   O     O_R   0.987450 0.180670 0.036350 -0.647921
O27   O     O_R   0.987450 0.819330 0.036350 -0.640052
O28   O     O_R   0.012550 0.180670 0.963650 -0.647920
O29   O     O_R   0.548940 0.180730 0.036330 -0.632616
O30   O     O_R   0.451060 0.819270 0.963670 -0.632188
O31   O     O_R   0.451060 0.180730 0.963670 -0.632615
O32   O     O_R   0.548940 0.819270 0.036330 -0.632188
O33   O     O_R   0.048940 0.680730 0.036330 -0.632218
O34   O     O_R   0.951060 0.319270 0.963670 -0.632650
O35   O     O_R   0.951060 0.680730 0.963670 -0.632218
O36   O     O_R   0.048940 0.319270 0.036330 -0.632650
O37   O     O_R   0.399960 0.231880 0.861420 -0.612369
O38   O     O_R   0.600040 0.768120 0.138580 -0.609568
O39   O     O_R   0.600040 0.231880 0.138580 -0.612369
O40   O     O_R   0.399960 0.768120 0.861420 -0.609568
O41   O     O_R   0.899960 0.731880 0.861420 -0.609564
O42   O     O_R   0.100040 0.268120 0.138580 -0.612378
O43   O     O_R   0.100040 0.731880 0.138580 -0.609564
O44   O     O_R   0.899960 0.268120 0.861420 -0.612378
O45   O     O_R   0.599090 0.268200 0.963630 -0.626136
O46   O     O_R   0.400910 0.731800 0.036370 -0.620678
O47   O     O_R   0.400910 0.268200 0.036370 -0.626136
O48   O     O_R   0.599090 0.731800 0.963630 -0.620678
O49   O     O_R   0.099090 0.768200 0.963630 -0.620665
O50   O     O_R   0.900910 0.231800 0.036370 -0.626056
O51   O     O_R   0.900910 0.768200 0.036370 -0.620665
O52   O     O_R   0.099090 0.231800 0.963630 -0.626055
Zn1   Zn    Zn3+2 0.430120 0.224080 0.948100 1.015611
Zn2   Zn    Zn3+2 0.569880 0.775920 0.051900 1.011311
Zn3   Zn    Zn3+2 0.569880 0.224080 0.051900 1.015611
Zn4   Zn    Zn3+2 0.430120 0.775920 0.948100 1.011310
Zn5   Zn    Zn3+2 0.930120 0.724080 0.948100 1.011216
Zn6   Zn    Zn3+2 0.069880 0.275920 0.051900 1.015493
Zn7   Zn    Zn3+2 0.069880 0.724080 0.051900 1.011216
Zn8   Zn    Zn3+2 0.930120 0.275920 0.948100 1.015493
Zn9   Zn    Zn3+2 0.517960 0.275990 0.948070 0.992575
Zn10  Zn    Zn3+2 0.482040 0.724010 0.051930 0.997065
Zn11  Zn    Zn3+2 0.482040 0.275990 0.051930 0.992575
Zn12  Zn    Zn3+2 0.517960 0.724010 0.948070 0.997066
Zn13  Zn    Zn3+2 0.017960 0.775990 0.948070 0.996974
Zn14  Zn    Zn3+2 0.982040 0.224010 0.051930 0.992538
Zn15  Zn    Zn3+2 0.982040 0.775990 0.051930 0.996974
Zn16  Zn    Zn3+2 0.017960 0.224010 0.948070 0.992538
I1    I     I_    0.832078 0.233018 0.425552 -0.304030
I2    I     I_    0.167472 0.766074 0.574350 -0.310826
I3    I     I_    0.167922 0.233019 0.574448 -0.304030
I4    I     I_    0.832529 0.766073 0.425650 -0.310826
I5    I     I_    0.332528 0.733926 0.425649 -0.310721
I6    I     I_    0.667921 0.266981 0.574448 -0.303965
I7    I     I_    0.667471 0.733927 0.574350 -0.310721
I8    I     I_    0.332079 0.266980 0.425552 -0.303965
I9    I     I_    0.656823 0.695253 0.891146 -0.307303
I10   I     I_    0.368556 0.229591 0.146338 -0.324299
I11   I     I_    0.343177 0.695253 0.108854 -0.307304
I12   I     I_    0.631444 0.229592 0.853661 -0.324299
I13   I     I_    0.131444 0.270408 0.853662 -0.324471
I14   I     I_    0.843178 0.804746 0.108856 -0.306563
I15   I     I_    0.868556 0.270408 0.146339 -0.324470
I16   I     I_    0.156822 0.804746 0.891144 -0.306564
I17   I     I_    0.869360 0.323054 0.771766 -0.313414
I18   I     I_    0.132487 0.677063 0.228465 -0.319729
I19   I     I_    0.130640 0.323054 0.228234 -0.313415
I20   I     I_    0.867512 0.677062 0.771535 -0.319728
I21   I     I_    0.367513 0.822938 0.771536 -0.319810
I22   I     I_    0.630639 0.176946 0.228233 -0.313480
I23   I     I_    0.632493 0.822937 0.228465 -0.319806
I24   I     I_    0.369360 0.176946 0.771767 -0.313480

loop_
_geom_bond_atom_site_label_1
_geom_bond_atom_site_label_2
_ccdc_geom_bond_type
C54   H82   S    
O17   Zn13  S    
C110  I2    S    
C34   C42   S    
C175  H7    S    
C1    O5    A    
C110  C118  A    
C92   O20   A    
C181  C187  A    
C90   C95   S    
C104  C123  A    
C6    O10   A    
C16   C31   S    
C71   H91   S    
C170  C178  A    
O2    Zn4   S    
C19   C39   S    
C168  O34   A    
C152  H44   S    
C147  C164  S    
C68   C119  S    
C20   C40   S    
C5    C36   S    
O15   Zn11  S    
C140  H40   S    
C10   C185  S    
C6    C35   S    
C30   C38   S    
O33   Zn7   S    
C111  I3    S    
C154  H46   S    
O13   Zn9   S    
C65   C118  S    
C47   I19   S    
C4    O48   A    
O40   Zn4   S    
C50   I22   S    
C67   C120  S    
C16   C44   S    
C88   C97   S    
O20   Zn16  S    
C13   H73   S    
C91   O43   A    
C55   H83   S    
C82   C98   A    
C126  H26   S    
O26   Zn14  S    
C139  H39   S    
C39   I11   S    
C73   C81   A    
C87   O15   A    
C146  C161  S    
C88   O16   A    
C115  C123  A    
C84   C100  A    
C151  C158  A    
C140  C144  A    
C13   C30   S    
C15   C32   S    
C10   C193  A    
C112  C120  A    
C27   C35   S    
C59   H87   S    
C173  C191  A    
C17   C21   S    
C60   H88   S    
C112  I4    S    
C23   C31   S    
C19   C23   S    
C24   C32   S    
C22   H66   S    
C15   C27   S    
C178  H50   S    
C165  C190  S    
O3    Zn15  S    
C14   C26   S    
C153  C156  A    
C15   H75   S    
C86   C99   S    
C182  H54   S    
O50   Zn14  S    
C154  C155  A    
C127  C145  A    
O35   Zn5   S    
C63   C71   A    
C155  H47   S    
C166  O32   A    
C105  C118  A    
C36   C44   S    
C17   C34   S    
C130  C138  A    
C107  C120  A    
C175  C183  A    
C176  C184  A    
C152  C157  A    
C183  H55   S    
C89   O41   A    
C48   C96   A    
O2    Zn2   S    
C133  C141  A    
C195  H59   S    
C168  O36   A    
C45   I17   S    
O2    Zn12  S    
O4    Zn14  S    
C101  C122  A    
C163  O27   A    
C61   C69   A    
C176  H8    S    
C89   C96   S    
C167  O33   A    
C18   C38   S    
C91   C94   S    
O41   Zn5   S    
C78   C94   A    
C108  H24   S    
C23   H67   S    
C114  I6    S    
C1    O45   A    
C5    O49   A    
C170  H2    S    
C49   C97   A    
C21   C42   S    
C178  C186  A    
C129  C137  A    
C126  C134  A    
C174  H6    S    
C24   C43   S    
C2    C31   S    
C101  C109  A    
C25   H69   S    
C27   H71   S    
C28   H72   S    
C150  C157  A    
C48   I20   S    
C69   C77   A    
C169  C189  A    
C45   C93   A    
C174  C182  A    
C71   C79   A    
C63   C124  S    
C143  C160  S    
O1    Zn9   S    
C62   C70   A    
O8    Zn2   S    
C70   H90   S    
C105  C113  A    
C40   I12   S    
C66   C74   A    
C49   C57   A    
C42   I14   S    
C161  O21   A    
O3    Zn13  S    
O37   Zn1   S    
C90   O42   A    
C11   C200  A    
C52   C60   A    
C59   C67   A    
C20   C35   S    
C53   C61   A    
C81   H13   S    
C55   C63   A    
C197  H61   S    
C166  O30   A    
C131  C147  A    
C102  C121  A    
C35   C43   S    
C149  C158  A    
C78   H10   S    
C80   H12   S    
C165  O31   A    
O32   Zn2   S    
C164  O28   A    
C7    O11   A    
C137  H37   S    
O42   Zn6   S    
C171  C179  A    
C115  I7    S    
O2    Zn10  S    
C169  C177  A    
C46   I18   S    
C2    O46   A    
O4    Zn16  S    
O7    Zn1   S    
C50   C98   A    
C129  C147  A    
C163  O25   A    
C11   C188  S    
C38   I10   S    
O51   Zn15  S    
C9    C186  S    
C104  C112  A    
C57   H85   S    
O34   Zn8   S    
C12   C187  S    
C3    O47   A    
C52   C100  A    
C41   I13   S    
O18   Zn14  S    
C167  O35   A    
C25   C38   S    
C172  C190  A    
C14   H74   S    
C46   C94   A    
C27   C40   S    
C128  H28   S    
C193  C196  A    
C134  H34   S    
C182  C188  A    
C28   C36   S    
C180  C186  A    
O47   Zn11  S    
C67   C75   A    
C14   C29   S    
C29   C37   S    
C169  H1    S    
O45   Zn9   S    
C58   H86   S    
C131  H31   S    
C22   C30   S    
C18   C22   S    
C20   H80   S    
C173  H5    S    
C53   H81   S    
O31   Zn1   S    
C68   C76   A    
C161  O23   A    
C166  C189  S    
C153  C160  A    
C162  O24   A    
C72   H92   S    
C11   C198  A    
C85   O37   A    
C154  C159  A    
C72   C80   A    
C125  C145  A    
C180  H52   S    
O27   Zn15  S    
C89   O17   A    
C105  H21   S    
C136  H36   S    
C184  H56   S    
C18   C33   S    
C131  C139  A    
C102  H18   S    
C173  C181  A    
C52   I24   S    
C135  C141  A    
C113  C121  A    
C103  H19   S    
C51   I23   S    
C150  C151  A    
O28   Zn16  S    
C49   I21   S    
C17   H77   S    
C25   C33   S    
O5    Zn3   S    
O11   Zn5   S    
C19   H79   S    
C109  I1    S    
O30   Zn4   S    
C16   H76   S    
C76   C84   A    
C13   C41   S    
C109  C117  A    
C79   H11   S    
O52   Zn16  S    
O3    Zn7   S    
C128  C136  A    
C22   C41   S    
C130  H30   S    
O36   Zn6   S    
C177  C185  A    
C103  C111  A    
C4    O8    A    
C172  H4    S    
C75   H95   S    
C90   O18   A    
C26   H70   S    
C75   C83   A    
C66   C117  S    
C153  H45   S    
C193  H57   S    
C4    C29   S    
C87   C98   S    
C172  C180  A    
C194  C195  A    
C7    O51   A    
C83   C99   A    
C24   H68   S    
C127  H27   S    
C108  C119  A    
C74   C82   A    
C125  H25   S    
C103  C124  A    
O25   Zn13  S    
O48   Zn12  S    
O44   Zn8   S    
C162  O22   A    
C156  H48   S    
C9    C194  A    
C85   O13   A    
C54   C62   A    
C28   C39   S    
C23   C44   S    
C50   C58   A    
C197  C200  A    
C79   C95   A    
C183  C187  A    
O9    Zn7   S    
C179  H51   S    
C74   H94   S    
C177  H49   S    
C46   C54   A    
C133  H33   S    
C144  C159  S    
C136  C142  A    
C8    O52   A    
C106  C117  A    
C7    C34   S    
C135  H35   S    
C102  C110  A    
C142  C157  S    
O24   Zn12  S    
C116  C124  A    
O3    Zn5   S    
C57   C65   A    
O29   Zn3   S    
C83   H15   S    
C116  I8    S    
C26   C37   S    
C179  C185  A    
C132  C140  A    
C64   C123  S    
C8    O12   A    
O10   Zn8   S    
C56   H84   S    
C33   C41   S    
C108  C116  A    
C175  C191  A    
C87   O39   A    
C21   C29   S    
O38   Zn2   S    
O12   Zn6   S    
C92   C93   S    
C113  I5    S    
C171  H3    S    
C200  H64   S    
C15   C43   S    
O1    Zn11  S    
C141  C158  S    
C150  H42   S    
C60   C68   A    
O49   Zn13  S    
C138  C144  A    
C5    O9    A    
O22   Zn10  S    
C16   C28   S    
C129  H29   S    
C70   C78   A    
C128  C146  A    
C126  C146  A    
C9    C196  A    
C106  H22   S    
C167  C192  S    
C168  C191  S    
C106  C114  A    
C111  C119  A    
C76   H96   S    
C19   C36   S    
C199  H63   S    
C176  C192  A    
C134  C142  A    
C145  C162  S    
C43   I15   S    
C65   C73   A    
C171  C189  A    
C73   H93   S    
C196  H60   S    
C104  H20   S    
C18   H78   S    
O4    Zn6   S    
C26   C34   S    
O1    Zn1   S    
C20   C24   S    
C31   C39   S    
C12   C197  A    
C198  C199  A    
C165  O29   A    
C80   C96   A    
C151  H43   S    
C48   C56   A    
C21   H65   S    
C14   C42   S    
C32   C40   S    
C137  C143  A    
C82   H14   S    
C13   C25   S    
C139  C143  A    
C132  H32   S    
C3    O7    A    
C2    O6    A    
C58   C66   A    
C107  H23   S    
C51   C99   A    
C164  O26   A    
C130  C148  A    
C132  C148  A    
C37   I9    S    
O16   Zn12  S    
O23   Zn11  S    
C149  C152  A    
C198  H62   S    
C91   O19   A    
C1    C32   S    
O19   Zn15  S    
C184  C188  A    
C61   C122  S    
C194  H58   S    
C3    C30   S    
O21   Zn9   S    
O39   Zn3   S    
C56   C64   A    
O6    Zn4   S    
C17   C37   S    
C107  C115  A    
C181  H53   S    
C88   O40   A    
C51   C59   A    
O46   Zn10  S    
C77   C93   A    
C47   C55   A    
C125  C133  A    
C86   O14   A    
C155  C160  A    
C148  C163  S    
O14   Zn10  S    
C156  C159  A    
C77   H9    S    
C170  C190  A    
C86   O38   A    
C85   C100  S    
C10   C195  A    
O4    Zn8   S    
O1    Zn3   S    
C81   C97   A    
C12   C199  A    
C69   H89   S    
C138  H38   S    
C8    C33   S    
C64   C72   A    
C127  C135  A    
C92   O44   A    
C45   C53   A    
C114  C122  A    
C101  H17   S    
C149  H41   S    
C174  C192  A    
C47   C95   A    
O43   Zn7   S    
C6    O50   A    
C44   I16   S    
C62   C121  S    
C84   H16   S    
