data_mof_unit_31170.cif
_audit_creation_date              2012-12-10T16:59:16-0500
_audit_creation_method            fapswitch 2.2
_symmetry_space_group_name_H-M    P1
_symmetry_Int_Tables_number       1
_space_group_crystal_system       triclinic
_cell_length_a                    7.75827
_cell_length_b                    8.551556
_cell_length_c                    27.763927
_cell_angle_alpha                 91.450696
_cell_angle_beta                  85.700687
_cell_angle_gamma                 93.598325
_cell_volume                      1832.80779691

loop_
_atom_site_label
_atom_site_type_symbol
_atom_type_description
_atom_site_fract_x
_atom_site_fract_y
_atom_site_fract_z
_atom_type_partial_charge
C1    C     C_R   0.545752 0.794753 0.498759 0.922691
C2    C     C_R   0.454247 0.205247 0.501241 0.922669
C3    C     C_R   0.513599 0.496169 0.897991 -0.048755
C4    C     C_R   0.485967 0.503325 0.102011 -0.048749
C5    C     C_R   0.555141 0.635342 0.872452 -0.036096
C6    C     C_R   0.444363 0.364160 0.127551 -0.036182
C7    C     C_R   0.592403 0.775007 0.897547 -0.137909
C8    C     C_R   0.406996 0.224513 0.102458 -0.137929
C9    C     C_R   0.477870 0.355397 0.872189 -0.037228
C10   C     C_R   0.521823 0.644078 0.127811 -0.037253
C11   C     C_R   0.507074 0.497946 0.646603 -0.368517
C12   C     C_R   0.492885 0.501854 0.353386 -0.368818
C13   C     C_R   0.535578 0.643250 0.025727 0.047004
C14   C     C_R   0.463943 0.356252 0.974276 0.047009
C15   C     C_R   0.455938 0.358238 0.025470 0.047002
C16   C     C_R   0.543529 0.641272 0.974533 0.047013
C17   C     C_R   0.492388 0.501620 0.050833 0.076107
C18   C     C_R   0.507125 0.497882 0.949170 0.076099
C19   C     C_R   0.569098 0.782644 0.053001 -0.223738
C20   C     C_R   0.430510 0.216845 0.947001 -0.223735
C21   C     C_R   0.562314 0.782614 0.102969 -0.136126
C22   C     C_R   0.437388 0.216860 0.897031 -0.136126
C23   C     C_R   0.502133 0.499753 0.593957 0.935140
C24   C     C_R   0.497862 0.500217 0.406040 0.934745
C25   C     C_R   0.587306 0.778246 0.947509 -0.223576
C26   C     C_R   0.412080 0.221278 0.052496 -0.223564
C27   C     C_2   0.569996 0.958170 0.498022 -0.317045
C28   C     C_2   0.430004 0.041830 0.501978 -0.316994
C29   C     C_R   0.557144 0.631699 0.822048 0.537909
C30   C     C_R   0.442407 0.367799 0.177955 0.538005
C31   C     C_R   0.482538 0.356735 0.821770 0.540403
C32   C     C_R   0.517284 0.642717 0.178227 0.540432
C33   C     C_R   0.358077 0.471345 0.726084 -0.184367
C34   C     C_R   0.641909 0.527187 0.273867 -0.184630
C35   C     C_R   0.352616 0.473024 0.676250 0.594194
C36   C     C_R   0.647436 0.525663 0.323702 0.594347
C37   C     C_R   0.666356 0.520529 0.667968 0.608466
C38   C     C_R   0.333465 0.480177 0.332047 0.608610
C39   C     C_R   0.670186 0.518279 0.717868 -0.167497
C40   C     C_R   0.329585 0.482243 0.282146 -0.167662
C41   C     C_R   0.516389 0.493924 0.746825 0.117832
C42   C     C_R   0.483457 0.505535 0.253162 0.118079
H1    H     H_    0.792622 0.535954 0.734186 0.196670
H2    H     H_    0.207047 0.465315 0.265849 0.196601
H3    H     H_    0.760910 0.545002 0.251146 0.185801
H4    H     H_    0.239123 0.452722 0.748775 0.186046
H5    H     H_    0.619056 0.891139 0.963516 0.140677
H6    H     H_    0.380246 0.108401 0.036489 0.140705
N1    N     N_R   0.520267 0.493855 0.798009 -0.330106
N2    N     N_R   0.479478 0.505610 0.201986 -0.330171
N3    N     N_2   0.950320 0.457960 0.486880 0.275711
N4    N     N_2   0.049680 0.542040 0.513120 0.275651
O1    O     O_R   0.389250 0.738570 0.503220 -0.622929
O2    O     O_R   0.610750 0.261430 0.496780 -0.622958
O3    O     O_R   0.678390 0.711630 0.494810 -0.583003
O4    O     O_R   0.321610 0.288370 0.505190 -0.582985
O5    O     O_R   0.355440 0.513440 0.575450 -0.546809
O6    O     O_R   0.644560 0.486560 0.424550 -0.546688
O7    O     O_R   0.644590 0.486500 0.567040 -0.546334
O8    O     O_R   0.355410 0.513500 0.432960 -0.546184
O9    O     O_2   0.593375 0.764906 0.797194 -0.517371
O10   O     O_2   0.406018 0.234629 0.202817 -0.517301
O11   O     O_2   0.550267 0.777015 0.203428 -0.515542
O12   O     O_2   0.449772 0.222395 0.796569 -0.515521
Zn1   Zn    Zn3+2 0.306940 0.517990 0.505620 1.195610
Zn2   Zn    Zn3+2 0.693060 0.482010 0.494380 1.195601
F1    F     F_    0.818138 0.547086 0.640969 -0.542936
F2    F     F_    0.181557 0.454746 0.359072 -0.542588
F3    F     F_    0.029622 0.353493 0.457899 -0.505215
F4    F     F_    0.970381 0.646518 0.542097 -0.505101
H7    H     H_    0.625962 0.883246 0.878629 0.193596
H8    H     H_    0.373389 0.116283 0.121377 0.193594
F5    F     F_    0.803653 0.549532 0.342566 -0.571966
F6    F     F_    0.196569 0.448212 0.657344 -0.572541
H9    H     H_    0.590052 0.892305 0.122080 0.195468
H10   H     H_    0.409725 0.107156 0.877919 0.195460
H11   H     H_    0.601543 0.895072 0.037186 0.140507
H12   H     H_    0.398095 0.104413 0.962816 0.140479
H13   H     H_    0.702274 0.009068 0.494231 0.212400
H14   H     H_    0.297726 0.990932 0.505770 0.212413

loop_
_geom_bond_atom_site_label_1
_geom_bond_atom_site_label_2
_ccdc_geom_bond_type
C35   F6    S    
C8    C26   A    
C14   C18   A    
C34   C42   A    
C22   H10   S    
C39   C41   A    
C29   N1    A    
C23   O7    A    
C19   C21   A    
C27   H13   S    
O7    Zn2   S    
C7    H7    S    
C9    C22   A    
C38   F2    S    
O4    Zn1   S    
C3    C18   A    
C23   O5    A    
C19   H11   S    
C1    O1    A    
O6    Zn2   S    
C12   C36   A    
O1    Zn1   S    
C25   H5    S    
C26   H6    S    
C40   C42   A    
C30   N2    A    
C33   H4    S    
C31   N1    A    
C41   N1    S    
C5    C29   A    
C10   C21   A    
C29   O9    S    
C8    H8    S    
C13   C19   A    
N3    N4    D    
C14   C20   A    
C4    C6    A    
C2    O2    A    
C5    C7    A    
C15   C26   A    
C39   H1    S    
N3    Zn2   S    
C3    C9    A    
C24   O8    A    
C34   H3    S    
C32   N2    A    
C42   N2    S    
C4    C17   A    
C24   O6    A    
C6    C30   A    
C20   C22   A    
O8    Zn1   S    
C30   O10   S    
C4    C10   A    
O3    Zn2   S    
C11   C37   A    
C16   C25   A    
C15   C17   A    
C12   C24   S    
C31   O12   S    
C32   O11   S    
O5    Zn1   S    
C3    C5    A    
C6    C8    A    
O2    Zn2   S    
C20   H12   S    
C21   H9    S    
C7    C25   A    
C13   C17   A    
C33   C41   A    
C11   C35   A    
C1    O3    A    
C37   C39   A    
C2    O4    A    
C38   C40   A    
C37   F1    S    
C11   C23   S    
C33   C35   A    
C34   C36   A    
C12   C38   A    
C28   H14   S    
N4    F4    S    
C36   F5    S    
C9    C31   A    
C10   C32   A    
C40   H2    S    
C16   C18   A    
C13   C16   A    
C27   C28   D    
C1    C27   S    
C14   C15   A    
C2    C28   S    
N3    F3    S    
N4    Zn1   S    
