data_mof_unit_43865.cif
_audit_creation_date              2012-12-11T16:45:48-0500
_audit_creation_method            fapswitch 2.2
_symmetry_space_group_name_H-M    P1
_symmetry_Int_Tables_number       1
_space_group_crystal_system       triclinic
_cell_length_a                    19.775631
_cell_length_b                    17.083037
_cell_length_c                    15.406231
_cell_angle_alpha                 89.999978
_cell_angle_beta                  53.081939
_cell_angle_gamma                 90.000067
_cell_volume                      4161.09642623

loop_
_atom_site_label
_atom_site_type_symbol
_atom_type_description
_atom_site_fract_x
_atom_site_fract_y
_atom_site_fract_z
_atom_type_partial_charge
C1    C     C_R   0.873590 0.693831 0.993952 -0.125781
C2    C     C_R   0.210902 0.348174 0.978029 0.146473
C3    C     C_R   0.289097 0.848174 0.021973 0.146473
C4    C     C_R   0.710902 0.848174 0.978028 0.146472
C5    C     C_R   0.810213 0.639354 0.322150 0.068720
C6    C     C_R   0.189787 0.639354 0.677850 0.068720
C7    C     C_R   0.310213 0.139354 0.322150 0.068721
C8    C     C_R   0.689787 0.139354 0.677850 0.068720
C9    C     C_R   0.727357 0.646223 0.519355 0.149259
C10   C     C_R   0.272644 0.646222 0.480644 0.149259
C11   C     C_R   0.227354 0.146221 0.519356 0.149263
C12   C     C_R   0.126411 0.693831 0.006047 -0.125781
C13   C     C_R   0.772643 0.146222 0.480644 0.149258
C14   C     C_R   0.736787 0.667882 0.425182 0.038013
C15   C     C_R   0.263213 0.667882 0.574818 0.038013
C16   C     C_R   0.236786 0.167882 0.425182 0.038012
C17   C     C_R   0.763213 0.167882 0.574818 0.038013
C18   C     C_R   0.183652 0.226144 0.431738 -0.200339
C19   C     C_R   0.816349 0.226143 0.568261 -0.200338
C20   C     C_R   0.683651 0.726143 0.431739 -0.200339
C21   C     C_R   0.316349 0.726143 0.568261 -0.200339
C22   C     C_R   0.133772 0.271202 0.526451 -0.198325
C23   C     C_R   0.373590 0.193831 0.993952 -0.125781
C24   C     C_R   0.866228 0.271201 0.473548 -0.198324
C25   C     C_R   0.633772 0.771200 0.526452 -0.198324
C26   C     C_R   0.366229 0.771200 0.473548 -0.198324
C27   C     C_R   0.137876 0.257612 0.613314 0.038818
C28   C     C_R   0.862124 0.257613 0.386686 0.038818
C29   C     C_R   0.637877 0.757613 0.613314 0.038819
C30   C     C_R   0.362124 0.757612 0.386686 0.038819
C31   C     C_R   0.679240 0.690678 0.611400 0.178771
C32   C     C_R   0.320761 0.690678 0.388600 0.178771
C33   C     C_R   0.179236 0.190676 0.611401 0.178772
C34   C     C_R   0.626411 0.193831 0.006048 -0.125781
C35   C     C_R   0.820760 0.190678 0.388600 0.178772
C36   C     C_3   0.741279 0.682436 0.636750 -0.501728
C37   C     C_3   0.258722 0.682435 0.363249 -0.501727
C38   C     C_3   0.241273 0.182431 0.636755 -0.501732
C39   C     C_3   0.758722 0.182435 0.363249 -0.501728
C40   C     C_R   0.901612 0.301652 0.206314 0.048006
C41   C     C_R   0.098388 0.301652 0.793687 0.048004
C42   C     C_R   0.401612 0.801652 0.206314 0.048005
C43   C     C_R   0.598388 0.801652 0.793686 0.048006
C44   C     C_3   0.794026 0.633468 0.536027 -0.530277
C45   C     C_R   0.887071 0.316345 0.304189 0.021284
C46   C     C_3   0.205976 0.633467 0.463972 -0.530277
C47   C     C_3   0.294020 0.133463 0.536031 -0.530284
C48   C     C_3   0.705975 0.133467 0.463972 -0.530278
C49   C     C_2   0.694726 0.236741 0.092179 -0.200613
C50   C     C_2   0.305273 0.236741 0.907823 -0.200617
C51   C     C_2   0.194729 0.736740 0.092175 -0.200617
C52   C     C_2   0.805272 0.736741 0.907823 -0.200616
C53   C     C_2   0.215639 0.807665 0.045220 -0.196638
C54   C     C_2   0.784361 0.807665 0.954782 -0.196635
C55   C     C_2   0.715638 0.307666 0.045220 -0.196630
C56   C     C_R   0.112928 0.316345 0.695811 0.021284
C57   C     C_2   0.284360 0.307665 0.954784 -0.196634
C58   C     C_R   0.830158 0.410872 0.950756 -0.150745
C59   C     C_R   0.169841 0.410871 0.049246 -0.150747
C60   C     C_R   0.330158 0.910871 0.950755 -0.150746
C61   C     C_R   0.669841 0.910871 0.049245 -0.150746
C62   C     C_R   0.859113 0.577996 0.313159 -0.137691
C63   C     C_R   0.140887 0.577996 0.686841 -0.137691
C64   C     C_R   0.359113 0.077996 0.313159 -0.137692
C65   C     C_R   0.640887 0.077996 0.686841 -0.137692
C66   C     C_R   0.840341 0.321064 0.048291 -0.112970
C67   C     C_R   0.387072 0.816345 0.304189 0.021284
C68   C     C_R   0.159659 0.321064 0.951710 -0.112971
C69   C     C_R   0.340340 0.821064 0.048291 -0.112970
C70   C     C_R   0.659659 0.821064 0.951709 -0.112971
C71   C     C_R   0.851171 0.672697 0.219890 -0.125788
C72   C     C_R   0.148829 0.672697 0.780110 -0.125788
C73   C     C_R   0.351172 0.172698 0.219890 -0.125787
C74   C     C_R   0.648829 0.172697 0.780110 -0.125788
C75   C     C_R   0.904961 0.394354 0.304780 -0.167585
C76   C     C_R   0.095039 0.394354 0.695220 -0.167585
C77   C     C_R   0.404961 0.894354 0.304780 -0.167586
C78   C     C_R   0.612929 0.816345 0.695811 0.021284
C79   C     C_R   0.595039 0.894354 0.695220 -0.167585
C80   C     C_R   0.864081 0.602653 0.898191 -0.158428
C81   C     C_R   0.135919 0.602653 0.101808 -0.158427
C82   C     C_R   0.364081 0.102653 0.898191 -0.158429
C83   C     C_R   0.635919 0.102653 0.101809 -0.158428
C84   C     C_R   0.845103 0.679686 0.933286 0.157033
C85   C     C_R   0.154898 0.679686 0.066713 0.157032
C86   C     C_R   0.345103 0.179686 0.933286 0.157034
C87   C     C_R   0.654897 0.179687 0.066714 0.157032
C88   C     C_1   0.928864 0.226903 0.152457 0.005297
C89   C     C_R   0.789097 0.348174 0.021973 0.146470
C90   C     C_1   0.071134 0.226903 0.847545 0.005298
C91   C     C_1   0.428864 0.726903 0.152456 0.005297
C92   C     C_1   0.571137 0.726903 0.847543 0.005296
H1    H     H_    0.880405 0.749609 0.020829 0.083541
H2    H     H_    0.228018 0.738714 0.368822 0.198279
H3    H     H_    0.271978 0.238708 0.631183 0.198279
H4    H     H_    0.728018 0.238714 0.368823 0.198279
H5    H     H_    0.716554 0.647708 0.711215 0.197424
H6    H     H_    0.283448 0.647707 0.288784 0.197424
H7    H     H_    0.216545 0.147702 0.711220 0.197426
H8    H     H_    0.783447 0.147707 0.288784 0.197424
H9    H     H_    0.855663 0.661352 0.472429 0.207715
H10   H     H_    0.144338 0.661351 0.527570 0.207715
H11   H     H_    0.355658 0.161346 0.472436 0.207716
H12   H     H_    0.119596 0.749609 0.979171 0.083541
H13   H     H_    0.644338 0.161351 0.527570 0.207715
H14   H     H_    0.798037 0.571292 0.553927 0.188955
H15   H     H_    0.201965 0.571291 0.446072 0.188955
H16   H     H_    0.298028 0.071286 0.553932 0.188956
H17   H     H_    0.701965 0.071291 0.446072 0.188955
H18   H     H_    0.718558 0.215050 0.135163 0.126531
H19   H     H_    0.281441 0.215051 0.864839 0.126534
H20   H     H_    0.218564 0.715048 0.135154 0.126534
H21   H     H_    0.781439 0.715050 0.864842 0.126533
H22   H     H_    0.189855 0.830190 0.004986 0.124471
H23   H     H_    0.380406 0.249609 0.020828 0.083541
H24   H     H_    0.810142 0.830189 0.995019 0.124470
H25   H     H_    0.689856 0.330191 0.004983 0.124467
H26   H     H_    0.310140 0.330188 0.995023 0.124470
H27   H     H_    0.809086 0.444056 0.911323 0.098560
H28   H     H_    0.190913 0.444055 0.088679 0.098560
H29   H     H_    0.309086 0.944056 0.911322 0.098561
H30   H     H_    0.690913 0.944056 0.088678 0.098560
H31   H     H_    0.845154 0.537541 0.375498 0.111215
H32   H     H_    0.154846 0.537541 0.624502 0.111215
H33   H     H_    0.345154 0.037541 0.375498 0.111216
H34   H     H_    0.619595 0.249609 0.979171 0.083541
H35   H     H_    0.654846 0.037541 0.624502 0.111215
H36   H     H_    0.830263 0.272207 0.098926 0.099910
H37   H     H_    0.169738 0.272208 0.901073 0.099910
H38   H     H_    0.330261 0.772209 0.098929 0.099909
H39   H     H_    0.669738 0.772208 0.901073 0.099910
H40   H     H_    0.830869 0.722559 0.197919 0.094017
H41   H     H_    0.169131 0.722559 0.802080 0.094016
H42   H     H_    0.330869 0.222559 0.197919 0.094016
H43   H     H_    0.669131 0.222559 0.802080 0.094017
H44   H     H_    0.913080 0.422267 0.360933 0.096930
H45   H     H_    0.099420 0.320751 0.527047 0.125312
H46   H     H_    0.086920 0.422267 0.639067 0.096930
H47   H     H_    0.413080 0.922267 0.360933 0.096931
H48   H     H_    0.586920 0.922267 0.639066 0.096930
H49   H     H_    0.859615 0.575919 0.838156 0.093622
H50   H     H_    0.140385 0.575919 0.161843 0.093621
H51   H     H_    0.359616 0.075920 0.838156 0.093622
H52   H     H_    0.640384 0.075920 0.161844 0.093622
H53   H     H_    0.187095 0.242124 0.361180 0.129839
H54   H     H_    0.812907 0.242122 0.638818 0.129839
H55   H     H_    0.687093 0.742121 0.361182 0.129840
H56   H     H_    0.900582 0.320749 0.472951 0.125312
H57   H     H_    0.312907 0.742122 0.638818 0.129839
H58   H     H_    0.599417 0.820749 0.527049 0.125312
H59   H     H_    0.400583 0.820749 0.472951 0.125312
H60   H     H_    0.771983 0.738715 0.631176 0.198279
N1    N     N_R   0.908660 0.628630 0.995840 -0.044285
N2    N     N_R   0.096530 0.421430 0.063580 -0.041831
N3    N     N_R   0.403470 0.921430 0.936420 -0.041831
N4    N     N_R   0.596530 0.921430 0.063580 -0.041831
N5    N     N_R   0.927500 0.575670 0.211370 -0.040272
N6    N     N_R   0.072500 0.575670 0.788630 -0.040272
N7    N     N_R   0.427500 0.075670 0.211370 -0.040272
N8    N     N_R   0.572500 0.075670 0.788630 -0.040272
N9    N     N_R   0.908660 0.365680 0.995820 -0.047706
N10   N     N_R   0.091340 0.365680 0.004180 -0.047706
N11   N     N_R   0.408660 0.865680 0.995820 -0.047706
N12   N     N_R   0.091340 0.628630 0.004160 -0.044285
N13   N     N_R   0.591340 0.865680 0.004180 -0.047706
N14   N     N_R   0.922310 0.631420 0.151980 -0.041212
N15   N     N_R   0.077690 0.631420 0.848020 -0.041212
N16   N     N_R   0.422310 0.131420 0.151980 -0.041212
N17   N     N_R   0.577690 0.131420 0.848020 -0.041212
N18   N     N_R   0.927500 0.426330 0.211360 -0.046099
N19   N     N_R   0.072500 0.426330 0.788640 -0.046099
N20   N     N_R   0.427500 0.926330 0.211360 -0.046099
N21   N     N_R   0.572500 0.926330 0.788640 -0.046099
N22   N     N_R   0.903470 0.570760 0.936440 -0.039334
N23   N     N_R   0.408660 0.128630 0.995840 -0.044285
N24   N     N_R   0.096530 0.570760 0.063560 -0.039335
N25   N     N_R   0.403470 0.070760 0.936440 -0.039334
N26   N     N_R   0.596530 0.070760 0.063560 -0.039334
N27   N     N_1   0.949895 0.165902 0.111984 -0.087958
N28   N     N_1   0.050101 0.165903 0.888018 -0.087958
N29   N     N_1   0.449895 0.665902 0.111983 -0.087957
N30   N     N_1   0.550106 0.665902 0.888016 -0.087957
N31   N     N_R   0.591340 0.128630 0.004160 -0.044285
N32   N     N_R   0.922310 0.368460 0.151950 -0.059695
N33   N     N_R   0.077690 0.368460 0.848050 -0.059695
N34   N     N_R   0.422310 0.868460 0.151950 -0.059695
N35   N     N_R   0.577690 0.868460 0.848050 -0.059695
N36   N     N_R   0.903470 0.421430 0.936420 -0.041831
Ni1   Ni    Ni4+2 0.000000 0.630300 0.000000 0.208473
Ni2   Ni    Ni4+2 0.500000 0.130300 0.000000 0.208473
Ni3   Ni    Ni4+2 0.000000 0.369700 0.000000 0.232700
Ni4   Ni    Ni4+2 0.500000 0.869700 0.000000 0.232701
Ni5   Ni    Ni4+2 0.988090 0.497570 0.863760 0.206719
Ni6   Ni    Ni4+2 0.011910 0.497570 0.136240 0.206719
Ni7   Ni    Ni4+2 0.488090 0.997570 0.863760 0.206719
Ni8   Ni    Ni4+2 0.511910 0.997570 0.136240 0.206719

loop_
_geom_bond_atom_site_label_1
_geom_bond_atom_site_label_2
_ccdc_geom_bond_type
C83   C87   A    
C21   C26   A    
N31   Ni2   S    
C51   H20   S    
C56   C76   A    
C79   N21   A    
C11   C47   S    
C67   C77   A    
N19   Ni5   S    
C18   H53   S    
C51   C85   S    
N23   Ni2   S    
C4    C70   A    
C63   H32   S    
C72   H41   S    
C2    C57   S    
N23   N25   A    
N1    Ni1   S    
C52   H21   S    
C27   C33   A    
C43   C78   A    
C6    C72   A    
C46   H10   S    
C22   H45   S    
C59   H28   S    
C12   C85   A    
C65   H35   S    
C26   H59   S    
N4    Ni8   S    
N32   Ni3   S    
C12   H12   S    
N9    N36   A    
C2    C68   A    
C10   C15   A    
C65   N8    A    
C83   H52   S    
C23   N23   A    
C20   C25   A    
N17   Ni2   S    
N13   Ni4   S    
N16   Ni2   S    
N7    N16   A    
C82   N25   A    
C42   C91   S    
C52   C84   S    
C49   C87   S    
C62   H31   S    
C74   N17   A    
C71   H40   S    
N21   N35   A    
C29   C78   S    
C28   C35   A    
N20   N34   A    
C69   H38   S    
C23   C86   A    
C54   H24   S    
C38   H3    S    
C10   C46   S    
N8    N17   A    
N11   Ni4   S    
C21   H57   S    
C24   C28   A    
C30   C67   S    
C70   H39   S    
C80   C84   A    
N18   N32   A    
C3    C60   A    
C42   N34   A    
C48   H17   S    
C6    C15   S    
C8    C65   A    
C18   C22   A    
C46   H15   S    
C3    C69   A    
N7    Ni8   S    
N9    Ni3   S    
C73   N16   A    
N10   Ni3   S    
C59   N2    A    
C52   C54   D    
N6    N15   A    
N33   Ni3   S    
C66   C89   A    
C60   H29   S    
C25   C29   A    
C40   C45   A    
N15   Ni1   S    
C90   N28   T    
C28   C45   S    
C62   N5    A    
N6    Ni5   S    
C47   H11   S    
N19   N33   A    
C58   N36   A    
N5    Ni6   S    
C19   H54   S    
C81   N24   A    
C77   H47   S    
C11   C33   A    
C7    C73   A    
C24   H56   S    
C70   N13   A    
N18   Ni6   S    
C9    C31   A    
C78   C79   A    
C36   H60   S    
N3    N11   A    
C82   C86   A    
N26   Ni8   S    
N1    N22   A    
C71   N14   A    
C66   N9    A    
C61   H30   S    
C1    C84   A    
C6    C63   A    
C76   N19   A    
C35   C39   S    
C9    C14   A    
C41   C56   A    
N21   Ni7   S    
C14   C20   A    
C12   N12   A    
C11   C16   A    
C48   H13   S    
N20   Ni8   S    
C43   N35   A    
C34   H34   S    
C74   H43   S    
C76   H46   S    
C75   N18   A    
C8    C74   A    
N35   Ni4   S    
C20   H55   S    
C37   H6    S    
C34   N31   A    
C16   C18   A    
C32   C37   S    
C27   C56   S    
C1    N1    A    
C5    C14   S    
C36   H5    S    
N8    Ni7   S    
C43   C92   S    
C1    H1    S    
C81   H50   S    
C2    C59   A    
N36   Ni5   S    
C47   H16   S    
C68   N10   A    
C22   C27   A    
C91   N29   T    
C42   C67   A    
C82   H51   S    
C72   N15   A    
C36   C44   S    
N12   Ni1   S    
C61   N4    A    
N26   N31   A    
C41   N33   A    
C53   H22   S    
C88   N27   T    
C55   H25   S    
C7    C16   S    
C9    C44   S    
C79   H48   S    
C7    C64   A    
N25   Ni7   S    
C83   N26   A    
C4    C54   S    
C75   H44   S    
C50   C57   D    
C5    C62   A    
N2    N10   A    
C69   N11   A    
C38   H7    S    
C39   C48   S    
N5    N14   A    
C13   C48   S    
C44   H9    S    
C13   C35   A    
C44   H14   S    
C8    C17   S    
C38   C47   S    
C45   C75   A    
N14   Ni1   S    
N24   Ni6   S    
C40   C88   S    
C19   C24   A    
C60   N3    A    
C80   N22   A    
C29   C31   A    
C49   C55   D    
C30   C32   A    
C3    C53   S    
C39   H8    S    
N4    N13   A    
C77   N20   A    
C4    C61   A    
C64   N7    A    
C50   H19   S    
C17   C19   A    
C66   H36   S    
C37   H2    S    
N12   N24   A    
C34   C87   A    
N34   Ni4   S    
C68   H37   S    
C55   C89   S    
C58   C89   A    
C39   H4    S    
N3    Ni7   S    
C50   C86   S    
C23   H23   S    
C13   C17   A    
N2    Ni6   S    
C10   C32   A    
C15   C21   A    
C58   H27   S    
C73   H42   S    
C57   H26   S    
N22   Ni5   S    
C5    C71   A    
C64   H33   S    
C31   C36   S    
C25   H58   S    
C33   C38   S    
C92   N30   T    
C63   N6    A    
C51   C53   D    
C37   C46   S    
C80   H49   S    
C81   C85   A    
C41   C90   S    
C49   H18   S    
C40   N32   A    
C26   C30   A    
