data_mof_unit_61811.cif
_audit_creation_date              2012-12-10T18:24:41-0500
_audit_creation_method            fapswitch 2.2
_symmetry_space_group_name_H-M    P1
_symmetry_Int_Tables_number       1
_space_group_crystal_system       triclinic
_cell_length_a                    16.057204
_cell_length_b                    16.036738
_cell_length_c                    19.553922
_cell_angle_alpha                 95.18707
_cell_angle_beta                  90.528726
_cell_angle_gamma                 84.108713
_cell_volume                      4988.13089759

loop_
_atom_site_label
_atom_site_type_symbol
_atom_type_description
_atom_site_fract_x
_atom_site_fract_y
_atom_site_fract_z
_atom_type_partial_charge
C1    C     C_R   0.275885 0.510860 0.491071 0.510326
C2    C     C_2   0.459939 0.499587 0.979563 -0.133856
C3    C     C_2   0.527966 0.488007 0.019159 -0.133592
C4    C     C_R   0.724093 0.489281 0.508946 0.507000
C5    C     C_R   0.515007 0.486848 0.236633 0.037095
C6    C     C_1   0.186441 0.516860 0.486398 0.025318
C7    C     C_2   0.021104 0.529980 0.475823 0.050648
C8    C     C_2   0.978554 0.482944 0.514387 -0.142223
C9    C     C_1   0.888676 0.483863 0.513564 0.016793
C10   C     C_1   0.111255 0.522523 0.481875 -0.034253
C11   C     C_1   0.813517 0.485530 0.512122 0.060601
C12   C     C_R   0.467501 0.501717 0.904978 0.040443
C13   C     C_1   0.516643 0.184917 0.487174 0.019712
C14   C     C_2   0.525239 0.018867 0.480563 -0.117195
C15   C     C_2   0.474999 0.981202 0.519320 -0.118531
C16   C     C_R   0.511781 0.274931 0.490911 0.504174
C17   C     C_1   0.479561 0.890819 0.515795 -0.037809
C18   C     C_1   0.520650 0.109252 0.484094 -0.039997
C19   C     C_1   0.483507 0.815160 0.512744 0.022623
C20   C     C_R   0.488258 0.725155 0.509070 0.508295
C21   C     C_R   0.510243 0.489999 0.311489 0.508264
C22   C     C_R   0.489710 0.509564 0.688563 0.506713
C23   C     C_R   0.410018 0.554577 0.870340 -0.113693
C24   C     C_R   0.482606 0.508906 0.763146 0.035466
C25   C     C_R   0.539113 0.454981 0.797891 -0.123671
C26   C     C_R   0.531451 0.451116 0.868107 -0.110227
C27   C     C_2   0.981229 0.589056 0.427359 0.601097
C28   C     C_R   0.417814 0.558673 0.799762 -0.122658
C29   C     C_R   0.456151 0.452814 0.124431 -0.106933
C30   C     C_R   0.452683 0.452676 0.195536 -0.121891
C31   C     C_R   0.581847 0.519264 0.205757 -0.118245
C32   C     C_R   0.585893 0.518298 0.134711 -0.113450
C33   C     C_R   0.522399 0.486622 0.093796 0.039839
H1    H     H_    0.588999 0.415109 0.770769 0.138545
H2    H     H_    0.407663 0.425762 0.093560 0.112897
H3    H     H_    0.372920 0.600065 0.773861 0.136688
H4    H     H_    0.398121 0.512522 0.002619 0.122929
H5    H     H_    0.575002 0.407659 0.893253 0.111408
H6    H     H_    0.876205 0.641685 0.384187 0.343244
H7    H     H_    0.637856 0.543681 0.111691 0.111986
H8    H     H_    0.012593 0.441472 0.548392 0.108848
H9    H     H_    0.430026 0.018095 0.554014 0.138373
H10   H     H_    0.570213 0.981978 0.445868 0.142034
H11   H     H_    0.400842 0.426926 0.218352 0.137639
H12   H     H_    0.631102 0.545200 0.236496 0.140249
H13   H     H_    0.590062 0.484778 0.996816 0.121822
H14   H     H_    0.359895 0.593412 0.898065 0.111474
O1    O     O_3   0.500000 0.500000 0.500000 -0.442736
O2    O     O_R   0.462330 0.445560 0.340470 -0.542532
O3    O     O_R   0.440930 0.559110 0.655640 -0.545584
O4    O     O_R   0.554010 0.538050 0.348260 -0.544143
O5    O     O_R   0.542730 0.457290 0.655630 -0.546588
O6    O     O_2   0.025381 0.628945 0.394619 -0.505760
O7    O     O_R   0.894378 0.599754 0.418599 -0.690804
O8    O     O_R   0.555880 0.314540 0.535300 -0.536260
O9    O     O_R   0.439840 0.689760 0.546310 -0.534362
O10   O     O_R   0.320170 0.458170 0.449830 -0.534254
O11   O     O_R   0.684110 0.537530 0.468570 -0.518405
O12   O     O_R   0.310830 0.559620 0.535340 -0.535215
O13   O     O_R   0.684890 0.444680 0.546270 -0.545813
O14   O     O_R   0.463420 0.314900 0.449800 -0.535444
O15   O     O_R   0.540870 0.680800 0.468590 -0.533456
Zn1   Zn    Zn3+2 0.569660 0.430340 0.558290 0.943414
Zn2   Zn    Zn3+2 0.437560 0.430860 0.436130 0.951722
Zn3   Zn    Zn3+2 0.568560 0.563000 0.447270 0.960874
Zn4   Zn    Zn3+2 0.424220 0.575810 0.558310 0.951025

loop_
_geom_bond_atom_site_label_1
_geom_bond_atom_site_label_2
_ccdc_geom_bond_type
C6    C10   T    
C7    C10   S    
C27   O6    D    
C29   C30   A    
C1    O10   A    
O1    Zn3   S    
O14   Zn2   S    
C9    C11   T    
C14   C18   S    
O11   Zn3   S    
C19   C20   S    
C12   C23   A    
C20   O9    A    
C25   H1    S    
C22   O3    A    
C2    C12   S    
C32   C33   A    
C4    O13   A    
C23   H14   S    
C21   O2    A    
C2    C3    D    
C8    C9    S    
C16   O8    A    
C7    C27   S    
C7    C8    D    
O2    Zn2   S    
C23   C28   A    
C24   C25   A    
C4    C11   S    
O3    Zn4   S    
C2    H4    S    
C30   H11   S    
C13   C18   T    
O13   Zn1   S    
O9    Zn4   S    
O4    Zn3   S    
C12   C26   A    
C17   C19   T    
C1    O12   A    
C32   H7    S    
O12   Zn4   S    
C20   O15   A    
C22   C24   S    
C27   O7    S    
H6    O7    S    
O1    Zn2   S    
C16   O14   A    
C3    C33   S    
C1    C6    S    
C29   C33   A    
C21   O4    A    
C5    C21   S    
C8    H8    S    
C28   H3    S    
O10   Zn2   S    
C22   O5    A    
C5    C30   A    
C31   H12   S    
C13   C16   S    
C4    O11   A    
C15   C17   S    
C29   H2    S    
C14   C15   D    
C26   H5    S    
O1    Zn1   S    
C3    H13   S    
O15   Zn3   S    
O1    Zn4   S    
C25   C26   A    
C31   C32   A    
C15   H9    S    
C24   C28   A    
C14   H10   S    
C5    C31   A    
O5    Zn1   S    
O8    Zn1   S    
