data_mof_unit_8814.cif
_audit_creation_date              2012-12-11T14:38:32-0500
_audit_creation_method            fapswitch 2.2
_symmetry_space_group_name_H-M    P1
_symmetry_Int_Tables_number       1
_space_group_crystal_system       triclinic
_cell_length_a                    19.360838
_cell_length_b                    11.209298
_cell_length_c                    19.648612
_cell_angle_alpha                 90.158581
_cell_angle_beta                  96.578231
_cell_angle_gamma                 90.091657
_cell_volume                      4236.07148395

loop_
_atom_site_label
_atom_site_type_symbol
_atom_type_description
_atom_site_fract_x
_atom_site_fract_y
_atom_site_fract_z
_atom_type_partial_charge
C1    C     C_R   0.725896 0.953672 0.360013 0.578812
C2    C     C_R   0.273511 0.950564 0.640696 0.564817
C3    C     C_R   0.225897 0.453668 0.360011 0.577741
C4    C     C_R   0.773507 0.450555 0.640699 0.562395
C5    C     C_3   0.688826 0.475290 0.455311 -0.260300
C6    C     C_3   0.335722 0.406129 0.535774 -0.238502
C7    C     C_3   0.188839 0.975303 0.455308 -0.260262
C8    C     C_3   0.835728 0.906110 0.535774 -0.238102
C9    C     C_3   0.825521 0.448104 0.535128 -0.242231
C10   C     C_3   0.188742 0.469644 0.473243 -0.260304
C11   C     C_3   0.325525 0.948134 0.535121 -0.242412
C12   C     C_3   0.688752 0.969651 0.473251 -0.259959
C13   C     C_3   0.743963 0.282808 0.556143 -0.039621
C14   C     C_3   0.240791 0.281758 0.435623 -0.027255
C15   C     C_3   0.243982 0.782816 0.556141 -0.040028
C16   C     C_3   0.740778 0.781764 0.435619 -0.027587
C17   C     C_3   0.757730 0.416576 0.568451 0.108557
C18   C     C_3   0.245009 0.417031 0.430826 0.106834
C19   C     C_3   0.257738 0.916590 0.568448 0.107907
C20   C     C_3   0.745010 0.917032 0.430826 0.106513
C21   C     C_3   0.742259 0.382110 0.436865 0.041234
C22   C     C_3   0.267230 0.357342 0.559663 0.037485
C23   C     C_3   0.242261 0.882104 0.436864 0.041439
C24   C     C_3   0.767236 0.857326 0.559664 0.039193
C25   C     C_3   0.816967 0.423797 0.459325 -0.258216
C26   C     C_3   0.212364 0.457346 0.549743 -0.250063
C27   C     C_3   0.316976 0.923763 0.459322 -0.258143
C28   C     C_3   0.712372 0.957332 0.549750 -0.250905
C29   C     C_3   0.727054 0.266830 0.476744 -0.201741
C30   C     C_3   0.242102 0.251703 0.512445 -0.231528
C31   C     C_3   0.227042 0.766833 0.476745 -0.201870
C32   C     C_3   0.742110 0.751690 0.512439 -0.231068
C33   C     C_3   0.490272 0.303673 0.962249 -0.265622
C34   C     C_3   0.509847 0.303541 0.038045 -0.264718
C35   C     C_3   0.029312 0.788544 0.955876 -0.273766
C36   C     C_3   0.042445 0.790477 0.033169 -0.257705
C37   C     C_3   0.427759 0.107300 0.967465 -0.166786
C38   C     C_3   0.572190 0.107382 0.032180 -0.166945
C39   C     C_3   0.921889 0.664512 0.966796 -0.167683
C40   C     C_3   0.056562 0.567878 0.033454 -0.163753
C41   C     C_3   0.558696 0.114291 0.953356 -0.040209
C42   C     C_3   0.441296 0.113827 0.046313 -0.040412
C43   C     C_3   0.040742 0.565511 0.954618 -0.032157
C44   C     C_3   0.937326 0.662129 0.045403 -0.040323
C45   C     C_R   0.536360 0.180512 0.338655 0.540132
C46   C     C_R   0.463932 0.180348 0.661533 0.532912
C47   C     C_R   0.036359 0.680512 0.338654 0.541080
C48   C     C_R   0.963928 0.680348 0.661529 0.532685
C49   C     C_3   0.486395 0.173619 0.933668 0.039181
C50   C     C_3   0.513635 0.173333 0.066223 0.038296
C51   C     C_3   0.990573 0.671715 0.931895 0.046156
C52   C     C_3   0.017133 0.672568 0.064774 0.034000
C53   C     C_1   0.756463 0.413253 0.900446 -0.013550
C54   C     C_1   0.243545 0.412656 0.099614 -0.011551
C55   C     C_1   0.257340 0.915060 0.900883 -0.011902
C56   C     C_1   0.738103 0.928156 0.095399 -0.009541
C57   C     C_1   0.734685 0.361893 0.026319 -0.037620
C58   C     C_1   0.265602 0.361424 0.973750 -0.048792
C59   C     C_1   0.237109 0.865954 0.027220 -0.036659
C60   C     C_1   0.751585 0.907462 0.965181 -0.026550
C61   C     C_1   0.744420 0.387399 0.957548 -0.038220
C62   C     C_1   0.255721 0.386777 0.042523 -0.043115
C63   C     C_1   0.246157 0.890537 0.958331 -0.036844
C64   C     C_1   0.745933 0.917108 0.035826 -0.035447
C65   C     C_1   0.728616 0.340504 0.085563 -0.011618
C66   C     C_1   0.271689 0.340188 0.914462 -0.020182
C67   C     C_1   0.230691 0.844161 0.086261 -0.012965
C68   C     C_1   0.756065 0.892844 0.905144 -0.001924
C69   C     C_R   0.736978 0.354919 0.363648 0.551214
C70   C     C_R   0.274880 0.316199 0.631907 0.551365
C71   C     C_R   0.236976 0.854913 0.363648 0.550718
C72   C     C_R   0.774884 0.816188 0.631908 0.548418
C73   C     C_R   0.722537 0.954139 0.163291 0.542950
C74   C     C_R   0.276988 0.952946 0.836099 0.538576
C75   C     C_R   0.223114 0.452493 0.163940 0.541186
C76   C     C_R   0.776895 0.452765 0.836095 0.542173
C77   C     C_R   0.533703 0.179389 0.140364 0.528489
C78   C     C_R   0.466309 0.179617 0.859593 0.529059
C79   C     C_R   0.035426 0.679391 0.139493 0.525724
C80   C     C_R   0.969490 0.678898 0.858077 0.535237
C81   C     C_R   0.722428 0.311321 0.155883 0.553540
C82   C     C_R   0.277682 0.311127 0.844057 0.556630
C83   C     C_R   0.223015 0.812775 0.155811 0.550207
C84   C     C_R   0.763648 0.858681 0.836211 0.551282
C85   C     C_1   0.485797 0.172656 0.594543 -0.020982
C86   C     C_1   0.515088 0.173234 0.405888 -0.019680
C87   C     C_1   0.985792 0.672657 0.594539 -0.019573
C88   C     C_1   0.015086 0.673234 0.405886 -0.019727
C89   C     C_1   0.504928 0.169866 0.465145 -0.070576
C90   C     C_1   0.496245 0.169532 0.535350 -0.070534
C91   C     C_1   0.004925 0.669867 0.465143 -0.070719
C92   C     C_1   0.996241 0.669533 0.535347 -0.070428
C93   C     C_3   0.690731 0.480212 0.533532 -0.222125
C94   C     C_3   0.320300 0.455228 0.462005 -0.212725
C95   C     C_3   0.190736 0.980214 0.533529 -0.222207
C96   C     C_3   0.820305 0.955206 0.462004 -0.212932
Cr1   Cr    Cr6+3 0.765780 0.160710 0.267420 1.016487
Cr2   Cr    Cr6+3 0.234220 0.160710 0.732580 1.014091
Cr3   Cr    Cr6+3 0.265780 0.660710 0.267420 1.016640
Cr4   Cr    Cr6+3 0.734220 0.660710 0.732580 1.019680
Cr5   Cr    Cr6+3 0.612200 0.009560 0.248850 1.009248
Cr6   Cr    Cr6+3 0.387800 0.009560 0.751150 1.001196
Cr7   Cr    Cr6+3 0.112200 0.509560 0.248850 1.011864
Cr8   Cr    Cr6+3 0.887800 0.509560 0.751150 1.003190
Cr9   Cr    Cr6+3 0.616030 0.323720 0.248510 1.014065
Cr10  Cr    Cr6+3 0.383970 0.323720 0.751490 1.012722
Cr11  Cr    Cr6+3 0.116030 0.823720 0.248510 1.014353
Cr12  Cr    Cr6+3 0.883970 0.823720 0.751490 1.013104
H1    H     H_    0.682569 0.568670 0.553225 0.121241
H2    H     H_    0.327329 0.552674 0.463053 0.105417
H3    H     H_    0.182561 0.068671 0.553223 0.121199
H4    H     H_    0.827343 0.052650 0.463050 0.105413
H5    H     H_    0.758085 0.193545 0.459522 0.113571
H6    H     H_    0.187033 0.237150 0.520575 0.111813
H7    H     H_    0.258041 0.693512 0.459510 0.113628
H8    H     H_    0.687043 0.737133 0.520579 0.111925
H9    H     H_    0.869358 0.390887 0.557589 0.138500
H10   H     H_    0.138982 0.419616 0.461373 0.129750
H11   H     H_    0.369376 0.890964 0.557597 0.138456
H12   H     H_    0.638983 0.919655 0.461375 0.129704
H13   H     H_    0.854863 0.353335 0.448585 0.142863
H14   H     H_    0.165950 0.440146 0.576819 0.152041
H15   H     H_    0.354855 0.853251 0.448612 0.142793
H16   H     H_    0.665955 0.940123 0.576821 0.150675
H17   H     H_    0.438903 0.348897 0.951376 0.151384
H18   H     H_    0.561257 0.348968 0.049075 0.151722
H19   H     H_    0.998579 0.869800 0.940144 0.162270
H20   H     H_    0.098720 0.803571 0.048469 0.132268
H21   H     H_    0.529303 0.357284 0.937883 0.142795
H22   H     H_    0.470867 0.356964 0.062609 0.143335
H23   H     H_    0.079389 0.795310 0.933300 0.122092
H24   H     H_    0.015002 0.869173 0.052095 0.150081
H25   H     H_    0.376535 0.149221 0.950769 0.087667
H26   H     H_    0.623456 0.149409 0.049105 0.084693
H27   H     H_    0.889182 0.744121 0.952165 0.110431
H28   H     H_    0.113589 0.579798 0.047266 0.096313
H29   H     H_    0.400818 0.172437 0.064808 0.147949
H30   H     H_    0.599261 0.173154 0.935187 0.144072
H31   H     H_    0.912188 0.741581 0.066259 0.152826
H32   H     H_    0.090656 0.580424 0.932632 0.139039
H33   H     H_    0.577029 0.013132 0.049285 0.166461
H34   H     H_    0.422773 0.013097 0.949929 0.167346
H35   H     H_    0.043509 0.480781 0.055721 0.174554
H36   H     H_    0.889664 0.586519 0.947865 0.150650
H37   H     H_    0.643242 0.434667 0.547382 0.168560
H38   H     H_    0.360007 0.421516 0.430116 0.156826
H39   H     H_    0.143252 0.934646 0.547373 0.168622
H40   H     H_    0.860008 0.921481 0.430112 0.156904
H41   H     H_    0.635210 0.451135 0.432795 0.144130
H42   H     H_    0.374969 0.333720 0.537149 0.126017
H43   H     H_    0.135221 0.951176 0.432785 0.144093
H44   H     H_    0.874973 0.833698 0.537149 0.125996
H45   H     H_    0.700600 0.561750 0.434162 0.120899
H46   H     H_    0.358182 0.478826 0.570153 0.136099
H47   H     H_    0.200632 0.061756 0.434164 0.120957
H48   H     H_    0.858188 0.978804 0.570154 0.135862
H49   H     H_    0.344963 0.039618 0.546400 0.109722
H50   H     H_    0.674281 0.060796 0.459325 0.102912
H51   H     H_    0.844975 0.539573 0.546430 0.109717
H52   H     H_    0.174248 0.560784 0.459311 0.102861
H53   H     H_    0.330703 0.003024 0.430723 0.117299
H54   H     H_    0.737133 0.040304 0.570581 0.134507
H55   H     H_    0.830672 0.503101 0.430753 0.117462
H56   H     H_    0.237124 0.540327 0.570560 0.135411
H57   H     H_    0.791512 0.230478 0.574076 0.123805
H58   H     H_    0.190011 0.250829 0.408707 0.140572
H59   H     H_    0.291543 0.730500 0.574053 0.124330
H60   H     H_    0.689989 0.750852 0.408714 0.140622
H61   H     H_    0.670900 0.246947 0.463193 0.125166
H62   H     H_    0.273513 0.173098 0.525816 0.110520
H63   H     H_    0.170880 0.746985 0.463213 0.125069
H64   H     H_    0.773533 0.673089 0.525795 0.110535
O1    O     O_R   0.783100 0.287550 0.345460 -0.528378
O2    O     O_R   0.216900 0.287550 0.654540 -0.522275
O3    O     O_R   0.283100 0.787550 0.345460 -0.528639
O4    O     O_R   0.716900 0.787550 0.654540 -0.527991
O5    O     O_R   0.554710 0.081900 0.170950 -0.513671
O6    O     O_R   0.445290 0.081900 0.829050 -0.511679
O7    O     O_R   0.054710 0.581900 0.170950 -0.513062
O8    O     O_R   0.945290 0.581900 0.829050 -0.509702
O9    O     O_R   0.545650 0.284910 0.163740 -0.531302
O10   O     O_R   0.454350 0.284910 0.836260 -0.531272
O11   O     O_R   0.045650 0.784910 0.163740 -0.529001
O12   O     O_R   0.954350 0.784910 0.836260 -0.523638
O13   O     O_R   0.677950 0.374280 0.185410 -0.486225
O14   O     O_R   0.322050 0.374280 0.814590 -0.484573
O15   O     O_R   0.177950 0.874280 0.185410 -0.488315
O16   O     O_R   0.822050 0.874280 0.814590 -0.494515
O17   O     O_3   0.664670 0.164660 0.254930 -0.282519
O18   O     O_3   0.335330 0.164660 0.745070 -0.294100
O19   O     O_3   0.164670 0.664660 0.254930 -0.281705
O20   O     O_3   0.835330 0.664660 0.745070 -0.272960
O21   O     O_R   0.760020 0.037400 0.337700 -0.515880
O22   O     O_R   0.239980 0.037400 0.662300 -0.522877
O23   O     O_R   0.260020 0.537400 0.337700 -0.516322
O24   O     O_R   0.739980 0.537400 0.662300 -0.523802
O25   O     O_R   0.666600 0.921990 0.332020 -0.526619
O26   O     O_R   0.333400 0.921990 0.667980 -0.529457
O27   O     O_R   0.166600 0.421990 0.332020 -0.527143
O28   O     O_R   0.833400 0.421990 0.667980 -0.531544
O29   O     O_R   0.557260 0.082670 0.312540 -0.496822
O30   O     O_R   0.442740 0.082670 0.687460 -0.498894
O31   O     O_R   0.057260 0.582670 0.312540 -0.495945
O32   O     O_R   0.942740 0.582670 0.687460 -0.500467
O33   O     O_R   0.548410 0.285740 0.316480 -0.511078
O34   O     O_R   0.451590 0.285740 0.683520 -0.514469
O35   O     O_R   0.048410 0.785740 0.316480 -0.510569
O36   O     O_R   0.951590 0.785740 0.683520 -0.515382
O37   O     O_R   0.680500 0.375040 0.327000 -0.500923
O38   O     O_R   0.319500 0.375040 0.673000 -0.494531
O39   O     O_R   0.180500 0.875040 0.327000 -0.501103
O40   O     O_R   0.819500 0.875040 0.673000 -0.501471
O41   O     O_R   0.780350 0.286720 0.192720 -0.496887
O42   O     O_R   0.219650 0.286720 0.807280 -0.494453
O43   O     O_R   0.280350 0.786720 0.192720 -0.495214
O44   O     O_R   0.719650 0.786720 0.807280 -0.501027
O45   O     O_R   0.757470 0.036630 0.196110 -0.510656
O46   O     O_R   0.242530 0.036630 0.803890 -0.509260
O47   O     O_R   0.257470 0.536630 0.196110 -0.509687
O48   O     O_R   0.742530 0.536630 0.803890 -0.492743
O49   O     O_R   0.663840 0.921160 0.179280 -0.507368
O50   O     O_R   0.336160 0.921160 0.820720 -0.508620
O51   O     O_R   0.163840 0.421160 0.179280 -0.506873
O52   O     O_R   0.836160 0.421160 0.820720 -0.513783
N1    N     N_3   0.566157 0.995852 0.922951 -0.639160
H65   H     H_    0.524916 0.940156 0.931835 0.246618
H66   H     H_    0.567015 0.004165 0.870090 0.251321
N2    N     N_3   0.433748 0.995202 0.076149 -0.632999
H67   H     H_    0.474817 0.939622 0.066778 0.244948
H68   H     H_    0.433182 0.003211 0.129086 0.256109
N3    N     N_3   0.015014 0.446596 0.932405 -0.635287
H69   H     H_    0.962009 0.437320 0.936305 0.256427
H70   H     H_    0.024183 0.431252 0.881723 0.259799
N4    N     N_3   0.906489 0.555715 0.073423 -0.636119
H71   H     H_    0.928139 0.477986 0.055650 0.244780
H72   H     H_    0.915755 0.556949 0.126870 0.251738
N5    N     N_3   0.686202 0.244583 0.593842 -0.664246
H73   H     H_    0.706604 0.209288 0.641124 0.235239
H74   H     H_    0.655604 0.178854 0.567458 0.233593
N6    N     N_3   0.297315 0.226926 0.402450 -0.656789
H75   H     H_    0.278561 0.153643 0.372978 0.231949
H76   H     H_    0.338697 0.201353 0.438244 0.235319
N7    N     N_3   0.186244 0.744568 0.593869 -0.663486
H77   H     H_    0.206676 0.709145 0.641109 0.238129
H78   H     H_    0.155598 0.678924 0.567462 0.233641
N8    N     N_3   0.797287 0.726932 0.402417 -0.656119
H79   H     H_    0.778533 0.653575 0.373010 0.232455
H80   H     H_    0.838716 0.701498 0.438192 0.235214

loop_
_geom_bond_atom_site_label_1
_geom_bond_atom_site_label_2
_ccdc_geom_bond_type
C94   H38   S    
C39   C51   S    
C58   C62   S    
C8    C24   S    
C10   H52   S    
C9    H9    S    
C14   C18   S    
C1    O21   A    
C35   C36   S    
C8    C96   S    
Cr12  O36   S    
C83   O15   A    
N2    H68   S    
Cr7   O19   S    
C9    C25   S    
C70   O2    A    
C39   H27   S    
C76   O52   A    
C67   C83   S    
C40   H28   S    
C11   C19   S    
Cr3   O43   S    
C69   O1    A    
C48   O36   A    
C82   O14   A    
C11   H49   S    
C39   H36   S    
Cr8   O32   S    
C10   C18   S    
C13   C29   S    
C16   C20   S    
C8    H44   S    
C25   H55   S    
C75   O47   A    
C72   O40   A    
Cr5   O17   S    
C74   O46   A    
Cr6   O26   S    
Cr2   O2    S    
C43   N3    S    
Cr11  O39   S    
C9    H51   S    
Cr9   O13   S    
N7    H77   S    
Cr10  O38   S    
N5    H74   S    
Cr3   O23   S    
Cr9   O37   S    
C49   C78   S    
Cr2   O22   S    
C3    C18   S    
C4    O24   A    
C48   O32   A    
Cr5   O25   S    
Cr1   O21   S    
C37   C42   S    
C12   H50   S    
C51   C80   S    
Cr10  O10   S    
C21   C25   S    
C59   C67   T    
C43   C51   S    
C82   O42   A    
C55   C74   S    
C13   H57   S    
C41   C49   S    
C40   C43   S    
C81   O41   A    
C57   C61   S    
C14   N6    S    
C79   O11   A    
C78   O6    A    
C6    C94   S    
Cr8   O20   S    
C55   C63   T    
Cr11  O11   S    
Cr4   O4    S    
C77   O9    A    
C56   C64   T    
C93   H37   S    
C73   O49   A    
C23   C27   S    
C14   H58   S    
C52   C79   S    
Cr11  O35   S    
C36   C52   S    
Cr2   O18   S    
C46   C85   S    
Cr7   O51   S    
C5    C93   S    
C44   C52   S    
C7    H47   S    
Cr1   O17   S    
C20   C96   S    
C46   O30   A    
C75   O51   A    
C12   H12   S    
N5    H73   S    
C42   H29   S    
N6    H76   S    
Cr8   O28   S    
Cr6   O6    S    
C15   H59   S    
Cr4   O20   S    
N4    H72   S    
C14   C30   S    
C31   H7    S    
N2    H67   S    
Cr12  O40   S    
C58   C66   T    
N1    H65   S    
C41   N1    S    
Cr4   O24   S    
C24   C72   S    
C96   H40   S    
N8    H80   S    
Cr7   O31   S    
C34   C50   S    
Cr1   O1    S    
C37   H34   S    
Cr12  O12   S    
C28   H54   S    
C68   C84   S    
Cr9   O17   S    
Cr6   O18   S    
C95   H39   S    
Cr10  O14   S    
C38   C41   S    
C11   H11   S    
C91   C92   S    
C81   O13   A    
C15   N7    S    
C27   H15   S    
C13   N5    S    
C54   C62   T    
N7    H78   S    
C40   C52   S    
C21   C29   S    
C15   C31   S    
C94   H2    S    
C3    O23   A    
C21   C69   S    
C2    O22   A    
C23   C31   S    
C15   C19   S    
C24   C32   S    
C95   H3    S    
C10   H10   S    
C44   N4    S    
C66   C82   S    
C37   C49   S    
Cr8   O52   S    
C65   C81   S    
C88   C91   T    
C11   C27   S    
C34   H18   S    
C12   C20   S    
C33   H17   S    
C33   C34   S    
C7    H43   S    
C48   C87   S    
C47   O31   A    
C43   H32   S    
N3    H70   S    
Cr7   O27   S    
C72   O4    A    
C32   H8    S    
C3    O27   A    
C35   H19   S    
C73   O45   A    
C34   H22   S    
C41   H30   S    
C6    H46   S    
Cr12  O20   S    
C42   C50   S    
C30   H62   S    
C4    C17   S    
C9    C17   S    
Cr3   O47   S    
C44   H31   S    
C71   O39   A    
C25   H13   S    
Cr2   O46   S    
C35   C51   S    
C18   C94   S    
C38   H33   S    
Cr1   O45   S    
C84   O16   A    
C53   C76   S    
C17   C93   S    
N4    H71   S    
Cr10  O18   S    
C53   C61   T    
C50   C77   S    
C35   H23   S    
C36   H20   S    
C19   C95   S    
Cr6   O50   S    
C12   C28   S    
C30   H6    S    
C33   H21   S    
C46   O34   A    
C29   H5    S    
N8    H79   S    
Cr4   O44   S    
C1    C20   S    
C45   O33   A    
C56   C73   S    
C22   C30   S    
C2    C19   S    
C2    O26   A    
Cr12  O16   S    
C1    O25   A    
C24   C28   S    
C80   O12   A    
C57   C65   T    
C86   C89   T    
Cr10  O34   S    
C83   O43   A    
C85   C90   T    
C28   H16   S    
Cr9   O33   S    
C39   C44   S    
C38   C50   S    
C32   H64   S    
C13   C17   S    
C16   C32   S    
C7    C95   S    
C74   O50   A    
C59   C63   S    
C96   H4    S    
C47   O35   A    
C60   C64   S    
C60   C68   T    
Cr9   O9    S    
C47   C88   S    
C36   H24   S    
C45   C86   S    
Cr6   O30   S    
C80   O8    A    
Cr5   O29   S    
C27   H53   S    
Cr3   O19   S    
C10   C26   S    
Cr8   O8    S    
C7    C23   S    
C31   H63   S    
C16   H60   S    
C5    H45   S    
C5    H41   S    
C26   H56   S    
N6    H75   S    
N1    H66   S    
C71   O3    A    
C29   H61   S    
C69   O37   A    
Cr7   O7    S    
C38   H26   S    
Cr5   O49   S    
Cr2   O42   S    
C8    H48   S    
C37   H25   S    
C77   O5    A    
C16   N8    S    
Cr3   O3    S    
Cr5   O5    S    
C54   C75   S    
C6    H42   S    
C4    O28   A    
C79   O7    A    
C5    C21   S    
C42   N2    S    
Cr4   O48   S    
C23   C71   S    
C45   O29   A    
C22   C26   S    
C40   H35   S    
Cr11  O19   S    
N3    H69   S    
C76   O48   A    
Cr11  O15   S    
Cr1   O41   S    
C26   H14   S    
C70   O38   A    
C78   O10   A    
C89   C90   S    
C87   C92   T    
C33   C49   S    
C22   C70   S    
C84   O44   A    
C93   H1    S    
C6    C22   S    
