data_mof_unit_64056.cif
_audit_creation_date              2012-10-26T18:05:17-0400
_audit_creation_method            fapswitch 2.2
_symmetry_space_group_name_H-M    P1
_symmetry_Int_Tables_number       1
_space_group_crystal_system       triclinic
_cell_length_a                    47.990237
_cell_length_b                    35.699115
_cell_length_c                    32.083282
_cell_angle_alpha                 89.999885
_cell_angle_beta                  132.05018
_cell_angle_gamma                 90.000031
_cell_volume                      40815.001221

loop_
_atom_site_label
_atom_site_type_symbol
_atom_type_description
_atom_site_fract_x
_atom_site_fract_y
_atom_site_fract_z
_atom_type_partial_charge
C1    C     C_R   0.072207 0.000001 0.573295 0.521720
C2    C     C_3   0.034284 0.982212 0.759730 -0.115248
C3    C     C_R   0.572271 0.001084 0.072345 0.560156
C4    C     C_R   0.927729 0.501084 0.927655 0.560153
C5    C     C_R   0.072271 0.501084 0.072345 0.560152
C6    C     C_R   0.500000 0.072423 1.000000 0.577270
C7    C     C_R   0.000000 0.572423 1.000000 0.577268
C8    C     C_R   0.472537 0.826706 0.949411 0.026371
C9    C     C_R   0.527463 0.826705 0.050589 0.026371
C10   C     C_R   0.972537 0.326705 0.949412 0.026371
C11   C     C_R   0.027463 0.326706 0.050590 0.026369
C12   C     C_R   0.472607 0.866391 0.949361 0.002264
C13   C     C_3   0.465714 0.482215 0.240269 -0.115250
C14   C     C_R   0.527393 0.866391 0.050639 0.002264
C15   C     C_R   0.972607 0.366391 0.949362 0.002265
C16   C     C_R   0.027393 0.366391 0.050639 0.002264
C17   C     C_R   0.500000 0.886236 0.000000 -0.060033
C18   C     C_R   0.000000 0.386236 0.000000 -0.060034
C19   C     C_R   0.500000 0.807101 0.000000 -0.042145
C20   C     C_R   1.000000 0.307101 0.000001 -0.042145
C21   C     C_1   0.500000 0.766505 0.000000 0.096006
C22   C     C_1   1.000000 0.266505 0.000002 0.096004
C23   C     C_3   0.035831 0.976852 0.310445 -0.088331
C24   C     C_3   0.534289 0.482222 0.759735 -0.115249
C25   C     C_3   0.964077 0.976995 0.689463 -0.088338
C26   C     C_3   0.535921 0.476992 0.310535 -0.088338
C27   C     C_3   0.464083 0.476985 0.689469 -0.088338
C28   C     C_1   1.000000 0.232757 0.000002 0.069727
C29   C     C_1   0.500000 0.732757 0.000000 0.069729
C30   C     C_R   0.983857 0.173017 0.950756 -0.121241
C31   C     C_R   0.016142 0.173017 0.049248 -0.121253
C32   C     C_R   0.483862 0.673017 0.950755 -0.121242
C33   C     C_R   0.516138 0.673017 0.049244 -0.121242
C34   C     C_R   0.984071 0.133743 0.950033 -0.028293
C35   C     C_1   0.000725 0.000520 0.162906 0.069394
C36   C     C_R   0.015929 0.133743 0.049971 -0.028322
C37   C     C_R   0.484075 0.633743 0.950033 -0.028299
C38   C     C_R   0.515924 0.633743 0.049967 -0.028298
C39   C     C_R   0.000000 0.113544 0.000002 0.042839
C40   C     C_R   0.500000 0.613544 1.000000 0.042844
C41   C     C_R   1.000000 0.192492 0.000002 0.023803
C42   C     C_R   0.500000 0.692492 0.000000 0.023805
C43   C     C_R   0.474118 0.173519 0.999293 0.024531
C44   C     C_R   0.525883 0.173519 0.000707 0.024531
C45   C     C_R   0.974118 0.673519 0.999294 0.024533
C46   C     C_1   0.999275 0.000522 0.837094 0.069407
C47   C     C_R   0.025882 0.673519 0.000706 0.024530
C48   C     C_R   0.474241 0.133861 0.999622 -0.000265
C49   C     C_R   0.525760 0.133861 0.000378 -0.000264
C50   C     C_R   0.974241 0.633861 0.999623 -0.000263
C51   C     C_R   0.025759 0.633861 0.000377 -0.000264
C52   C     C_R   0.500000 0.113990 1.000000 -0.068448
C53   C     C_R   1.000000 0.613990 1.000000 -0.068449
C54   C     C_R   0.500000 0.193082 1.000000 -0.043991
C55   C     C_R   1.000000 0.693082 1.000000 -0.043990
C56   C     C_1   0.500000 0.233612 1.000000 0.091142
C57   C     C_1   0.500725 0.500522 0.162906 0.069407
C58   C     C_1   0.000000 0.733612 0.000000 0.091143
C59   C     C_3   0.034215 0.975358 0.259653 -0.129664
C60   C     C_3   0.965686 0.975494 0.740247 -0.129656
C61   C     C_3   0.534312 0.475491 0.259751 -0.129657
C62   C     C_3   0.465693 0.475484 0.740254 -0.129658
C63   C     C_1   0.000000 0.767321 0.000000 0.060020
C64   C     C_1   0.500000 0.267321 1.000000 0.060018
C65   C     C_R   0.966035 0.827076 0.967418 -0.089082
C66   C     C_R   0.033965 0.827076 0.032582 -0.089066
C67   C     C_R   0.466035 0.327076 0.967418 -0.089079
C68   C     C_1   0.499275 0.500522 0.837094 0.069406
C69   C     C_R   0.533965 0.327076 0.032582 -0.089079
C70   C     C_R   0.965991 0.866200 0.967343 -0.103861
C71   C     C_R   0.034009 0.866200 0.032657 -0.103840
C72   C     C_R   0.465991 0.366200 0.967343 -0.103856
C73   C     C_R   0.534009 0.366200 0.032657 -0.103857
C74   C     C_R   1.000000 0.886176 0.000000 0.021253
C75   C     C_R   0.500000 0.386176 1.000000 0.021241
C76   C     C_R   0.000000 0.807500 0.000000 0.040688
C77   C     C_R   0.500000 0.307500 1.000000 0.040682
C78   C     C_1   0.000211 0.999986 0.124843 0.120629
C79   C     C_1   0.001396 0.000583 0.339269 0.054573
C80   C     C_1   0.999789 0.999987 0.875157 0.120627
C81   C     C_1   0.500211 0.499986 0.124843 0.120631
C82   C     C_1   0.499789 0.499986 0.875157 0.120630
C83   C     C_3   0.002513 0.001406 0.294200 -0.057162
C84   C     C_3   0.997494 0.001415 0.705807 -0.057159
C85   C     C_3   0.502505 0.501415 0.294193 -0.057159
C86   C     C_3   0.497494 0.501414 0.705806 -0.057160
C87   C     C_3   0.010108 0.042998 0.234698 -0.014617
C88   C     C_3   0.990063 0.043037 0.765471 -0.014622
C89   C     C_3   0.509940 0.543037 0.234531 -0.014620
C90   C     C_1   0.998609 0.000587 0.660736 0.054564
C91   C     C_3   0.490051 0.543035 0.765460 -0.014619
C92   C     C_3   0.001708 0.001394 0.210138 -0.086066
C93   C     C_3   0.998296 0.001400 0.789866 -0.086059
C94   C     C_3   0.501704 0.501400 0.210134 -0.086059
C95   C     C_3   0.498296 0.501399 0.789865 -0.086059
C96   C     C_2   0.049755 0.055203 0.259534 0.641102
C97   C     C_2   0.950463 0.055399 0.740679 0.641100
C98   C     C_2   0.549541 0.555396 0.259324 0.641099
C99   C     C_2   0.450448 0.555386 0.740665 0.641100
C100  C     C_2   0.981739 0.071103 0.188065 0.261214
C101  C     C_1   0.501391 0.500587 0.339264 0.054565
C102  C     C_2   0.018541 0.071029 0.812217 0.261186
C103  C     C_2   0.481464 0.571031 0.187787 0.261186
C104  C     C_2   0.518522 0.571034 0.812198 0.261185
C105  C     C_2   0.946601 0.953466 0.152075 0.253805
C106  C     C_2   0.053212 0.953255 0.847740 0.253780
C107  C     C_2   0.446784 0.453259 0.152256 0.253781
C108  C     C_2   0.553225 0.453269 0.847753 0.253781
C109  C     C_2   0.309494 0.949000 0.865631 0.288820
C110  C     C_2   0.690507 0.949009 0.134362 0.288811
C111  C     C_2   0.809494 0.449000 0.865631 0.288818
C112  C     C_R   0.927793 0.000001 0.426706 0.521696
C113  C     C_1   0.498608 0.500586 0.660736 0.054566
C114  C     C_2   0.190506 0.449000 0.134370 0.288820
C115  C     C_2   0.386222 0.050058 0.828927 0.253622
C116  C     C_2   0.613778 0.050054 0.171077 0.253619
C117  C     C_2   0.886222 0.550059 0.828928 0.253621
C118  C     C_2   0.113778 0.550059 0.171072 0.253622
C119  C     C_2   0.303868 0.049936 0.749383 0.305739
C120  C     C_2   0.696131 0.049932 0.250623 0.305741
C121  C     C_2   0.803869 0.549937 0.749383 0.305739
C122  C     C_2   0.196131 0.549937 0.250616 0.305741
C123  C     C_2   0.193293 0.957925 0.762479 0.256993
C124  C     C_1   0.000567 0.000142 0.375985 0.071576
C125  C     C_2   0.806706 0.957954 0.237501 0.257055
C126  C     C_2   0.693293 0.457929 0.762481 0.256994
C127  C     C_2   0.306707 0.457928 0.237520 0.256992
C128  C     C_2   0.109758 0.957962 0.676822 0.254377
C129  C     C_2   0.890243 0.957999 0.323151 0.254472
C130  C     C_2   0.609758 0.457966 0.676825 0.254380
C131  C     C_2   0.390242 0.457965 0.323177 0.254375
C132  C     C_2   0.028736 0.070699 0.326536 0.634906
C133  C     C_2   0.971553 0.070813 0.673750 0.634907
C134  C     C_2   0.528452 0.570811 0.326254 0.634907
C135  C     C_1   0.999435 0.000143 0.624018 0.071570
C136  C     C_2   0.471533 0.570805 0.673731 0.634907
C137  C     C_2   0.443029 0.805484 0.896889 0.622924
C138  C     C_2   0.556971 0.805484 0.103111 0.622923
C139  C     C_2   0.943029 0.305484 0.896890 0.622921
C140  C     C_2   0.056970 0.305484 0.103112 0.622926
C141  C     C_2   0.443752 0.887230 0.896306 0.636061
C142  C     C_2   0.556248 0.887230 0.103694 0.636060
C143  C     C_2   0.943752 0.387229 0.896306 0.636061
C144  C     C_2   0.056248 0.387230 0.103695 0.636060
C145  C     C_2   0.968213 0.115723 0.896251 0.278125
C146  C     C_1   0.500564 0.500143 0.375981 0.071573
C147  C     C_2   0.031789 0.115722 0.103754 0.278109
C148  C     C_2   0.468221 0.615722 0.896253 0.278124
C149  C     C_2   0.531778 0.615722 0.103746 0.278124
C150  C     C_2   0.446129 0.194750 0.996451 0.617941
C151  C     C_2   0.553871 0.194750 0.003549 0.617941
C152  C     C_2   0.946130 0.694750 0.996453 0.617938
C153  C     C_2   0.053870 0.694750 0.003547 0.617941
C154  C     C_2   0.447141 0.113167 0.999158 0.636718
C155  C     C_2   0.552859 0.113167 0.000843 0.636718
C156  C     C_2   0.947142 0.613167 0.999160 0.636719
C157  C     C_1   0.499435 0.500143 0.624018 0.071573
C158  C     C_2   0.052858 0.613167 0.000839 0.636718
C159  C     C_2   0.074252 0.986909 0.366610 0.647208
C160  C     C_2   0.925698 0.987207 0.633338 0.647201
C161  C     C_2   0.574301 0.487202 0.366661 0.647203
C162  C     C_2   0.425701 0.487187 0.633342 0.647202
C163  C     C_2   0.031863 0.935343 0.241800 0.212290
C164  C     C_2   0.967879 0.935470 0.757940 0.212285
C165  C     C_2   0.532116 0.435467 0.242055 0.212286
C166  C     C_2   0.467897 0.435461 0.757958 0.212286
C167  C     C_2   0.929648 0.993894 0.226222 0.573872
C168  C     C_R   0.328133 0.975976 0.855626 -0.004949
C169  C     C_2   0.070329 0.993611 0.773757 0.573844
C170  C     C_2   0.429670 0.493616 0.226242 0.573843
C171  C     C_2   0.570331 0.493630 0.773759 0.573845
C172  C     C_R   0.671868 0.975981 0.144372 -0.004943
C173  C     C_R   0.828133 0.475976 0.855625 -0.004948
C174  C     C_R   0.171867 0.475976 0.144375 -0.004948
C175  C     C_R   0.367344 0.978281 0.894640 -0.083073
C176  C     C_R   0.572207 0.500001 0.573295 0.521711
C177  C     C_R   0.632657 0.978284 0.105358 -0.083073
C178  C     C_R   0.867344 0.478281 0.894639 -0.083073
C179  C     C_R   0.132656 0.478281 0.105361 -0.083073
C180  C     C_R   0.386257 0.001993 0.886023 -0.042965
C181  C     C_R   0.613743 0.001993 0.113977 -0.042965
C182  C     C_R   0.886257 0.501993 0.886023 -0.042964
C183  C     C_R   0.113743 0.501993 0.113977 -0.042965
C184  C     C_R   0.365667 0.024841 0.837457 -0.025644
C185  C     C_R   0.634333 0.024839 0.162545 -0.025644
C186  C     C_R   0.865667 0.524841 0.837457 -0.025644
C187  C     C_R   0.427793 0.500001 0.426705 0.521713
C188  C     C_R   0.134333 0.524841 0.162542 -0.025644
C189  C     C_R   0.325779 0.023759 0.798189 0.033280
C190  C     C_R   0.674221 0.023757 0.201815 0.033279
C191  C     C_R   0.825779 0.523759 0.798189 0.033280
C192  C     C_R   0.174221 0.523760 0.201811 0.033281
C193  C     C_R   0.000014 0.000025 0.420063 0.543897
C194  C     C_R   0.999987 0.000025 0.579938 0.543901
C195  C     C_R   0.500013 0.500025 0.420062 0.543899
C196  C     C_R   0.499987 0.500025 0.579938 0.543899
C197  C     C_R   0.307172 0.999121 0.807514 -0.011865
C198  C     C_3   0.962722 0.987997 0.189162 -0.147285
C199  C     C_R   0.692829 0.999122 0.192487 -0.011862
C200  C     C_R   0.807172 0.499122 0.807513 -0.011865
C201  C     C_R   0.192828 0.499122 0.192487 -0.011865
C202  C     C_1   0.266578 0.999133 0.769411 0.047586
C203  C     C_1   0.733422 0.999134 0.230591 0.047585
C204  C     C_1   0.766578 0.499134 0.769410 0.047586
C205  C     C_1   0.233421 0.499134 0.230590 0.047587
C206  C     C_1   0.232791 0.999432 0.737484 0.070052
C207  C     C_1   0.767209 0.999433 0.262519 0.070033
C208  C     C_1   0.732792 0.499432 0.737483 0.070050
C209  C     C_3   0.037229 0.987848 0.810790 -0.147280
C210  C     C_1   0.267208 0.499432 0.262516 0.070052
C211  C     C_R   0.172348 0.978351 0.708541 0.035083
C212  C     C_R   0.827653 0.978367 0.291449 0.035061
C213  C     C_R   0.672348 0.478352 0.708542 0.035081
C214  C     C_R   0.327652 0.478352 0.291459 0.035082
C215  C     C_R   0.132381 0.977989 0.667333 -0.019322
C216  C     C_R   0.867619 0.978006 0.332654 -0.019388
C217  C     C_R   0.632382 0.477991 0.667334 -0.019327
C218  C     C_R   0.367618 0.477991 0.332666 -0.019324
C219  C     C_R   0.113478 0.999853 0.617930 -0.016594
C220  C     C_3   0.462770 0.487851 0.189209 -0.147281
C221  C     C_R   0.886522 0.999853 0.382071 -0.016593
C222  C     C_R   0.613478 0.499853 0.617930 -0.016582
C223  C     C_R   0.386522 0.499853 0.382070 -0.016582
C224  C     C_R   0.134016 0.021675 0.610384 -0.122871
C225  C     C_R   0.865985 0.021661 0.389633 -0.122869
C226  C     C_R   0.634016 0.521673 0.610381 -0.122878
C227  C     C_R   0.365984 0.521674 0.389618 -0.122877
C228  C     C_R   0.173014 0.021383 0.650155 -0.107582
C229  C     C_R   0.826987 0.021369 0.349862 -0.107588
C230  C     C_R   0.673014 0.521381 0.650153 -0.107591
C231  C     C_3   0.537232 0.487858 0.810793 -0.147281
C232  C     C_R   0.326986 0.521382 0.349846 -0.107590
C233  C     C_R   0.192315 0.999836 0.698816 0.028802
C234  C     C_R   0.807685 0.999836 0.301188 0.028789
C235  C     C_R   0.692315 0.499836 0.698815 0.028807
C236  C     C_R   0.307685 0.499836 0.301185 0.028808
C237  C     C_R   1.000000 0.072143 0.000001 0.636179
C238  C     C_R   0.500000 0.572142 1.000000 0.636195
C239  C     C_3   0.004635 0.042769 0.278638 -0.079206
C240  C     C_3   0.995538 0.042786 0.721535 -0.079217
C241  C     C_3   0.504465 0.542786 0.278468 -0.079217
C242  C     C_3   0.965646 0.982351 0.240201 -0.115258
C243  C     C_3   0.495526 0.542785 0.721523 -0.079216
C244  C     C_R   0.000048 0.999639 0.080031 0.593598
C245  C     C_R   0.999951 0.999639 0.919968 0.593603
C246  C     C_R   0.500049 0.499639 0.080032 0.593607
C247  C     C_R   0.499951 0.499639 0.919968 0.593607
C248  C     C_R   1.000000 0.927556 0.000000 0.536905
C249  C     C_R   0.500000 0.427556 0.000000 0.536899
C250  C     C_R   0.500000 0.927803 0.000000 0.604217
C251  C     C_R   1.000000 0.427803 0.000000 0.604217
C252  C     C_R   0.427729 0.001084 0.927655 0.560153
Cu1   Cu    Cu3+1 0.000000 0.037300 0.500000 1.037146
Cu2   Cu    Cu3+1 0.499980 0.000110 0.041300 1.101476
Cu3   Cu    Cu3+1 0.000020 0.500110 0.958700 1.101473
Cu4   Cu    Cu3+1 0.999980 0.500110 0.041300 1.101473
Cu5   Cu    Cu3+1 0.500000 0.537300 0.500000 1.037177
Cu6   Cu    Cu3+1 0.000000 0.962740 0.500000 1.058971
Cu7   Cu    Cu3+1 0.500000 0.462740 0.500000 1.058995
Cu8   Cu    Cu3+1 0.037280 0.999890 0.037280 1.093758
Cu9   Cu    Cu3+1 0.962720 0.999890 0.962720 1.093737
Cu10  Cu    Cu3+1 0.537280 0.499890 0.037280 1.093736
Cu11  Cu    Cu3+1 0.462720 0.499890 0.962720 1.093741
Cu12  Cu    Cu3+1 0.500020 0.000110 0.958700 1.101474
H1    H     H_    0.976438 0.054386 0.256989 0.134482
H2    H     H_    0.880272 0.038390 0.427240 0.153804
H3    H     H_    0.093701 0.574190 0.038232 0.348419
H4    H     H_    0.106991 0.990640 0.450630 0.359838
H5    H     H_    0.892976 0.991070 0.549334 0.359806
H6    H     H_    0.607023 0.491062 0.450665 0.359811
H7    H     H_    0.392978 0.491041 0.549337 0.359813
H8    H     H_    0.018460 0.913789 0.246975 0.110015
H9    H     H_    0.981195 0.913862 0.752677 0.110000
H10   H     H_    0.518799 0.413860 0.247317 0.110001
H11   H     H_    0.481218 0.413857 0.752701 0.110002
H12   H     H_    0.887355 0.978337 0.221925 0.365865
H13   H     H_    0.619729 0.538414 0.572784 0.153811
H14   H     H_    0.112563 0.977883 0.778004 0.365954
H15   H     H_    0.387435 0.477892 0.221994 0.365954
H16   H     H_    0.612569 0.477914 0.778009 0.365948
H17   H     H_    0.380271 0.538415 0.427215 0.153814
H18   H     H_    0.188259 0.037922 0.642712 0.172949
H19   H     H_    0.811742 0.037896 0.357316 0.172939
H20   H     H_    0.688259 0.537919 0.642708 0.172933
H21   H     H_    0.311741 0.537921 0.357290 0.172934
H22   H     H_    0.971679 0.188642 0.912892 0.139518
H23   H     H_    0.028321 0.188641 0.087113 0.139522
H24   H     H_    0.471687 0.688642 0.912893 0.139518
H25   H     H_    0.023782 0.054289 0.743234 0.134484
H26   H     H_    0.528313 0.688642 0.087107 0.139518
H27   H     H_    0.939604 0.812103 0.942086 0.142054
H28   H     H_    0.060396 0.812103 0.057915 0.142061
H29   H     H_    0.439604 0.312103 0.942085 0.142061
H30   H     H_    0.560396 0.312103 0.057914 0.142060
H31   H     H_    0.939355 0.880761 0.941796 0.152440
H32   H     H_    0.060645 0.880761 0.058204 0.152446
H33   H     H_    0.439355 0.380761 0.941796 0.152450
H34   H     H_    0.560645 0.380761 0.058204 0.152450
H35   H     H_    0.031276 0.948025 0.318148 0.094246
H36   H     H_    0.476222 0.554291 0.256769 0.134484
H37   H     H_    0.968516 0.948149 0.681643 0.094237
H38   H     H_    0.531480 0.448147 0.318353 0.094239
H39   H     H_    0.468530 0.448141 0.681658 0.094239
H40   H     H_    0.060931 0.985784 0.273047 0.214632
H41   H     H_    0.939012 0.986025 0.726894 0.214640
H42   H     H_    0.560987 0.486021 0.273105 0.214640
H43   H     H_    0.439016 0.486009 0.726898 0.214640
H44   H     H_    0.968301 0.951771 0.249258 0.122501
H45   H     H_    0.031506 0.951643 0.750551 0.122486
H46   H     H_    0.468490 0.451645 0.249445 0.122487
H47   H     H_    0.523767 0.554295 0.743219 0.134484
H48   H     H_    0.531519 0.451651 0.750564 0.122488
H49   H     H_    0.941951 0.010358 0.162022 0.175949
H50   H     H_    0.058089 0.010128 0.838018 0.175951
H51   H     H_    0.441912 0.510132 0.161982 0.175951
H52   H     H_    0.558086 0.510143 0.838016 0.175950
H53   H     H_    0.103000 0.070596 0.326125 0.365775
H54   H     H_    0.897283 0.071012 0.674149 0.365751
H55   H     H_    0.602722 0.571004 0.325855 0.365751
H56   H     H_    0.397264 0.570984 0.674131 0.365753
H57   H     H_    0.952447 0.069948 0.167700 0.124707
H58   H     H_    0.383577 0.960542 0.931578 0.199991
H59   H     H_    0.047829 0.069760 0.832577 0.124716
H60   H     H_    0.452176 0.569764 0.167427 0.124716
H61   H     H_    0.547810 0.569773 0.832559 0.124715
H62   H     H_    0.957182 0.925779 0.169758 0.121348
H63   H     H_    0.042519 0.925609 0.829948 0.121347
H64   H     H_    0.457475 0.425613 0.170047 0.121348
H65   H     H_    0.542540 0.425621 0.829968 0.121348
H66   H     H_    0.279497 0.944329 0.833976 0.149499
H67   H     H_    0.720505 0.944341 0.166014 0.149474
H68   H     H_    0.779497 0.444329 0.833976 0.149496
H69   H     H_    0.616424 0.960548 0.068418 0.199989
H70   H     H_    0.220503 0.444329 0.166025 0.149497
H71   H     H_    0.412082 0.063451 0.864654 0.160421
H72   H     H_    0.587919 0.063449 0.135352 0.160418
H73   H     H_    0.912082 0.563451 0.864654 0.160420
H74   H     H_    0.087918 0.563451 0.135345 0.160420
H75   H     H_    0.314591 0.077753 0.753547 0.157254
H76   H     H_    0.685408 0.077748 0.246463 0.157254
H77   H     H_    0.814592 0.577754 0.753547 0.157254
H78   H     H_    0.185408 0.577754 0.246452 0.157256
H79   H     H_    0.186952 0.928940 0.763149 0.182996
H80   H     H_    0.883576 0.460543 0.931577 0.199990
H81   H     H_    0.813044 0.928971 0.236818 0.182992
H82   H     H_    0.686952 0.428944 0.763153 0.182996
H83   H     H_    0.313048 0.428944 0.236849 0.182997
H84   H     H_    0.083053 0.969467 0.660070 0.128375
H85   H     H_    0.916957 0.969501 0.339934 0.128378
H86   H     H_    0.583052 0.469471 0.660070 0.128374
H87   H     H_    0.416947 0.469469 0.339929 0.128375
H88   H     H_    0.041824 0.125110 0.348530 0.361537
H89   H     H_    0.958689 0.125276 0.651976 0.361547
H90   H     H_    0.541320 0.625273 0.348032 0.361546
H91   H     H_    0.116424 0.460543 0.068423 0.199991
H92   H     H_    0.458654 0.625265 0.651942 0.361545
H93   H     H_    0.430650 0.763569 0.844593 0.353840
H94   H     H_    0.569350 0.763569 0.155408 0.353839
H95   H     H_    0.930650 0.263568 0.844595 0.353837
H96   H     H_    0.069349 0.263569 0.155409 0.353847
H97   H     H_    0.403032 0.926447 0.855696 0.351469
H98   H     H_    0.596968 0.926447 0.144303 0.351470
H99   H     H_    0.903033 0.426447 0.855696 0.351469
H100  H     H_    0.096968 0.426447 0.144304 0.351470
H101  H     H_    0.950687 0.131980 0.857734 0.143178
H102  H     H_    0.119729 0.038417 0.572788 0.153849
H103  H     H_    0.049313 0.131980 0.142270 0.143264
H104  H     H_    0.450701 0.631980 0.857736 0.143198
H105  H     H_    0.549299 0.631980 0.142264 0.143193
H106  H     H_    0.436289 0.236640 0.027371 0.357052
H107  H     H_    0.563711 0.236640 0.972629 0.357053
H108  H     H_    0.936291 0.736640 0.027375 0.357048
H109  H     H_    0.063709 0.736640 0.972625 0.357053
H110  H     H_    0.406298 0.074190 0.961765 0.348417
H111  H     H_    0.593703 0.074190 0.038238 0.348418
H112  H     H_    0.906299 0.574190 0.961767 0.348418
O1    O     O_R   0.054380 0.031500 0.554380 -0.500283
O2    O     O_R   0.554350 0.000140 0.019470 -0.492564
O3    O     O_R   0.046845 0.275952 0.119303 -0.680396
O4    O     O_2   0.439164 0.880522 0.854677 -0.444473
O5    O     O_R   0.421768 0.914336 0.894062 -0.685030
O6    O     O_2   0.560836 0.880522 0.145323 -0.444473
O7    O     O_R   0.578232 0.914336 0.105937 -0.685029
O8    O     O_2   0.939165 0.380521 0.854678 -0.444474
O9    O     O_R   0.921768 0.414336 0.894062 -0.685031
O10   O     O_2   0.060836 0.380522 0.145323 -0.444473
O11   O     O_R   0.078232 0.414336 0.105938 -0.685030
O12   O     O_2   0.975392 0.083402 0.894114 -0.451177
O13   O     O_R   0.945650 0.500140 0.980530 -0.492562
O14   O     O_2   0.024615 0.083399 0.105894 -0.451240
O15   O     O_2   0.475397 0.583400 0.894117 -0.451192
O16   O     O_2   0.524602 0.583400 0.105882 -0.451189
O17   O     O_2   0.412859 0.186474 0.961393 -0.460678
O18   O     O_R   0.457885 0.224291 0.033698 -0.672419
O19   O     O_2   0.587141 0.186473 0.038607 -0.460677
O20   O     O_R   0.542115 0.224290 0.966301 -0.672419
O21   O     O_2   0.912860 0.686474 0.961396 -0.460684
O22   O     O_R   0.957886 0.724291 0.033701 -0.672414
O23   O     O_2   0.087140 0.686473 0.038603 -0.460675
O24   O     O_R   0.054350 0.500140 0.019470 -0.492563
O25   O     O_R   0.042114 0.724291 0.966299 -0.672421
O26   O     O_2   0.445395 0.119845 0.034746 -0.444042
O27   O     O_R   0.423549 0.086264 0.957814 -0.717580
O28   O     O_2   0.554606 0.119845 0.965255 -0.444041
O29   O     O_R   0.576452 0.086264 0.042188 -0.717578
O30   O     O_2   0.945396 0.619845 0.034748 -0.444043
O31   O     O_R   0.923549 0.586265 0.957816 -0.717581
O32   O     O_2   0.054604 0.619845 0.965251 -0.444042
O33   O     O_R   0.076451 0.586264 0.042184 -0.717580
O34   O     O_2   0.100334 0.995699 0.370008 -0.456122
O35   O     O_R   0.499990 0.054510 0.965080 -0.491411
O36   O     O_R   0.080416 0.983776 0.415695 -0.665630
O37   O     O_2   0.899652 0.996105 0.629976 -0.456129
O38   O     O_R   0.919523 0.984097 0.584241 -0.665682
O39   O     O_2   0.600348 0.496097 0.370024 -0.456127
O40   O     O_R   0.580476 0.484091 0.415757 -0.665675
O41   O     O_2   0.399653 0.496077 0.629977 -0.456126
O42   O     O_R   0.419527 0.484075 0.584246 -0.665672
O43   O     O_2   0.045005 0.926809 0.221122 -0.462072
O44   O     O_2   0.954705 0.926988 0.778588 -0.462036
O45   O     O_2   0.545290 0.426984 0.221407 -0.462036
O46   O     O_R   0.500010 0.054510 0.034920 -0.491411
O47   O     O_2   0.454725 0.426975 0.778608 -0.462037
O48   O     O_2   0.916888 0.025498 0.209558 -0.508696
O49   O     O_R   0.910879 0.967701 0.232225 -0.655271
O50   O     O_2   0.083214 0.025164 0.790545 -0.508698
O51   O     O_R   0.088995 0.967342 0.767655 -0.655235
O52   O     O_2   0.416788 0.525170 0.209456 -0.508698
O53   O     O_R   0.411002 0.467349 0.232343 -0.655233
O54   O     O_2   0.583207 0.525187 0.790538 -0.508700
O55   O     O_R   0.589004 0.467366 0.767664 -0.655235
O56   O     O_R   0.999990 0.554510 0.965080 -0.491411
O57   O     O_R   0.000010 0.554510 0.034920 -0.491410
O58   O     O_R   0.054410 0.968530 0.554410 -0.497592
O59   O     O_R   0.945590 0.968530 0.445590 -0.497632
O60   O     O_R   0.554410 0.468530 0.554410 -0.497605
O61   O     O_R   0.945620 0.031500 0.445620 -0.500265
O62   O     O_R   0.445590 0.468530 0.445590 -0.497604
O63   O     O_R   0.000000 0.031500 0.439720 -0.494675
O64   O     O_R   0.000000 0.031500 0.560280 -0.494613
O65   O     O_R   0.500000 0.531500 0.439720 -0.494619
O66   O     O_R   0.500000 0.531500 0.560280 -0.494622
O67   O     O_R   0.000030 0.968530 0.439750 -0.499209
O68   O     O_R   0.999970 0.968530 0.560250 -0.499244
O69   O     O_R   0.500030 0.468530 0.439750 -0.499241
O70   O     O_R   0.499970 0.468530 0.560250 -0.499239
O71   O     O_R   0.031480 0.054290 0.031480 -0.478797
O72   O     O_R   0.554380 0.531500 0.554380 -0.500278
O73   O     O_R   0.968520 0.054290 0.968520 -0.478839
O74   O     O_R   0.531480 0.554290 0.031480 -0.478821
O75   O     O_R   0.468520 0.554290 0.968520 -0.478817
O76   O     O_R   0.031490 0.999900 0.091770 -0.471146
O77   O     O_R   0.968510 0.999900 0.908230 -0.471164
O78   O     O_R   0.531490 0.499900 0.091770 -0.471166
O79   O     O_R   0.468510 0.499900 0.908230 -0.471164
O80   O     O_R   0.968550 0.999920 0.028830 -0.503598
O81   O     O_R   0.031450 0.999920 0.971170 -0.503603
O82   O     O_R   0.468550 0.499920 0.028830 -0.503601
O83   O     O_R   0.445620 0.531500 0.445620 -0.500279
O84   O     O_R   0.531450 0.499920 0.971170 -0.503601
O85   O     O_R   0.031500 0.945500 0.031490 -0.517467
O86   O     O_R   0.968500 0.945500 0.968510 -0.517466
O87   O     O_R   0.531500 0.445500 0.031490 -0.517463
O88   O     O_R   0.468500 0.445500 0.968510 -0.517463
O89   O     O_R   0.500040 0.945720 0.965170 -0.481140
O90   O     O_R   0.499960 0.945720 0.034830 -0.481139
O91   O     O_R   0.000040 0.445720 0.965170 -0.481139
O92   O     O_R   0.999960 0.445720 0.034830 -0.481140
O93   O     O_2   0.056198 0.057368 0.228577 -0.447693
O94   O     O_R   0.445640 0.000120 0.910750 -0.499014
O95   O     O_R   0.078828 0.063280 0.316457 -0.621669
O96   O     O_2   0.944024 0.057583 0.771640 -0.447692
O97   O     O_R   0.921427 0.063600 0.683790 -0.621668
O98   O     O_2   0.555980 0.557579 0.228364 -0.447696
O99   O     O_R   0.578578 0.563594 0.316214 -0.621668
O100  O     O_2   0.444009 0.557568 0.771625 -0.447694
O101  O     O_R   0.421409 0.563578 0.683774 -0.621666
O102  O     O_2   0.991131 0.096028 0.173516 -0.410081
O103  O     O_2   0.009247 0.095988 0.826868 -0.410036
O104  O     O_2   0.490760 0.595989 0.173138 -0.410046
O105  O     O_R   0.554360 0.000120 0.089250 -0.499012
O106  O     O_2   0.509221 0.595990 0.826842 -0.410048
O107  O     O_2   0.920658 0.956384 0.101428 -0.450565
O108  O     O_2   0.079167 0.956069 0.898398 -0.450608
O109  O     O_2   0.420829 0.456075 0.101599 -0.450607
O110  O     O_2   0.579179 0.456090 0.898410 -0.450606
O111  O     O_2   0.327537 0.931324 0.909416 -0.447557
O112  O     O_2   0.672465 0.931333 0.090578 -0.447566
O113  O     O_2   0.827536 0.431324 0.909415 -0.447562
O114  O     O_2   0.172464 0.431324 0.090586 -0.447557
O115  O     O_2   0.375336 0.054993 0.782359 -0.465364
O116  O     O_R   0.945640 0.500120 0.910750 -0.499014
O117  O     O_2   0.624662 0.054985 0.217645 -0.465364
O118  O     O_2   0.875336 0.554994 0.782360 -0.465366
O119  O     O_2   0.124663 0.554994 0.217640 -0.465362
O120  O     O_2   0.274112 0.040552 0.703864 -0.479446
O121  O     O_2   0.725887 0.040545 0.296142 -0.479455
O122  O     O_2   0.774112 0.540552 0.703863 -0.479454
O123  O     O_2   0.225888 0.540553 0.296136 -0.479452
O124  O     O_2   0.217918 0.973629 0.807014 -0.484091
O125  O     O_2   0.782082 0.973667 0.192974 -0.484083
O126  O     O_2   0.717919 0.473634 0.807015 -0.484091
O127  O     O_R   0.054360 0.500120 0.089250 -0.499013
O128  O     O_2   0.282081 0.473633 0.192986 -0.484090
O129  O     O_2   0.119790 0.928091 0.701579 -0.480754
O130  O     O_2   0.880202 0.928147 0.298344 -0.480662
O131  O     O_2   0.619791 0.428097 0.701586 -0.480748
O132  O     O_2   0.380210 0.428094 0.298418 -0.480752
O133  O     O_2   0.051543 0.060509 0.375481 -0.452882
O134  O     O_R   0.024445 0.108887 0.313796 -0.643540
O135  O     O_2   0.948705 0.060715 0.624764 -0.452832
O136  O     O_R   0.976000 0.108983 0.686645 -0.643536
O137  O     O_2   0.551299 0.560711 0.375240 -0.452832
O138  O     O_R   0.445650 0.000140 0.980530 -0.492562
O139  O     O_R   0.524008 0.608981 0.313362 -0.643537
O140  O     O_2   0.448688 0.560701 0.624748 -0.452833
O141  O     O_R   0.475970 0.608976 0.686615 -0.643538
O142  O     O_2   0.409948 0.813743 0.868076 -0.450082
O143  O     O_R   0.453154 0.775952 0.880699 -0.680397
O144  O     O_2   0.590052 0.813743 0.131924 -0.450088
O145  O     O_R   0.546846 0.775952 0.119301 -0.680397
O146  O     O_2   0.909948 0.313743 0.868077 -0.450089
O147  O     O_R   0.953154 0.275951 0.880701 -0.680396
O148  O     O_2   0.090052 0.313743 0.131926 -0.450079

loop_
_geom_bond_atom_site_label_1
_geom_bond_atom_site_label_2
_ccdc_geom_bond_type
H90   O139  S    
C172  C177  A    
C168  C175  A    
C147  H103  S    
C103  O104  D    
C144  O10   D    
C64   C77   S    
C149  O16   D    
Cu8   O71   S    
C100  O102  D    
C232  H21   S    
C7    O56   A    
C117  H73   S    
C185  C190  A    
C84   C240  S    
C198  C242  S    
C145  O12   D    
C84   C90   S    
C132  O133  D    
C206  C233  S    
C16   C144  S    
C132  C239  S    
C117  O118  D    
Cu11  O82   S    
C27   C162  S    
C29   C42   S    
C63   C76   S    
Cu1   O61   S    
C230  H20   S    
C151  O20   S    
C217  C222  A    
C172  C199  A    
H109  O25   S    
C89   C94   S    
C24   C171  S    
C139  O147  S    
C131  H87   S    
H7    O42   S    
Cu1   Cu6   S    
C9    C19   A    
C204  C208  T    
C10   C20   A    
C70   C74   A    
C112  O61   A    
C133  C240  S    
C241  H36   S    
C88   C97   S    
C196  O70   A    
C60   C93   S    
C250  O89   A    
C62   C95   S    
C173  C200  A    
C73   C75   A    
C224  C228  A    
C111  O113  D    
C125  C212  S    
C190  C199  A    
C83   C239  S    
C105  O107  D    
C11   C20   A    
C50   C53   A    
C168  C197  A    
C26   H38   S    
C114  H70   S    
C164  H9    S    
C176  O60   A    
C159  O34   D    
C160  O37   D    
Cu7   O70   S    
Cu10  O78   S    
C61   C94   S    
Cu11  O88   S    
C47   C153  S    
C21   C29   T    
C174  C201  A    
H6    O40   S    
Cu2   O46   S    
C27   C86   S    
C11   C140  S    
C99   O101  S    
C134  C241  S    
C126  C213  S    
C9    C138  S    
C43   C54   A    
C88   C102  S    
C167  C242  S    
C66   C76   A    
C115  O115  D    
C97   O97   S    
C252  O138  A    
Cu4   O92   S    
Cu10  O87   S    
C178  C182  A    
C242  H44   S    
Cu3   O24   S    
C112  O59   A    
C148  O15   D    
C154  O27   S    
C7    C53   S    
C244  O76   A    
C187  O83   A    
H5    O38   S    
C130  H86   S    
C149  H105  S    
C189  C197  A    
C62   H43   S    
C164  O44   D    
C181  C185  A    
C35   C78   T    
C49   C155  S    
C161  O39   D    
C95   C231  S    
C110  H67   S    
C136  O140  D    
C212  C234  A    
C156  O30   D    
C115  H71   S    
Cu1   O63   S    
C116  C185  S    
C3    O105  A    
C26   C161  S    
C160  O38   S    
C33   C38   A    
C3    O2    A    
C129  C216  S    
C226  C230  A    
C183  C188  A    
C102  H59   S    
Cu3   O116  S    
C45   C50   A    
C133  O136  S    
H56   O101  S    
Cu11  O79   S    
C171  O54   D    
Cu6   O68   S    
C2    C169  S    
C127  H83   S    
C48   C52   A    
C13   C85   S    
C167  O48   D    
C69   H30   S    
C5    O24   A    
C113  C157  T    
C213  C235  A    
H16   O55   S    
C96   O93   D    
C180  C184  A    
C145  H101  S    
C238  O74   A    
C15   C18   A    
C79   C83   S    
C14   C142  S    
C221  C225  A    
C17   C250  S    
C69   C77   A    
C142  O6    D    
H99   O9    S    
C24   C231  S    
C72   H33   S    
C33   H26   S    
C220  H51   S    
C218  C223  A    
C155  O29   S    
H96   O3    S    
Cu5   O66   S    
C23   C59   S    
C83   C242  S    
C153  O23   D    
C140  O3    S    
C110  O112  D    
C245  O81   A    
C33   C42   A    
C137  O143  S    
C27   C62   S    
C37   C40   A    
C117  C186  S    
C166  O47   D    
C223  C227  A    
C229  H19   S    
C65   C70   A    
C229  C234  A    
C12   C141  S    
C129  H85   S    
C67   C72   A    
Cu2   O90   S    
H55   O99   S    
Cu12  O35   S    
C129  O130  D    
H100  O11   S    
C40   C238  S    
C219  C224  A    
C231  H52   S    
C125  H81   S    
C56   C64   T    
C30   C41   A    
C89   C241  S    
C143  O9    S    
C8    C12   A    
C71   H32   S    
Cu2   Cu12  S    
C89   C103  S    
C14   C17   A    
C170  O52   D    
C72   C75   A    
C92   C198  S    
Cu3   O91   S    
Cu9   O80   S    
C8    C19   A    
C87   C239  S    
C103  H60   S    
C30   C34   A    
C34   C39   A    
C245  O77   A    
C191  C200  A    
C167  O49   S    
C214  C218  A    
C148  H104  S    
H98   O7    S    
C211  C233  A    
C51   C53   A    
C170  O53   S    
C118  O119  D    
C195  O69   A    
C109  C168  S    
C126  O126  D    
C74   C248  S    
C169  O50   D    
C150  O18   S    
C114  C174  S    
C18   C251  S    
C200  C204  S    
C248  O86   A    
C197  C202  S    
Cu4   O13   S    
C69   C73   A    
C43   C150  S    
C228  C233  A    
C96   O95   S    
C237  O71   A    
H89   O136  S    
H108  O22   S    
C25   C60   S    
C57   C94   S    
C15   C143  S    
C119  O120  D    
C176  O72   A    
Cu6   O59   S    
Cu12  O89   S    
C209  H50   S    
Cu10  O74   S    
C30   H22   S    
C87   C100  S    
Cu8   O76   S    
C48   C154  S    
C2    C209  S    
C153  O25   S    
C31   C41   A    
C249  O88   A    
C62   C166  S    
Cu2   O105  S    
C31   C36   A    
C224  H102  S    
C81   C246  S    
C36   C39   A    
C214  C236  A    
C122  H78   S    
Cu8   Cu9   S    
C32   H24   S    
C121  C191  S    
C122  C192  S    
Cu10  Cu11  S    
C79   C124  T    
H97   O5    S    
C89   C98   S    
C188  C192  A    
C162  O41   D    
C6    C52   S    
Cu1   O1    S    
H88   O134  S    
C252  O94   A    
C251  O92   A    
C135  C194  S    
C179  H91   S    
C90   C135  T    
C180  C252  S    
Cu8   O81   S    
C187  C223  S    
C173  C178  A    
C5    O127  A    
C26   C85   S    
C177  C181  A    
C151  O19   D    
C105  H62   S    
C60   C164  S    
C61   C165  S    
C13   C220  S    
C107  H64   S    
C244  O80   A    
C59   C163  S    
C91   C95   S    
C44   C54   A    
C45   C55   A    
C201  C205  S    
C91   C99   S    
C146  C195  S    
C100  H57   S    
C171  O55   S    
Cu3   Cu4   S    
C110  C172  S    
H111  O29   S    
C250  O90   A    
C109  O111  D    
C112  C221  S    
C128  H84   S    
C2    C84   S    
C39   C237  S    
C118  H74   S    
C240  H25   S    
C65   C76   A    
C23   C83   S    
C131  C218  S    
Cu9   O73   S    
C46   C80   T    
C26   C61   S    
C177  H69   S    
Cu12  O94   S    
Cu7   O69   S    
C88   C240  S    
C28   C41   S    
C182  C186  A    
C186  C191  A    
C216  C221  A    
C165  O45   D    
C32   C37   A    
C163  O43   D    
C86   C243  S    
C2    H45   S    
C67   C77   A    
C12   C17   A    
C187  O62   A    
C243  H47   S    
C192  C201  A    
C1    O1    A    
C104  O106  D    
C210  C236  S    
C165  H10   S    
C24   H48   S    
C104  H61   S    
C38   C149  S    
C158  O32   D    
C128  O129  D    
C136  C243  S    
C152  O21   D    
C35   C92   S    
C22   C28   T    
C87   C92   S    
C199  C203  S    
H4    O36   S    
C227  H17   S    
C115  C184  S    
C98   O99   S    
C120  O121  D    
C31   H23   S    
C68   C95   S    
H54   O97   S    
C119  C189  S    
Cu8   O85   S    
C193  O63   A    
Cu3   O56   S    
C194  O64   A    
C47   C51   A    
C127  O128  D    
C106  C209  S    
C78   C244  S    
C247  O84   A    
C4    O13   A    
C226  H13   S    
C9    C14   A    
C120  H76   S    
C215  C219  A    
C213  C217  A    
C11   C16   A    
C36   C147  S    
C119  H75   S    
C66   C71   A    
C49   C52   A    
C133  O135  D    
C25   C160  S    
C85   C241  S    
C230  C235  A    
C114  O114  D    
C130  O131  D    
C3    C181  S    
C208  C235  S    
C175  C180  A    
C176  C222  S    
C105  C198  S    
C20   C22   S    
H93   O143  S    
C10   C139  S    
C23   H35   S    
C7    O57   A    
C228  H18   S    
C238  O75   A    
C198  H49   S    
C19   C21   S    
C73   H34   S    
C142  O7    S    
C195  O65   A    
C134  O139  S    
C71   C74   A    
Cu9   O77   S    
C193  O67   A    
Cu5   O65   S    
C51   C158  S    
C6    O35   A    
C45   C152  S    
C137  O142  D    
C98   O98   D    
C68   C82   T    
C147  O14   D    
C38   C40   A    
C106  O108  D    
C59   C92   S    
H106  O18   S    
C37   C148  S    
Cu7   O62   S    
C225  C229  A    
C166  H11   S    
C107  C220  S    
Cu5   O72   S    
H92   O141  S    
C55   C58   S    
C154  O26   D    
C144  O11   S    
C32   C42   A    
C8    C137  S    
C4    C182  S    
C75   C249  S    
C5    C183  S    
C44   C49   A    
C211  C215  A    
C237  O73   A    
C157  C196  S    
C169  O51   S    
C1    O58   A    
C161  O40   S    
C232  C236  A    
C91   C104  S    
C6    O46   A    
C196  O66   A    
C61   H42   S    
C131  O132  D    
Cu1   O64   S    
C246  O82   A    
C82   C247  S    
C205  C210  T    
H110  O27   S    
C139  O146  D    
C138  O144  D    
C120  C190  S    
C10   C15   A    
C107  O109  D    
C34   C145  S    
C222  C226  A    
C25   H37   S    
C239  H1    S    
C13   H46   S    
C27   H39   S    
Cu6   O67   S    
C123  O124  D    
C175  H58   S    
Cu9   O86   S    
C212  C216  A    
C50   C156  S    
C106  H63   S    
H94   O145  S    
C123  C211  S    
C124  C193  S    
C25   C84   S    
C122  O123  D    
C138  O145  S    
H95   O147  S    
C184  C189  A    
C43   C48   A    
H14   O51   S    
C65   H27   S    
H12   O49   S    
C136  O141  S    
C66   H28   S    
C116  H72   S    
C134  O137  D    
C94   C220  S    
C109  H66   S    
C179  C183  A    
C54   C56   S    
C101  C146  T    
C44   C151  S    
C249  O87   A    
C121  O122  D    
C246  O78   A    
C126  H82   S    
C99   O100  D    
C118  C188  S    
Cu4   O127  S    
C203  C207  T    
C23   C159  S    
C162  O42   S    
C111  H68   S    
C130  C217  S    
Cu7   O60   S    
Cu10  O84   S    
C125  O125  D    
C178  H80   S    
C141  O5    S    
C87   C96   S    
C67   H29   S    
C1    C219  S    
C108  O110  D    
C108  H65   S    
C86   C113  S    
C13   C170  S    
C91   C243  S    
C93   C209  S    
C57   C81   T    
Cu2   O138  S    
Cu11  O75   S    
C132  O134  S    
C225  H2    S    
C85   C101  S    
C156  O31   S    
C47   C55   A    
C59   H40   S    
C58   C63   T    
C141  O4    D    
C88   C93   S    
H112  O31   S    
Cu4   O57   S    
C111  C173  S    
C60   H41   S    
C97   O96   D    
C121  H77   S    
C140  O148  D    
C127  C214  S    
H15   O53   S    
C123  H79   S    
H53   O95   S    
C163  H8    S    
C159  O36   S    
C143  O8    D    
C4    O116  A    
C150  O17   D    
Cu12  O2    S    
C46   C93   S    
C24   C86   S    
C247  O79   A    
C248  O85   A    
C116  O117  D    
C194  O68   A    
C102  O103  D    
C227  C232  A    
C70   H31   S    
H3    O33   S    
C128  C215  S    
H107  O20   S    
C16   C18   A    
C202  C206  T    
C152  O22   S    
C80   C245  S    
Cu6   O58   S    
Cu5   Cu7   S    
C174  C179  A    
C158  O33   S    
C207  C234  S    
C251  O91   A    
C155  O28   D    
C108  C231  S    
Cu5   O83   S    
