data_mof_unit_22646.cif
_audit_creation_date              2012-12-10T17:19:58-0500
_audit_creation_method            fapswitch 2.2
_symmetry_space_group_name_H-M    P1
_symmetry_Int_Tables_number       1
_space_group_crystal_system       triclinic
_cell_length_a                    9.615442
_cell_length_b                    10.824111
_cell_length_c                    15.437863
_cell_angle_alpha                 85.984607
_cell_angle_beta                  73.783218
_cell_angle_gamma                 89.305626
_cell_volume                      1538.98821099

loop_
_atom_site_label
_atom_site_type_symbol
_atom_type_description
_atom_site_fract_x
_atom_site_fract_y
_atom_site_fract_z
_atom_type_partial_charge
C1    C     C_R   0.003778 0.262346 0.495345 0.793908
C2    C     C_R   0.664903 0.446384 0.905051 0.064211
C3    C     C_R   0.757468 0.388675 0.952923 0.068691
C4    C     C_R   0.513772 0.456824 0.948089 -0.007591
C5    C     C_R   0.464772 0.438240 0.043987 0.033046
C6    C     C_R   0.560330 0.384043 0.090504 -0.205201
C7    C     C_R   0.702049 0.355955 0.045227 -0.168319
C8    C     C_R   0.408475 0.479962 0.899686 0.352844
C9    C     C_R   0.266280 0.506889 0.945585 -0.169221
C10   C     C_R   0.221638 0.504489 0.039517 0.099511
C11   C     C_R   0.320155 0.469937 0.089904 0.084645
C12   C     C_R   0.917743 0.495999 0.672274 0.865952
C13   C     C_R   0.077315 0.532049 0.083764 -0.107687
C14   C     C_R   0.030227 0.528492 0.177773 -0.190660
C15   C     C_R   0.271318 0.471401 0.184641 -0.236156
C16   C     C_R   0.274809 0.107821 0.480204 -0.181298
C17   C     C_R   0.383658 0.043842 0.507543 -0.236801
C18   C     C_R   0.351710 0.931892 0.558871 -0.135709
C19   C     C_R   0.215877 0.876524 0.573839 0.393286
C20   C     C_R   0.112381 0.932372 0.533357 0.009566
C21   C     C_R   0.132751 0.057867 0.501423 0.058809
C22   C     C_R   0.009644 0.126990 0.492850 -0.087819
C23   C     C_R   0.995557 0.736016 0.509339 0.828348
C24   C     C_R   0.882048 0.064409 0.494647 -0.195120
C25   C     C_R   0.875604 0.936633 0.504264 -0.208313
C26   C     C_R   0.991328 0.869080 0.521245 -0.092531
C27   C     C_R   0.698404 0.677905 0.392201 -0.151772
C28   C     C_R   0.654182 0.783381 0.353417 -0.269728
C29   C     C_R   0.512447 0.794196 0.354479 -0.226458
C30   C     C_R   0.414521 0.696279 0.389644 0.198776
C31   C     C_R   0.449846 0.593345 0.446529 0.202056
C32   C     C_R   0.599696 0.589652 0.447022 0.159269
C33   C     C_R   0.552236 0.414192 0.550026 0.008852
C34   C     C_R   0.082157 0.500035 0.327716 0.790242
C35   C     C_R   0.404753 0.414011 0.549895 -0.018558
C36   C     C_R   0.870953 0.472160 0.770832 -0.121927
C37   C     C_R   0.127633 0.499661 0.228633 -0.056508
C38   C     C_R   0.903891 0.366243 0.907201 0.340698
C39   C     C_R   0.959015 0.406824 0.816245 -0.197023
C40   C     C_R   0.727949 0.497395 0.816986 -0.175506
Cu1   Cu    Cu3+1 0.140660 0.499990 0.500010 0.991993
Cu2   Cu    Cu3+1 0.859340 0.500010 0.499990 0.958043
H1    H     H_    0.769047 0.312219 0.084238 0.195616
H2    H     H_    0.000707 0.556152 0.045541 0.147115
H3    H     H_    0.787472 0.114022 0.486506 0.157709
H4    H     H_    0.305654 0.193749 0.439804 0.170423
H5    H     H_    0.491042 0.084032 0.492526 0.150101
H6    H     H_    0.432441 0.888423 0.587483 0.175775
H7    H     H_    0.779912 0.890865 0.497637 0.174458
H8    H     H_    0.589462 0.343690 0.591335 0.165610
H9    H     H_    0.812277 0.670211 0.376491 0.207616
H10   H     H_    0.732296 0.853356 0.316817 0.169509
H11   H     H_    0.344248 0.453877 0.225772 0.146222
H12   H     H_    0.482346 0.873144 0.316523 0.159928
H13   H     H_    0.332211 0.343509 0.591064 0.156909
H14   H     H_    0.918538 0.550584 0.210480 0.149713
H15   H     H_    0.188415 0.525870 0.907375 0.200227
H16   H     H_    0.069210 0.384051 0.780474 0.212081
H17   H     H_    0.667388 0.558725 0.783177 0.209189
H18   H     H_    0.526767 0.356505 0.161768 0.138323
N1    N     N_R   0.648320 0.501210 0.499140 -0.202784
N2    N     N_R   0.352470 0.501290 0.499110 -0.187947
O1    O     O_R   0.118810 0.319640 0.500010 -0.603049
O2    O     O_R   0.881240 0.319660 0.500000 -0.588424
O3    O     O_R   0.055570 0.499980 0.629840 -0.531850
O4    O     O_R   0.818000 0.500010 0.629830 -0.558693
O5    O     O_R   0.118760 0.680340 0.500000 -0.529596
O6    O     O_R   0.881190 0.680360 0.499990 -0.607882
O7    O     O_R   0.182000 0.499990 0.370170 -0.563029
O8    O     O_R   0.944430 0.500020 0.370160 -0.610726
Cl1   Cl    Cl    0.170696 0.754567 0.658942 -0.589435
N3    N     N_3   0.296523 0.698848 0.350890 -0.514963
H19   H     H_    0.338018 0.687865 0.281589 0.200509
H20   H     H_    0.248157 0.786283 0.356596 0.194468
Cl2   Cl    Cl    0.019169 0.279625 0.958947 -0.626869
Cl3   Cl    Cl    0.435343 0.449578 0.785194 -0.629094

loop_
_geom_bond_atom_site_label_1
_geom_bond_atom_site_label_2
_ccdc_geom_bond_type
C14   H14   S    
C16   C21   A    
C34   C37   S    
Cu1   Cu2   S    
C19   Cl1   S    
C19   C20   A    
C8    Cl3   S    
C4    C8    A    
Cu1   O5    S    
C24   H3    S    
C15   H11   S    
C28   C29   A    
C32   N1    A    
C5    C11   A    
C3    C7    A    
C38   C39   A    
C16   C17   A    
C29   H12   S    
Cu2   O8    S    
C18   C19   A    
C23   C26   S    
C23   O5    A    
C15   C37   A    
C11   C15   A    
C3    C38   A    
C8    C9    A    
C7    H1    S    
C12   C36   S    
C9    C10   A    
C34   O8    A    
C1    C22   S    
C40   H17   S    
C21   C22   A    
Cu2   O6    S    
C31   N2    A    
Cu1   N2    S    
C1    O1    A    
C27   H9    S    
C38   Cl2   S    
C35   H13   S    
C6    H18   S    
C36   C40   A    
C24   C25   A    
N3    H20   S    
C16   H4    S    
N3    H19   S    
Cu1   O3    S    
C25   C26   A    
C39   H16   S    
C12   O4    A    
C23   O6    A    
C2    C4    A    
C29   C30   A    
C31   C32   A    
Cu2   N1    S    
C30   C31   A    
C17   C18   A    
C34   O7    A    
C22   C24   A    
Cu1   O1    S    
C1    O2    A    
Cu2   O2    S    
Cu1   O7    S    
C27   C32   A    
C36   C39   A    
C17   H5    S    
C4    C5    A    
C10   C13   A    
C18   H6    S    
C30   N3    S    
C6    C7    A    
C12   O3    A    
C2    C3    A    
C33   H8    S    
C14   C37   A    
C28   H10   S    
C5    C6    A    
C20   C26   A    
C33   C35   A    
C35   N2    A    
C9    H15   S    
C25   H7    S    
C10   C11   A    
C2    C40   A    
C20   C21   A    
C33   N1    A    
C27   C28   A    
Cu2   O4    S    
C13   C14   A    
C13   H2    S    
