data_mof_unit_42659.cif
_audit_creation_date              2012-12-10T22:11:13-0500
_audit_creation_method            fapswitch 2.2
_symmetry_space_group_name_H-M    P1
_symmetry_Int_Tables_number       1
_space_group_crystal_system       triclinic
_cell_length_a                    12.101306
_cell_length_b                    12.371142
_cell_length_c                    23.299908
_cell_angle_alpha                 91.782382
_cell_angle_beta                  90.679548
_cell_angle_gamma                 90.421039
_cell_volume                      3486.12192613

loop_
_atom_site_label
_atom_site_type_symbol
_atom_type_description
_atom_site_fract_x
_atom_site_fract_y
_atom_site_fract_z
_atom_type_partial_charge
C1    C     C_R   0.655608 0.998861 0.579839 0.949532
C2    C     C_R   0.103609 0.829276 0.805507 0.359611
C3    C     C_R   0.920667 0.187887 0.118758 0.320579
C4    C     C_R   0.093225 0.738963 0.840049 0.379308
C5    C     C_R   0.138135 0.907528 0.306725 0.022232
C6    C     C_R   0.902614 0.075661 0.670380 0.033113
C7    C     C_R   0.206259 0.904594 0.355864 0.491038
C8    C     C_R   0.810655 0.086186 0.634363 0.444301
C9    C     C_R   0.815176 0.106277 0.298431 0.286569
C10   C     C_R   0.121966 0.898806 0.669313 0.143513
C11   C     C_R   0.737083 0.094870 0.340982 -0.300815
C12   C     C_R   0.341034 0.001018 0.421789 0.908181
C13   C     C_R   0.196892 0.910288 0.626088 -0.326128
C14   C     C_3   0.991635 0.016766 0.246807 0.080109
C15   C     C_3   0.010533 0.986800 0.752810 0.083806
C16   C     C_R   0.652874 0.001059 0.420196 0.936329
C17   C     C_R   0.348863 0.998750 0.580325 0.915629
C18   C     C_R   0.089683 0.009512 0.290522 -0.023023
C19   C     C_R   0.910790 0.986664 0.709052 -0.048870
C20   C     C_R   0.251533 0.000567 0.379307 -0.210540
C21   C     C_R   0.739295 0.998753 0.625110 -0.216564
C22   C     C_R   0.889606 0.018317 0.286649 0.080641
C23   C     C_R   0.896414 0.765936 0.154527 0.103983
C24   C     C_R   0.113530 0.980322 0.713637 0.118297
C25   C     C_R   0.730477 0.002075 0.373301 -0.156783
C26   C     C_R   0.270962 0.996053 0.626523 -0.120244
C27   C     C_R   0.996835 0.112107 0.205957 -0.104068
C28   C     C_R   0.007637 0.894219 0.795660 -0.109417
C29   C     C_R   0.001072 0.269308 0.122641 -0.306733
C30   C     C_R   0.000765 0.728313 0.875253 -0.306321
C31   C     C_R   0.988589 0.920074 0.203049 0.084776
C32   C     C_R   0.013354 0.089039 0.793393 0.058742
C33   C     C_R   0.988038 0.752054 0.117939 -0.195009
C34   C     C_R   0.100798 0.182775 0.876093 0.084952
C35   C     C_R   0.012126 0.255363 0.878974 -0.169492
C36   C     C_R   0.992125 0.662464 0.075592 0.907151
C37   C     C_R   0.007870 0.338610 0.924181 0.895541
C38   C     C_R   0.999650 0.352712 0.080405 0.995761
C39   C     C_R   0.000689 0.645924 0.918603 0.939854
C40   C     C_R   0.119495 0.102534 0.326229 0.206190
C41   C     C_R   0.829364 0.900216 0.700562 0.279027
C42   C     C_R   0.205904 0.097951 0.365133 -0.263979
C43   C     C_R   0.748586 0.908302 0.658156 -0.274780
C44   C     C_R   0.877111 0.924299 0.319359 -0.378829
C45   C     C_R   0.076910 0.906982 0.164721 -0.248568
C46   C     C_R   0.199229 0.060370 0.716708 -0.245129
C47   C     C_R   0.797281 0.913448 0.360950 0.497178
C48   C     C_R   0.277432 0.069240 0.673135 0.459826
C49   C     C_R   0.096239 0.172990 0.195879 0.035883
C50   C     C_R   0.915767 0.884604 0.833782 0.091996
C51   C     C_R   0.089527 0.262940 0.161535 0.383230
C52   C     C_R   0.912327 0.800545 0.872290 0.373206
C53   C     C_R   0.896116 0.850812 0.194969 -0.129933
C54   C     C_R   0.096663 0.098475 0.836153 -0.254113
C55   C     C_3   0.715876 0.068847 0.139082 0.127235
C56   C     C_R   0.930744 0.168794 0.793908 -0.200637
C57   C     C_3   0.654074 0.176031 0.146728 -0.322661
C58   C     C_3   0.557773 0.181879 0.104033 -0.862237
C59   C     C_3   0.284355 0.816099 0.766668 0.163504
C60   C     C_3   0.386313 0.788577 0.802925 -0.322247
C61   C     C_3   0.473526 0.730862 0.766762 -0.912499
C62   C     C_3   0.781872 0.725306 0.364291 0.078415
C63   C     C_3   0.668015 0.715003 0.334655 -0.380196
C64   C     C_3   0.647657 0.599935 0.311175 -0.842594
C65   C     C_3   0.335001 0.246785 0.689368 0.087849
C66   C     C_3   0.429006 0.323005 0.673683 -0.311856
C67   C     C_R   0.078621 0.823989 0.123320 0.433230
C68   C     C_3   0.397691 0.441078 0.684535 -1.002887
C69   C     C_3   0.191041 0.401473 0.203674 0.152633
C70   C     C_3   0.284233 0.482254 0.192654 -0.325547
C71   C     C_3   0.333242 0.530456 0.248516 -0.887446
C72   C     C_3   0.806405 0.824147 0.952844 0.128879
C73   C     C_3   0.702279 0.781897 0.981383 -0.248127
C74   C     C_3   0.675318 0.847792 0.035572 -1.003905
C75   C     C_3   0.260277 0.771998 0.115259 0.132998
C76   C     C_3   0.356950 0.852293 0.116891 -0.362319
C77   C     C_3   0.451620 0.811641 0.154154 -0.930396
C78   C     C_R   0.927273 0.249653 0.837000 0.442261
C79   C     C_3   0.743031 0.294879 0.839193 0.109697
C80   C     C_3   0.665019 0.391436 0.842792 -0.318044
C81   C     C_3   0.544745 0.355078 0.847806 -0.931767
C82   C     C_3   0.908222 0.073582 0.039190 -0.002476
C83   C     C_3   0.028786 0.082868 0.020377 -0.340353
C84   C     C_3   0.060789 0.984823 0.982847 -0.860618
C85   C     C_3   0.166009 0.587816 0.795843 0.027130
C86   C     C_3   0.132977 0.476805 0.816287 -0.302647
C87   C     C_3   0.115875 0.398540 0.765047 -0.902674
C88   C     C_3   0.133284 0.776665 0.414423 0.123789
C89   C     C_R   0.905976 0.120876 0.165746 0.409113
C90   C     C_3   0.116810 0.848790 0.468411 -0.436688
C91   C     C_3   0.022151 0.806956 0.504455 -0.848026
C92   C     C_3   0.743659 0.257537 0.641005 0.118614
C93   C     C_3   0.750627 0.368722 0.614248 -0.302715
C94   C     C_3   0.730291 0.459556 0.658665 -0.903752
H1    H     H_    0.234417 0.171701 0.387043 0.218307
H2    H     H_    0.200075 0.848492 0.592322 0.209834
H3    H     H_    0.657587 0.004404 0.151527 0.153814
H4    H     H_    0.731520 0.048445 0.093876 0.168208
H5    H     H_    0.619896 0.181866 0.190706 0.245939
H6    H     H_    0.710046 0.245845 0.140221 0.263054
H7    H     H_    0.588719 0.178677 0.059313 0.270193
H8    H     H_    0.512896 0.259012 0.111233 0.279348
H9    H     H_    0.499158 0.113610 0.109836 0.270227
H10   H     H_    0.314443 0.869239 0.732713 0.163282
H11   H     H_    0.248108 0.745392 0.743177 0.131169
H12   H     H_    0.689695 0.842700 0.650894 0.204183
H13   H     H_    0.422916 0.864615 0.821715 0.246899
H14   H     H_    0.363568 0.736831 0.838949 0.265313
H15   H     H_    0.439142 0.654638 0.747345 0.255665
H16   H     H_    0.545490 0.711016 0.794402 0.301250
H17   H     H_    0.502238 0.783592 0.732100 0.278426
H18   H     H_    0.789256 0.659687 0.395566 0.183623
H19   H     H_    0.848865 0.710655 0.332953 0.153303
H20   H     H_    0.602211 0.736108 0.365802 0.253653
H21   H     H_    0.663214 0.771583 0.298583 0.221088
H22   H     H_    0.715435 0.574307 0.282208 0.299169
H23   H     H_    0.932681 0.858433 0.313279 0.180402
H24   H     H_    0.568609 0.596389 0.286615 0.268644
H25   H     H_    0.642524 0.542958 0.346979 0.261753
H26   H     H_    0.318119 0.259361 0.735882 0.156569
H27   H     H_    0.260985 0.267706 0.663241 0.178880
H28   H     H_    0.503310 0.304888 0.700016 0.211811
H29   H     H_    0.449346 0.310056 0.627581 0.234182
H30   H     H_    0.321076 0.460569 0.660384 0.280058
H31   H     H_    0.464807 0.494854 0.669982 0.274898
H32   H     H_    0.385049 0.456944 0.731149 0.265365
H33   H     H_    0.211895 0.356196 0.242693 0.200464
H34   H     H_    0.204068 0.120766 0.750462 0.161900
H35   H     H_    0.113066 0.447052 0.211169 0.147055
H36   H     H_    0.351640 0.441521 0.168425 0.250680
H37   H     H_    0.251429 0.547862 0.165979 0.203163
H38   H     H_    0.267105 0.556775 0.278207 0.300880
H39   H     H_    0.386113 0.601226 0.238994 0.265952
H40   H     H_    0.384479 0.469214 0.270081 0.270692
H41   H     H_    0.800541 0.912920 0.949669 0.147835
H42   H     H_    0.879382 0.804890 0.980077 0.108821
H43   H     H_    0.630954 0.786074 0.951008 0.235465
H44   H     H_    0.714153 0.695912 0.992317 0.237752
H45   H     H_    0.821847 0.861425 0.219565 0.185635
H46   H     H_    0.651422 0.930961 0.024161 0.260327
H47   H     H_    0.747636 0.851290 0.065327 0.276462
H48   H     H_    0.604851 0.809567 0.057404 0.290347
H49   H     H_    0.286213 0.698378 0.090595 0.162633
H50   H     H_    0.243218 0.745868 0.159662 0.158532
H51   H     H_    0.386743 0.863908 0.072544 0.231797
H52   H     H_    0.329616 0.931720 0.134629 0.254246
H53   H     H_    0.424484 0.804222 0.199262 0.283983
H54   H     H_    0.521665 0.869723 0.153662 0.268614
H55   H     H_    0.480284 0.731639 0.137548 0.275977
H56   H     H_    0.163313 0.042291 0.837640 0.241304
H57   H     H_    0.735295 0.248146 0.879141 0.170467
H58   H     H_    0.717230 0.243214 0.801434 0.139670
H59   H     H_    0.687883 0.443902 0.880761 0.240049
H60   H     H_    0.673647 0.439718 0.803594 0.238935
H61   H     H_    0.519715 0.303496 0.809927 0.270211
H62   H     H_    0.490400 0.427024 0.849782 0.269103
H63   H     H_    0.533430 0.308844 0.887456 0.285282
H64   H     H_    0.856074 0.058574 0.000381 0.178715
H65   H     H_    0.899530 0.001811 0.066526 0.141156
H66   H     H_    0.039599 0.157795 0.996211 0.241413
H67   H     H_    0.146772 0.960097 0.167278 0.190900
H68   H     H_    0.084431 0.086852 0.058676 0.230247
H69   H     H_    0.042744 0.908799 0.005053 0.261554
H70   H     H_    0.150517 0.987131 0.973885 0.302934
H71   H     H_    0.014318 0.984656 0.941494 0.245444
H72   H     H_    0.248135 0.579088 0.775620 0.158938
H73   H     H_    0.106528 0.611993 0.761702 0.173157
H74   H     H_    0.198953 0.446095 0.844955 0.245180
H75   H     H_    0.054582 0.482917 0.840218 0.229924
H76   H     H_    0.033910 0.412489 0.744741 0.305137
H77   H     H_    0.120243 0.314107 0.779064 0.271597
H78   H     H_    0.864745 0.167166 0.762831 0.152417
H79   H     H_    0.180584 0.409506 0.732503 0.258921
H80   H     H_    0.146711 0.692344 0.427849 0.185567
H81   H     H_    0.055856 0.775304 0.388218 0.155050
H82   H     H_    0.194215 0.850805 0.494257 0.248140
H83   H     H_    0.096741 0.932523 0.456217 0.225031
H84   H     H_    0.944677 0.801399 0.478573 0.297921
H85   H     H_    0.008386 0.863636 0.541508 0.287979
H86   H     H_    0.042175 0.725844 0.520654 0.277694
H87   H     H_    0.783363 0.263067 0.684427 0.144403
H88   H     H_    0.655384 0.235184 0.646413 0.131774
H89   H     H_    0.681303 0.161195 0.350072 0.208348
H90   H     H_    0.834098 0.380705 0.595929 0.269031
H91   H     H_    0.688584 0.372988 0.578838 0.206624
H92   H     H_    0.651555 0.445828 0.681224 0.255061
H93   H     H_    0.726233 0.538186 0.637045 0.286772
H94   H     H_    0.798814 0.463445 0.690870 0.296143
I1    I     I_    0.266729 0.129929 0.214559 -0.420500
I2    I     I_    0.801763 0.743549 0.738142 -0.372096
I3    I     I_    0.768041 0.983031 0.834060 -0.448623
I4    I     I_    0.116972 0.745914 0.269034 -0.493921
I5    I     I_    0.018932 0.205947 0.659515 -0.451392
I6    I     I_    0.800022 0.266209 0.264729 -0.400377
I7    I     I_    0.045394 0.744911 0.661522 -0.474239
I8    I     I_    0.756688 0.660151 0.157223 -0.431516
I9    I     I_    0.249898 0.192611 0.926408 -0.396192
I10   I     I_    0.056732 0.262089 0.329865 -0.386817
O1    O     O_R   0.621380 0.090460 0.561410 -0.590351
O2    O     O_R   0.912410 0.372520 0.941210 -0.594825
O3    O     O_R   0.905660 0.383870 0.059980 -0.583609
O4    O     O_R   0.094340 0.616130 0.940020 -0.580344
O5    O     O_R   0.092570 0.390420 0.063230 -0.581979
O6    O     O_R   0.907430 0.609580 0.936770 -0.601209
O7    O     O_R   0.900680 0.620930 0.055550 -0.614325
O8    O     O_R   0.099320 0.379070 0.944450 -0.615658
O9    O     O_3   0.810314 0.058663 0.175257 -0.665386
O10   O     O_3   0.208331 0.876169 0.800227 -0.661632
O11   O     O_3   0.794874 0.824424 0.395980 -0.644235
O12   O     O_R   0.378620 0.909540 0.438590 -0.583024
O13   O     O_3   0.367992 0.139013 0.678154 -0.645655
O14   O     O_3   0.180691 0.329927 0.155538 -0.593375
O15   O     O_3   0.812649 0.775241 0.897497 -0.570843
O16   O     O_3   0.167879 0.816582 0.086589 -0.632503
O17   O     O_3   0.852270 0.333631 0.833039 -0.637149
O18   O     O_3   0.867503 0.169511 0.066405 -0.626677
O19   O     O_3   0.177068 0.663601 0.842560 -0.620566
O20   O     O_3   0.227059 0.807751 0.382345 -0.601092
O21   O     O_3   0.795702 0.180187 0.604455 -0.586612
O22   O     O_R   0.617150 0.909540 0.438590 -0.591704
O23   O     O_R   0.382850 0.090460 0.561410 -0.598809
O24   O     O_R   0.619720 0.093230 0.440890 -0.626444
O25   O     O_R   0.380280 0.906770 0.559110 -0.657109
O26   O     O_R   0.618800 0.906770 0.559110 -0.629785
O27   O     O_R   0.381200 0.093230 0.440890 -0.635679
O28   O     O_R   0.087590 0.627480 0.058790 -0.614534
Zn1   Zn    Zn3+2 0.501730 0.123520 0.501540 0.985479
Zn2   Zn    Zn3+2 0.498270 0.876480 0.498460 0.989261
Zn3   Zn    Zn3+2 0.125690 0.504390 0.002180 1.009517
Zn4   Zn    Zn3+2 0.874310 0.495610 0.997820 0.999832

loop_
_geom_bond_atom_site_label_1
_geom_bond_atom_site_label_2
_ccdc_geom_bond_type
C59   O10   S    
C66   C68   S    
C1    C21   S    
C93   C94   S    
C64   H22   S    
C86   H75   S    
C41   C43   A    
C37   O8    A    
C14   C18   S    
C16   O24   A    
C59   H10   S    
C14   C31   S    
C61   H15   S    
C68   H30   S    
C71   H40   S    
C57   C58   S    
C64   H24   S    
C80   H59   S    
C54   H56   S    
C85   C86   S    
C15   C19   S    
C6    C19   A    
C19   C41   A    
C59   H11   S    
C64   H25   S    
C73   H43   S    
C41   I2    S    
C1    O26   A    
C85   H72   S    
C44   H23   S    
C46   H34   S    
C35   C37   S    
C94   H94   S    
C92   H87   S    
C82   H64   S    
C93   H90   S    
C9    C22   A    
C72   H42   S    
C49   I1    S    
C73   H44   S    
C11   C25   A    
C57   H5    S    
C91   H84   S    
C90   H82   S    
C70   H36   S    
C33   C36   S    
C56   C78   A    
O22   Zn2   S    
C34   C35   A    
C73   C74   S    
C37   O2    A    
C88   H81   S    
C3    C29   A    
C18   C40   A    
C70   H37   S    
C85   O19   S    
C84   H71   S    
C71   H38   S    
C21   C43   A    
C63   H20   S    
C28   C50   A    
C51   O14   S    
C65   H26   S    
C22   C44   A    
C83   H66   S    
C49   C51   A    
C38   O3    A    
C91   H85   S    
C23   I8    S    
C45   C67   A    
C50   C52   A    
C66   H28   S    
C16   O22   A    
C70   C71   S    
C58   H8    S    
C65   H27   S    
C14   C27   S    
C77   H53   S    
C60   H14   S    
C44   C47   A    
C26   C48   A    
C63   H21   S    
C40   C42   A    
C72   O15   S    
C74   H48   S    
C90   H83   S    
C76   H52   S    
C59   C60   S    
C53   H45   S    
C39   O6    A    
C56   H78   S    
O8    Zn3   S    
C7    O20   S    
C55   H3    S    
O7    Zn4   S    
C1    O1    A    
O2    Zn4   S    
C61   H16   S    
O26   Zn2   S    
C45   H67   S    
C32   C54   A    
C23   C53   A    
C88   H80   S    
C5    C7    A    
C87   H79   S    
C46   C48   A    
C81   H63   S    
C13   H2    S    
C42   H1    S    
C85   H73   S    
C15   C32   S    
C11   H89   S    
C76   C77   S    
C62   H19   S    
C77   H55   S    
C58   H7    S    
O25   Zn2   S    
C72   C73   S    
C72   H41   S    
C6    C8    A    
C5    C18   A    
C23   C33   A    
C3    O18   S    
C87   H76   S    
C74   H46   S    
C82   C83   S    
C31   C53   A    
C63   C64   S    
C60   C61   S    
C43   H12   S    
C29   C38   S    
C92   O21   S    
C2    C4    A    
C75   C76   S    
C62   C63   S    
C17   O25   A    
C9    C11   A    
C83   C84   S    
C48   O13   S    
C87   H77   S    
C91   H86   S    
C12   C20   S    
C8    C21   A    
C86   H74   S    
C69   O14   S    
C94   H93   S    
C60   H13   S    
C50   I3    S    
C81   H62   S    
C77   H54   S    
C84   H69   S    
C75   H49   S    
O4    Zn3   S    
C82   O18   S    
O3    Zn4   S    
C92   C93   S    
C74   H47   S    
C88   C90   S    
C76   H51   S    
C34   C54   A    
C38   O5    A    
C47   O11   S    
C13   C26   A    
C2    O10   S    
C17   C26   S    
O5    Zn3   S    
C61   H17   S    
C68   H32   S    
C33   C67   A    
C79   H57   S    
C86   C87   S    
C29   C51   A    
C16   C25   S    
C30   C52   A    
C25   C47   A    
C15   C24   S    
C36   O28   A    
C75   O16   S    
C9    I6    S    
O12   Zn2   S    
C83   H68   S    
C94   H92   S    
C5    I4    S    
C80   C81   S    
C10   C13   A    
C84   H70   S    
C78   O17   S    
C71   H39   S    
C20   C42   A    
C4    O19   S    
C80   H60   S    
O28   Zn3   S    
C55   O9    S    
O23   Zn1   S    
C35   C78   A    
C81   H61   S    
C3    C89   A    
C10   C24   A    
C14   C22   S    
C55   C57   S    
C24   C46   A    
C8    O21   S    
C92   H88   S    
C10   I7    S    
C82   H65   S    
C57   H6    S    
C34   I9    S    
C12   O27   A    
C89   O9    S    
C40   I10   S    
O24   Zn1   S    
C55   H4    S    
C79   O17   S    
C52   O15   S    
O27   Zn1   S    
C62   O11   S    
C88   O20   S    
C30   C39   S    
C27   C89   A    
C36   O7    A    
C65   C66   S    
O6    Zn4   S    
C69   C70   S    
C65   O13   S    
C17   O23   A    
C75   H50   S    
C12   O12   A    
C79   C80   S    
C15   C28   S    
C27   C49   A    
C62   H18   S    
C69   H33   S    
C69   H35   S    
C7    C20   A    
C31   C45   A    
C39   O4    A    
C66   H29   S    
C67   O16   S    
C2    C28   A    
C58   H9    S    
O1    Zn1   S    
C68   H31   S    
C32   C56   A    
C6    I5    S    
C4    C30   A    
C90   C91   S    
C79   H58   S    
C93   H91   S    
