data_mof_unit_5605.cif
_audit_creation_date              2012-12-10T16:49:29-0500
_audit_creation_method            fapswitch 2.2
_symmetry_space_group_name_H-M    P1
_symmetry_Int_Tables_number       1
_space_group_crystal_system       triclinic
_cell_length_a                    19.257888
_cell_length_b                    8.755781
_cell_length_c                    7.528164
_cell_angle_alpha                 103.168641
_cell_angle_beta                  94.236016
_cell_angle_gamma                 93.91209
_cell_volume                      1227.88889339

loop_
_atom_site_label
_atom_site_type_symbol
_atom_type_description
_atom_site_fract_x
_atom_site_fract_y
_atom_site_fract_z
_atom_type_partial_charge
C1    C     C_R   0.496105 0.200511 0.454516 0.857859
C2    C     C_R   0.503895 0.799489 0.545484 0.857859
C3    C     C_2   0.484023 0.033731 0.436466 -0.028245
C4    C     C_2   0.515977 0.966269 0.563534 -0.028245
C5    C     C_R   0.368090 0.505041 0.503026 0.783855
C6    C     C_R   0.631910 0.494959 0.496974 0.783854
C7    C     C_R   0.264722 0.624324 0.650334 0.166076
C8    C     C_R   0.735278 0.375676 0.349666 0.166077
C9    C     C_R   0.191366 0.615876 0.661398 0.180726
C10   C     C_R   0.808634 0.384123 0.338602 0.180726
C11   C     C_R   0.147270 0.509839 0.520919 0.014231
C12   C     C_R   0.852730 0.490161 0.479081 0.014231
C13   C     C_R   0.176370 0.407193 0.380856 -0.198814
C14   C     C_R   0.823630 0.592807 0.619144 -0.198814
C15   C     C_R   0.248138 0.408549 0.376632 -0.245898
C16   C     C_R   0.751862 0.591451 0.623368 -0.245898
C17   C     C_R   0.292680 0.514662 0.510362 -0.067400
C18   C     C_R   0.707319 0.485338 0.489638 -0.067400
C19   C     C_R   0.929384 0.495112 0.486554 0.413901
C20   C     C_R   0.070616 0.504888 0.513446 0.413901
Cu1   Cu    Cu3+1 0.507710 0.517380 0.684380 0.926337
Cu2   Cu    Cu3+1 0.492290 0.482620 0.315620 0.926337
H1    H     H_    0.143238 0.325406 0.273111 0.167697
H2    H     H_    0.856762 0.674594 0.726889 0.167697
H3    H     H_    0.269087 0.325270 0.268518 0.153137
H4    H     H_    0.730913 0.674730 0.731482 0.153137
N1    N     N_R   0.031194 0.365133 0.459427 -0.235364
N2    N     N_R   0.968806 0.634867 0.540574 -0.235364
N3    N     N_R   0.961823 0.360310 0.447367 -0.227592
N4    N     N_R   0.038176 0.639690 0.552633 -0.227592
N5    N     N_2   0.480680 0.456420 0.038530 -0.055586
N6    N     N_2   0.519320 0.543580 0.961470 -0.055586
O1    O     O_R   0.505010 0.286130 0.619770 -0.593035
O2    O     O_R   0.494990 0.713870 0.380230 -0.593035
O3    O     O_R   0.491990 0.256780 0.308370 -0.582686
O4    O     O_R   0.508010 0.743220 0.691630 -0.582686
O5    O     O_R   0.406650 0.514660 0.655750 -0.592845
O6    O     O_R   0.593350 0.485340 0.344250 -0.592845
O7    O     O_R   0.393640 0.485310 0.344340 -0.590175
O8    O     O_R   0.606360 0.514690 0.655660 -0.590175
C21   C     C_3   0.311640 0.755636 0.779492 -0.863154
H5    H     H_    0.321999 0.725955 0.914126 0.236602
H6    H     H_    0.362012 0.779544 0.724442 0.234930
H7    H     H_    0.286610 0.868111 0.799016 0.230053
C22   C     C_3   0.688360 0.244364 0.220508 -0.863154
H8    H     H_    0.678001 0.274044 0.085874 0.236603
H9    H     H_    0.713390 0.131889 0.200985 0.230053
H10   H     H_    0.637988 0.220455 0.275558 0.234929
C23   C     C_3   0.160337 0.715249 0.823565 -0.836975
H11   H     H_    0.116945 0.646007 0.866839 0.237614
H12   H     H_    0.198602 0.753507 0.945882 0.234040
H13   H     H_    0.140621 0.821052 0.786290 0.248911
C24   C     C_3   0.839663 0.284750 0.176435 -0.836975
H14   H     H_    0.883055 0.353992 0.133161 0.237614
H15   H     H_    0.859379 0.178948 0.213711 0.248911
H16   H     H_    0.801398 0.246492 0.054118 0.234040
C25   C     C_3   0.428319 0.947413 0.286419 -0.849331
H17   H     H_    0.398119 0.030574 0.227181 0.220649
H18   H     H_    0.452848 0.872706 0.172491 0.266990
H19   H     H_    0.389865 0.874793 0.342441 0.230063
C26   C     C_3   0.571681 0.052587 0.713581 -0.849331
H20   H     H_    0.601881 0.969426 0.772819 0.220649
H21   H     H_    0.610135 0.125207 0.657559 0.230063
H22   H     H_    0.547152 0.127294 0.827509 0.266990
C27   C     C_3   0.413187 0.386736 0.950697 -0.352457
H23   H     H_    0.391229 0.307156 0.031734 0.152150
H24   H     H_    0.376626 0.479169 0.949900 0.176608
H25   H     H_    0.416587 0.310037 0.814495 0.187128
C28   C     C_3   0.586813 0.613263 0.049303 -0.352456
H26   H     H_    0.623374 0.520830 0.050100 0.176607
H27   H     H_    0.608771 0.692844 0.968266 0.152150
H28   H     H_    0.583413 0.689963 0.185505 0.187128

loop_
_geom_bond_atom_site_label_1
_geom_bond_atom_site_label_2
_ccdc_geom_bond_type
C28   H28   S    
C2    C4    S    
C6    O6    A    
C9    C23   S    
C24   H14   S    
N6    C28   S    
Cu2   O3    S    
C20   N1    A    
C5    O5    A    
N1    N3    A    
C9    C11   A    
C21   H5    S    
C24   H15   S    
N5    N6    D    
C13   C15   A    
C23   H13   S    
C2    O2    A    
C5    O7    A    
C1    O1    A    
Cu1   O4    S    
C20   N4    A    
Cu1   Cu2   S    
C26   H22   S    
C19   N2    A    
C21   H6    S    
C1    O3    A    
C25   H17   S    
C28   H26   S    
Cu1   O8    S    
C10   C12   A    
C26   H21   S    
C6    C18   S    
Cu2   O7    S    
C3    C25   S    
C12   C19   S    
N2    N4    A    
Cu1   N6    S    
C12   C14   A    
C27   H23   S    
C5    C17   S    
C6    O8    A    
C22   H9    S    
C16   H4    S    
C26   H20   S    
Cu2   O2    S    
C21   H7    S    
C14   C16   A    
C11   C20   S    
C15   H3    S    
C25   H18   S    
Cu1   O1    S    
Cu2   N5    S    
C14   H2    S    
C3    C4    D    
C19   N3    A    
C7    C9    A    
C28   H27   S    
C11   C13   A    
C27   H25   S    
Cu1   O5    S    
C13   H1    S    
C8    C10   A    
C23   H11   S    
C24   H16   S    
C2    O4    A    
C1    C3    S    
C15   C17   A    
C10   C24   S    
N5    C27   S    
C8    C22   S    
C25   H19   S    
C22   H10   S    
C27   H24   S    
C22   H8    S    
C4    C26   S    
C16   C18   A    
C8    C18   A    
C7    C21   S    
C23   H12   S    
C7    C17   A    
Cu2   O6    S    
