data_mof_unit_26647.cif
_audit_creation_date              2012-12-10T20:57:46-0500
_audit_creation_method            fapswitch 2.2
_symmetry_space_group_name_H-M    P1
_symmetry_Int_Tables_number       1
_space_group_crystal_system       triclinic
_cell_length_a                    18.204072
_cell_length_b                    18.276444
_cell_length_c                    18.398657
_cell_angle_alpha                 120.028229
_cell_angle_beta                  89.996135
_cell_angle_gamma                 119.928276
_cell_volume                      4331.42614156

loop_
_atom_site_label
_atom_site_type_symbol
_atom_type_description
_atom_site_fract_x
_atom_site_fract_y
_atom_site_fract_z
_atom_type_partial_charge
C1    C     C_R   0.358305 0.220051 0.361042 0.781007
C2    C     C_3   0.798532 0.942053 0.690625 0.700685
C3    C     C_3   0.699741 0.897355 0.695816 -0.073550
C4    C     C_R   0.641064 0.780866 0.638591 0.870672
C5    C     C_3   0.800484 0.102403 0.800988 -0.062532
C6    C     C_3   0.759111 0.056922 0.854966 0.223911
C7    C     C_3   0.859895 0.063643 0.759008 0.684916
C8    C     C_3   0.680476 0.390007 0.243174 0.211881
C9    C     C_3   0.740151 0.389979 0.182350 0.245631
C10   C     C_3   0.679958 0.530624 0.241922 0.302860
C11   C     C_3   0.798667 0.578496 0.359191 -0.555935
C12   C     C_3   0.344691 0.610299 0.325080 -0.350205
C13   C     C_3   0.697441 0.498664 0.301149 0.029324
C14   C     C_3   0.799412 0.498923 0.199827 0.008652
C15   C     C_3   0.739760 0.529889 0.181872 -0.508122
C16   C     C_R   0.360482 0.501809 0.641891 0.791967
C17   C     C_3   0.858232 0.579134 0.300079 -0.481377
C18   C     C_R   0.320001 0.147793 0.583485 -0.128334
C19   C     C_R   0.315733 0.102389 0.494428 -0.129776
C20   C     C_R   0.262147 0.098640 0.436007 0.149744
C21   C     C_R   0.212047 0.139475 0.467195 -0.116379
C22   C     C_R   0.216082 0.184232 0.556144 -0.124617
C23   C     C_3   0.299570 0.499956 0.301930 0.157170
C24   C     C_R   0.270184 0.188631 0.614315 -0.115428
C25   C     C_R   0.206924 0.943805 0.286386 -0.254515
C26   C     C_R   0.197932 0.892232 0.196120 -0.051650
C27   C     C_R   0.242229 0.949106 0.160504 -0.013662
C28   C     C_R   0.640616 0.499987 0.359393 0.833177
C29   C     C_R   0.292420 0.056055 0.215924 -0.248079
C30   C     C_R   0.301122 0.107616 0.306121 -0.053551
C31   C     C_R   0.257790 0.050691 0.341912 -0.012181
C32   C     C_R   0.291906 0.860614 0.039400 -0.113034
C33   C     C_R   0.294697 0.820579 0.952613 -0.119459
C34   C     C_3   0.197791 0.499694 0.199984 0.143225
C35   C     C_R   0.246724 0.820610 0.893273 -0.118026
C36   C     C_R   0.195888 0.860685 0.920613 -0.127107
C37   C     C_R   0.193576 0.901656 0.007584 -0.127506
C38   C     C_R   0.241353 0.901488 0.067356 0.147528
C39   C     C_R   0.924061 0.715924 0.633502 0.462616
C40   C     C_R   0.641993 0.500421 0.640240 0.797122
C41   C     C_R   0.866041 0.636455 0.642412 -0.109572
C42   C     C_R   0.845037 0.659079 0.721035 -0.024613
C43   C     C_R   0.883934 0.762437 0.791770 -0.191317
C44   C     C_R   0.942862 0.842913 0.784469 0.475514
C45   C     C_3   0.146063 0.461467 0.254062 -0.433919
C46   C     C_R   0.962367 0.819386 0.704761 -0.295951
C47   C     C_R   0.841413 0.573762 0.789574 -0.253557
C48   C     C_R   0.798981 0.498760 0.806608 -0.053774
C49   C     C_R   0.704787 0.424422 0.768773 -0.015339
C50   C     C_R   0.656046 0.426354 0.713259 -0.262460
C51   C     C_R   0.698621 0.501436 0.696018 -0.046839
C52   C     C_R   0.357965 0.500092 0.359368 0.774594
C53   C     C_R   0.792835 0.576276 0.734526 0.037003
C54   C     C_R   0.625552 0.241443 0.719845 -0.155324
C55   C     C_R   0.577646 0.164866 0.734611 -0.157990
C56   C     C_3   0.284335 0.610332 0.265963 -0.397099
C57   C     C_R   0.558286 0.189641 0.813889 -0.079860
C58   C     C_R   0.585833 0.290829 0.878103 -0.103745
C59   C     C_R   0.633066 0.367462 0.863265 -0.104376
C60   C     C_R   0.654155 0.343364 0.784442 0.150684
C61   C     C_R   0.415371 0.813427 0.736645 -0.254517
C62   C     C_R   0.388426 0.740228 0.755304 -0.168134
C63   C     C_R   0.302561 0.646616 0.707053 0.139434
C64   C     C_3   0.284851 0.426804 0.201971 -0.488372
C65   C     C_R   0.243276 0.627861 0.641209 -0.253968
C66   C     C_R   0.270231 0.701213 0.622648 -0.077668
C67   C     C_3   0.658776 0.940477 0.667277 0.271279
C68   C     C_R   0.356322 0.794084 0.669662 0.522066
C69   C     C_R   0.217936 0.562439 0.776658 -0.282066
C70   C     C_R   0.196256 0.499527 0.806475 -0.035471
C71   C     C_R   0.231525 0.440148 0.784097 0.062120
C72   C     C_R   0.285534 0.443740 0.731109 -0.250667
C73   C     C_R   0.306565 0.505886 0.700741 -0.058415
C74   C     C_R   0.274858 0.569084 0.726602 0.017485
C75   C     C_R   0.273635 0.415209 0.895619 0.495432
C76   C     C_3   0.226008 0.427363 0.142638 -0.400069
C77   C     C_R   0.262285 0.348307 0.918772 -0.257022
C78   C     C_3   0.723458 0.060343 0.723155 -0.556452
C79   C     C_R   0.194387 0.242532 0.862157 -0.142480
C80   C     C_R   0.137427 0.202282 0.781966 -0.132919
C81   C     C_R   0.147488 0.267718 0.758466 -0.218008
C82   C     C_R   0.215735 0.374055 0.814620 0.102002
C83   C     C_R   0.857127 0.499598 0.142726 0.835800
C84   C     C_R   0.138723 0.499697 0.861750 0.810549
C85   C     C_R   0.856962 0.219059 0.861527 0.915983
C86   C     C_R   0.139840 0.779896 0.141156 0.786849
C87   C     C_R   0.855754 0.499660 0.862094 0.792545
C88   C     C_3   0.205718 0.461481 0.314450 0.298724
C89   C     C_3   0.702160 0.936858 0.793572 -0.702057
C90   C     C_R   0.139919 0.500007 0.142720 0.769432
H1    H     H_    0.251761 0.346375 0.182380 0.190535
H2    H     H_    0.786465 0.374890 0.201491 0.096491
H3    H     H_    0.264343 0.454532 0.104305 0.186527
H4    H     H_    0.698667 0.477953 0.110311 0.183382
H5    H     H_    0.903380 0.561010 0.316017 0.208086
H6    H     H_    0.901712 0.658192 0.315690 0.218757
H7    H     H_    0.700164 0.611520 0.287293 0.125743
H8    H     H_    0.783520 0.608634 0.196897 0.154773
H9    H     H_    0.273708 0.223766 0.683283 0.136926
H10   H     H_    0.361887 0.151295 0.628573 0.138264
H11   H     H_    0.170190 0.136705 0.422714 0.108455
H12   H     H_    0.266526 0.664113 0.309138 0.198465
H13   H     H_    0.177450 0.215742 0.579875 0.122661
H14   H     H_    0.172746 0.900781 0.314057 0.174629
H15   H     H_    0.326921 0.099209 0.188437 0.183331
H16   H     H_    0.329736 0.860847 0.085045 0.113419
H17   H     H_    0.248999 0.789736 0.826162 0.136802
H18   H     H_    0.158771 0.860646 0.874610 0.137150
H19   H     H_    0.154792 0.933587 0.028449 0.132972
H20   H     H_    0.172932 0.380775 0.294545 0.059473
H21   H     H_    0.869983 0.780575 0.853579 0.162621
H22   H     H_    0.583869 0.368661 0.683931 0.178612
H23   H     H_    0.124320 0.511735 0.295138 0.202286
H24   H     H_    0.640655 0.221578 0.658434 0.126910
H25   H     H_    0.555756 0.086373 0.684673 0.128802
H26   H     H_    0.521718 0.130385 0.825423 0.131180
H27   H     H_    0.570527 0.309868 0.939317 0.118765
H28   H     H_    0.084030 0.381795 0.207797 0.127554
H29   H     H_    0.482032 0.884923 0.774269 0.118414
H30   H     H_    0.434584 0.756017 0.806862 0.140756
H31   H     H_    0.312240 0.398139 0.714483 0.171346
H32   H     H_    0.306883 0.377674 0.979826 0.127717
H33   H     H_    0.186524 0.191524 0.880041 0.145664
H34   H     H_    0.593906 0.918953 0.680935 0.110401
H35   H     H_    0.411126 0.637791 0.314845 0.154143
H36   H     H_    0.322280 0.639702 0.228550 0.159278
H37   H     H_    0.157256 0.486123 0.411641 0.319933
H38   H     H_    0.602084 0.913758 0.559457 0.331087
H39   H     H_    0.652765 0.059862 0.853653 0.342618
H40   H     H_    0.835083 0.909966 0.765612 0.349777
H41   H     H_    0.350670 0.451640 0.190455 0.213485
H42   H     H_    0.771499 0.842879 0.563489 0.362882
H43   H     H_    0.941673 0.088818 0.691341 0.345535
H44   H     H_    0.970021 0.081811 0.804070 0.346064
H45   H     H_    0.752539 0.085530 0.680200 0.250060
H46   H     H_    0.729004 0.908539 0.819432 0.188951
H47   H     H_    0.579834 0.245099 0.175004 0.350724
H48   H     H_    0.645944 0.318878 0.072674 0.355952
H49   H     H_    0.572003 0.402281 0.140621 0.374290
H50   H     H_    0.814560 0.657539 0.403770 0.223570
H51   H     H_    0.814598 0.558643 0.402292 0.251387
H52   H     H_    0.354543 0.070892 0.471097 0.125306
H53   H     H_    0.165553 0.347071 0.093987 0.202113
H54   H     H_    0.334270 0.789828 0.931460 0.137699
H55   H     H_    0.007835 0.881325 0.698584 0.125693
H56   H     H_    0.684511 0.093364 0.748967 0.175627
H57   H     H_    0.984900 0.754582 0.559387 0.334400
H58   H     H_    0.838345 0.557006 0.588535 0.143095
H59   H     H_    0.021324 0.990933 0.841071 0.331200
H60   H     H_    0.913632 0.631301 0.818954 0.179428
H61   H     H_    0.654142 0.445631 0.913387 0.115612
H62   H     H_    0.443213 0.924763 0.687407 0.307203
H63   H     H_    0.176616 0.556240 0.603900 0.147412
H64   H     H_    0.224100 0.685719 0.571327 0.171863
H65   H     H_    0.191814 0.608637 0.793741 0.178165
H66   H     H_    0.374797 0.535839 0.003914 0.321801
H67   H     H_    0.632397 0.903817 0.795826 0.221140
H68   H     H_    0.357182 0.665671 0.396377 0.228010
H69   H     H_    0.086344 0.119977 0.737289 0.126589
H70   H     H_    0.103336 0.235316 0.695654 0.146487
H71   H     H_    0.814817 0.084162 0.907940 0.195996
H72   H     H_    0.701415 0.376262 0.289627 0.044090
O1    O     O_3   0.500000 0.500000 0.500000 -0.501261
O2    O     O_R   0.113800 0.731630 0.056520 -0.635030
O3    O     O_R   0.819390 0.439310 0.886160 -0.644381
O4    O     O_R   0.383400 0.268380 0.323710 -0.641756
O5    O     O_R   0.115110 0.560720 0.179280 -0.648883
O6    O     O_R   0.941380 0.560750 0.885620 -0.650129
O7    O     O_R   0.115110 0.439270 0.057830 -0.637677
O8    O     O_R   0.942690 0.268390 0.886930 -0.580990
O9    O     O_R   0.114340 0.731630 0.178520 -0.649423
O10   O     O_R   0.820160 0.439310 0.057830 -0.602187
O11   O     O_R   0.113800 0.560730 0.885620 -0.646259
O12   O     O_R   0.383400 0.560740 0.616060 -0.629830
O13   O     O_R   0.555060 0.731630 0.615290 -0.641964
O14   O     O_R   0.383950 0.439280 0.616600 -0.642537
O15   O     O_R   0.677590 0.560710 0.444390 -0.670588
O16   O     O_R   0.556370 0.439260 0.616600 -0.649111
O17   O     O_R   0.382640 0.439290 0.322940 -0.653233
O18   O     O_R   0.678360 0.560700 0.616060 -0.638764
O19   O     O_R   0.382640 0.560750 0.444390 -0.590855
O20   O     O_3   0.215129 0.524825 0.404003 -0.759826
O21   O     O_3   0.641186 0.897510 0.575831 -0.719950
O22   O     O_3   0.708814 0.092693 0.898883 -0.716713
O23   O     O_R   0.555060 0.439270 0.322940 -0.545756
O24   O     O_3   0.837010 0.898978 0.707475 -0.783088
O25   O     O_3   0.794912 0.916951 0.603973 -0.703819
O26   O     O_3   0.902549 0.111183 0.715875 -0.747646
O27   O     O_3   0.926211 0.095024 0.828714 -0.798864
O28   O     O_3   0.588853 0.310961 0.193343 -0.738970
O29   O     O_3   0.689604 0.309444 0.091637 -0.707834
O30   O     O_3   0.588437 0.470200 0.192134 -0.734658
O31   O     O_3   0.943720 0.690355 0.555534 -0.795073
O32   O     O_3   0.980959 0.943397 0.856444 -0.768998
O33   O     O_3   0.380614 0.864022 0.648861 -0.787080
O34   O     O_R   0.383950 0.268380 0.445700 -0.636037
O35   O     O_3   0.340977 0.519832 0.949836 -0.790713
O36   O     O_R   0.677590 0.731610 0.615290 -0.618059
O37   O     O_3   0.997750 0.500010 0.002220 -0.498285
O38   O     O_R   0.942690 0.560750 0.179280 -0.663663
O39   O     O_R   0.114340 0.439270 0.886160 -0.630238
O40   O     O_R   0.820160 0.268410 0.886930 -0.620461
Zn1   Zn    Zn3+2 0.456040 0.586770 0.543190 0.999776
Zn2   Zn    Zn3+2 0.456820 0.413240 0.543960 0.965118
Zn3   Zn    Zn3+2 0.631110 0.586750 0.543190 0.982542
Zn4   Zn    Zn3+2 0.456040 0.413240 0.369660 1.004165
Zn5   Zn    Zn3+2 0.041710 0.413240 0.959030 1.018091
Zn6   Zn    Zn3+2 0.866640 0.413270 0.959030 1.003767
Zn7   Zn    Zn3+2 0.040930 0.586780 0.958260 0.967845
Zn8   Zn    Zn3+2 0.041710 0.586770 0.132560 0.952213

loop_
_geom_bond_atom_site_label_1
_geom_bond_atom_site_label_2
_ccdc_geom_bond_type
C45   H28   S    
C25   C31   A    
C66   C68   A    
C63   C65   A    
C34   C56   S    
C8    C13   S    
O16   Zn2   S    
C90   O5    A    
C61   H29   S    
C24   H9    S    
C41   C42   A    
O14   Zn2   S    
C35   C36   A    
C76   H3    S    
C11   H50   S    
C67   H34   S    
C15   H4    S    
C34   C90   S    
C81   C82   A    
C57   C58   A    
C39   C41   A    
C54   C60   A    
C3    C4    S    
C39   O31   S    
C12   C23   S    
O1    Zn1   S    
C26   C27   A    
C29   C30   A    
C49   C60   S    
C43   H21   S    
C56   H12   S    
C18   C24   A    
H44   O27   S    
O12   Zn1   S    
C36   C37   A    
C83   O38   A    
C10   C15   S    
C42   C53   S    
C30   C31   A    
C72   H31   S    
C46   H55   S    
C36   H18   S    
C27   C38   S    
C27   C29   A    
C9    H2    S    
C18   C19   A    
C73   C74   A    
C87   O6    A    
C2    O25   S    
O37   Zn6   S    
C65   H63   S    
C77   H32   S    
H43   O26   S    
C40   O18   A    
H38   O21   S    
H48   O29   S    
C8    O28   S    
C8    C9    S    
C4    O13   A    
C64   H41   S    
C13   C28   S    
C70   C71   A    
C17   H5    S    
C32   C38   A    
O34   Zn2   S    
C70   C84   S    
C28   O15   A    
C62   H30   S    
C61   C62   A    
C47   C53   A    
C71   C82   S    
C21   H11   S    
C16   O14   A    
C4    O36   A    
O17   Zn4   S    
C59   C60   A    
C81   H70   S    
C32   H16   S    
C21   C22   A    
O36   Zn3   S    
C14   C17   S    
C29   H15   S    
O19   Zn1   S    
C67   C78   S    
C18   H10   S    
C14   C83   S    
O6    Zn7   S    
H42   O25   S    
O37   Zn5   S    
C17   H6    S    
C44   C46   A    
C57   H26   S    
C75   O35   S    
C33   H54   S    
O39   Zn5   S    
O11   Zn7   S    
O1    Zn2   S    
C48   C87   S    
C86   O9    A    
C23   C64   S    
C7    O26   S    
O10   Zn6   S    
C1    O34   A    
C52   O19   A    
H49   O30   S    
C66   H64   S    
O9    Zn8   S    
C78   H56   S    
C72   C73   A    
C80   H69   S    
C12   H35   S    
C25   C26   A    
C79   H33   S    
O1    Zn3   S    
C58   H27   S    
C10   O30   S    
C22   H13   S    
C16   C73   S    
C6    O22   S    
O37   Zn7   S    
C10   H7    S    
C9    C14   S    
C2    O24   S    
C37   C38   A    
H59   O32   S    
C11   H51   S    
C88   O20   S    
C47   C48   A    
C47   H60   S    
O2    Zn7   S    
C26   C86   S    
C83   O10   A    
C45   C88   S    
C62   C63   A    
C50   H22   S    
C50   C51   A    
C64   C76   S    
C77   C79   A    
C69   C74   A    
C75   C82   A    
C34   C45   S    
C69   H65   S    
C75   C77   A    
C12   C56   S    
C6    H71   S    
C67   O21   S    
C85   O40   A    
C39   C46   A    
C40   O16   A    
C48   C49   A    
H39   O22   S    
C49   C50   A    
C19   H52   S    
C56   H36   S    
C23   C88   S    
C55   C57   A    
C43   C44   A    
C2    C7    S    
C22   C24   A    
C79   C80   A    
C86   O2    A    
C42   C43   A    
C15   H8    S    
C84   O11   A    
C6    C89   S    
C5    C7    S    
C78   H45   S    
C16   O12   A    
C84   O39   A    
C54   C55   A    
C11   C17   S    
H62   O33   S    
C37   H19   S    
O23   Zn4   S    
C3    C67   S    
O5    Zn8   S    
C80   C81   A    
C10   C13   S    
O7    Zn5   S    
H40   O24   S    
C25   H14   S    
C89   H67   S    
C63   C74   S    
C59   H61   S    
C40   C51   S    
O1    Zn4   S    
C44   O32   S    
C85   O8    A    
C64   H1    S    
C3    C89   S    
O37   Zn8   S    
C12   H68   S    
C32   C33   A    
C19   C20   A    
C2    C3    S    
C58   C59   A    
C52   O17   A    
C88   H20   S    
C71   C72   A    
C8    H72   S    
C28   O23   A    
C11   C13   S    
C61   C68   A    
C23   C52   S    
C5    C6    S    
C41   H58   S    
C55   H25   S    
C1    O4    A    
C54   H24   S    
C90   O7    A    
C1    C30   S    
C33   C35   A    
O15   Zn3   S    
H57   O31   S    
C68   O33   S    
C69   C70   A    
O3    Zn6   S    
O38   Zn8   S    
C35   H17   S    
C87   O3    A    
O13   Zn1   S    
H47   O28   S    
C76   H53   S    
C45   H23   S    
O8    Zn5   S    
C20   C21   A    
C65   C66   A    
C89   H46   S    
H37   O20   S    
C14   C15   S    
C7    O27   S    
O40   Zn6   S    
O4    Zn4   S    
H66   O35   S    
C51   C53   A    
C5    C78   S    
C9    O29   S    
C5    C85   S    
O18   Zn3   S    
C34   C76   S    
C20   C31   S    
