data_mof_unit_59560.cif
_audit_creation_date              2012-12-11T14:50:46-0500
_audit_creation_method            fapswitch 2.2
_symmetry_space_group_name_H-M    P1
_symmetry_Int_Tables_number       1
_space_group_crystal_system       triclinic
_cell_length_a                    20.605861
_cell_length_b                    7.080827
_cell_length_c                    20.435159
_cell_angle_alpha                 89.997316
_cell_angle_beta                  101.665447
_cell_angle_gamma                 89.997546
_cell_volume                      2920.03762493

loop_
_atom_site_label
_atom_site_type_symbol
_atom_type_description
_atom_site_fract_x
_atom_site_fract_y
_atom_site_fract_z
_atom_type_partial_charge
O1    O     O_R   0.423690 0.494470 0.435930 -0.514581
O2    O     O_R   0.576310 0.994470 0.564070 -0.514520
O3    O     O_R   0.556070 0.822310 0.435760 -0.537423
O4    O     O_R   0.443930 0.322310 0.564240 -0.537419
C1    C     C_R   0.575742 0.655212 0.420625 0.743675
C2    C     C_R   0.424256 0.155213 0.579373 0.743490
O5    O     O_R   0.422940 0.824080 0.428040 -0.543781
O6    O     O_R   0.577060 0.324080 0.571960 -0.543743
O7    O     O_R   0.442240 0.995960 0.556300 -0.539544
O8    O     O_R   0.557760 0.495960 0.443700 -0.539537
C3    C     C_R   0.398463 0.654619 0.410634 0.752699
C4    C     C_R   0.601542 0.154606 0.589359 0.752922
O9    O     O_3   0.506490 0.661310 0.542090 -0.374165
O10   O     O_3   0.493510 0.161310 0.457910 -0.374228
V1    V     V_3+5 0.498800 0.935560 0.492190 1.469523
V2    V     V_3+5 0.501200 0.435560 0.507810 1.469607
C5    C     C_R   0.836721 0.099019 0.858722 -0.089389
C6    C     C_R   0.163279 0.598942 0.141279 -0.089239
C7    C     C_R   0.663968 0.136926 0.640580 -0.250412
C8    C     C_R   0.336031 0.637005 0.359421 -0.250474
C9    C     C_R   0.771227 0.979935 0.677858 0.289318
C10   C     C_R   0.228679 0.480498 0.322226 0.289539
C11   C     C_R   0.715522 0.021020 0.627517 0.410846
C12   C     C_R   0.284409 0.521483 0.372546 0.410661
C13   C     C_R   0.670724 0.221601 0.703560 -0.253817
C14   C     C_R   0.329333 0.721359 0.296390 -0.253845
C15   C     C_R   0.726369 0.183133 0.754984 0.087566
C16   C     C_R   0.273670 0.682952 0.244981 0.087572
C17   C     C_R   0.776385 0.056603 0.743022 -0.063595
C18   C     C_R   0.223573 0.556825 0.257015 -0.063700
C19   C     C_R   0.829867 0.010511 0.796299 -0.198963
C20   C     C_R   0.170067 0.510772 0.203759 -0.198998
C21   C     C_R   0.787931 0.227446 0.869057 -0.247641
C22   C     C_R   0.212148 0.726992 0.130873 -0.247693
C23   C     C_R   0.732311 0.267847 0.818425 0.388570
C24   C     C_R   0.267789 0.767322 0.181487 0.388567
H1    H     H_    0.867745 0.910775 0.789700 0.130249
H2    H     H_    0.132125 0.411324 0.210413 0.130131
H3    H     H_    0.793396 0.297345 0.917053 0.108010
H4    H     H_    0.206731 0.796638 0.082834 0.107900
H5    H     H_    0.631225 0.312254 0.712926 0.187732
H6    H     H_    0.368889 0.811704 0.286974 0.187665
C25   C     C_3   0.265385 0.243505 0.819133 -0.403118
C26   C     C_3   0.734903 0.744677 0.181139 -0.403156
C27   C     C_3   0.240000 0.906964 0.784418 0.228646
C28   C     C_3   0.759594 0.407286 0.215153 0.228553
C29   C     C_3   0.288548 0.918672 0.734704 -0.380245
C30   C     C_3   0.711024 0.418975 0.264845 -0.380345
H7    H     H_    0.365417 0.210903 0.798757 0.145407
H8    H     H_    0.634795 0.713362 0.201430 0.145419
H9    H     H_    0.291874 0.197931 0.869614 0.136438
H10   H     H_    0.708325 0.700160 0.130568 0.136448
H11   H     H_    0.269526 0.865737 0.834183 0.109017
H12   H     H_    0.730022 0.367146 0.165291 0.109106
H13   H     H_    0.338550 0.869502 0.760339 0.125019
H14   H     H_    0.660927 0.370959 0.239064 0.125114
H15   H     H_    0.272299 0.822923 0.691290 0.147323
H16   H     H_    0.727024 0.322314 0.308049 0.147302
C31   C     C_1   0.378934 0.145429 0.625330 -0.183322
C32   C     C_1   0.621065 0.645423 0.374668 -0.183380
C33   C     C_3   0.208060 0.103959 0.791956 0.221374
C34   C     C_3   0.791937 0.603943 0.208041 0.221380
C35   C     C_3   0.315343 0.253937 0.771294 -0.331295
C36   C     C_3   0.684963 0.755191 0.228993 -0.331222
C37   C     C_3   0.293115 0.124243 0.709570 0.248643
C38   C     C_3   0.706887 0.624233 0.290431 0.248677
C39   C     C_3   0.222631 0.186836 0.673890 -0.345716
C40   C     C_3   0.777497 0.685244 0.326275 -0.345714
C41   C     C_3   0.173140 0.176928 0.722037 -0.336719
C42   C     C_3   0.826983 0.675410 0.278120 -0.336696
C43   C     C_1   0.340530 0.136310 0.663317 -0.076222
C44   C     C_1   0.659471 0.636299 0.336683 -0.076340
C45   C     C_1   0.160499 0.094986 0.838087 -0.031211
C46   C     C_1   0.839499 0.594977 0.161911 -0.031211
C47   C     C_1   0.121776 0.088290 0.875738 -0.172698
C48   C     C_1   0.878222 0.588287 0.124261 -0.172698
H17   H     H_    0.152431 0.320249 0.726984 0.170486
H18   H     H_    0.847972 0.818533 0.273487 0.169768
H19   H     H_    0.130459 0.085182 0.700306 0.141054
H20   H     H_    0.869481 0.582785 0.299661 0.141126
H21   H     H_    0.224268 0.334386 0.655778 0.157098
H22   H     H_    0.776178 0.832517 0.344734 0.156758
H23   H     H_    0.245006 0.386854 0.824742 0.194365
H24   H     H_    0.755576 0.887804 0.175814 0.195341
H25   H     H_    0.319142 0.402577 0.754708 0.160409
H26   H     H_    0.681499 0.903644 0.245905 0.160670
H27   H     H_    0.204676 0.095570 0.629597 0.142067
H28   H     H_    0.795246 0.593005 0.370354 0.142082
O11   O     O_R   0.942280 0.741210 0.056360 -0.533059
O12   O     O_R   0.057720 0.241210 0.943640 -0.533056
O13   O     O_R   0.077070 0.409690 0.071960 -0.538902
O14   O     O_R   0.922930 0.909690 0.928040 -0.538914
C49   C     C_R   0.101812 0.579539 0.089001 0.705502
C50   C     C_R   0.898185 0.079554 0.911003 0.705565
O15   O     O_R   0.943940 0.411580 0.064250 -0.535294
O16   O     O_R   0.056060 0.911580 0.935750 -0.535297
O17   O     O_R   0.923670 0.239840 0.935920 -0.534916
O18   O     O_R   0.076330 0.739840 0.064080 -0.534904
C51   C     C_R   0.924014 0.580003 0.078848 0.714974
C52   C     C_R   0.075985 0.080004 0.921152 0.715021
O19   O     O_3   0.993540 0.572620 0.957940 -0.369450
O20   O     O_3   0.006460 0.072620 0.042060 -0.369449
V3    V     V_3+5 0.001200 0.298330 0.007800 1.433076
V4    V     V_3+5 0.998800 0.798330 0.992200 1.433050
O21   O     O_3   0.819244 0.864837 0.660779 -0.629308
H29   H     H_    0.863184 0.910219 0.684297 0.277222
O22   O     O_3   0.180580 0.365850 0.339375 -0.629231
H30   H     H_    0.136673 0.411373 0.315815 0.277232
O23   O     O_3   0.684022 0.392320 0.829617 -0.653303
H31   H     H_    0.695713 0.439150 0.876255 0.282443
O24   O     O_3   0.316163 0.891391 0.170223 -0.653327
H32   H     H_    0.304518 0.937975 0.123549 0.282422
O25   O     O_3   0.711727 0.946789 0.564284 -0.533913
C53   C     C_3   0.740247 0.078124 0.526306 0.121361
H33   H     H_    0.794540 0.090331 0.546215 0.139825
H34   H     H_    0.717021 0.220483 0.526156 0.096868
C54   C     C_3   0.729693 0.010255 0.454491 -0.714532
H35   H     H_    0.676016 0.010574 0.431718 0.223862
H36   H     H_    0.755742 0.105469 0.425110 0.161633
H37   H     H_    0.749491 0.864805 0.453217 0.228223
O26   O     O_3   0.288156 0.447492 0.435810 -0.533933
C55   C     C_3   0.259884 0.579403 0.473786 0.121827
H38   H     H_    0.205657 0.593054 0.453726 0.139407
H39   H     H_    0.283578 0.721146 0.474142 0.096925
C56   C     C_3   0.269987 0.511067 0.545523 -0.714403
H40   H     H_    0.323627 0.509711 0.568439 0.223877
H41   H     H_    0.244192 0.606999 0.574904 0.161642
H42   H     H_    0.249625 0.366229 0.546599 0.228135
O27   O     O_3   0.191820 0.765306 0.765732 -0.654147
H43   H     H_    0.170186 0.785699 0.718343 0.290130
O28   O     O_3   0.807487 0.264720 0.233585 -0.654310
H44   H     H_    0.829108 0.284110 0.281033 0.290107

loop_
_geom_bond_atom_site_label_1
_geom_bond_atom_site_label_2
_ccdc_geom_bond_type
C38   C40   S    
C35   C37   S    
C27   O27   S    
H7    C35   S    
C42   H18   S    
C25   H23   S    
C41   H17   S    
O24   H32   S    
O1    C3    A    
O2    C4    A    
C2    O7    A    
C53   H33   S    
C25   C35   S    
C26   C36   S    
C48   C51   S    
O5    C3    A    
C25   C33   S    
C21   H3    S    
C46   C48   T    
O11   C51   A    
C22   H4    S    
O25   C53   S    
C54   H36   S    
O15   C51   A    
C11   O25   S    
C32   C44   T    
C10   O22   S    
H8    C36   S    
C15   C17   A    
C34   C42   S    
O12   C52   A    
C47   C52   S    
C38   C44   S    
C8    C12   A    
C37   C39   S    
C56   H42   S    
O22   H30   S    
C20   H2    S    
C23   O23   S    
C26   H10   S    
O5    V1    S    
C27   H11   S    
O6    V2    S    
C35   H25   S    
C45   C47   T    
C5    C21   A    
C36   H26   S    
O15   V3    S    
C27   C29   S    
C28   C30   S    
C3    C8    S    
C42   H20   S    
O4    C2    A    
C54   H37   S    
C13   H5    S    
C28   O28   S    
C50   O17   A    
C15   C23   A    
C37   C43   S    
C9    C17   A    
O13   C49   A    
C27   C33   S    
C19   H1    S    
C39   C41   S    
C36   C38   S    
O4    V2    S    
C7    C11   A    
C29   H15   S    
O6    C4    A    
C28   H12   S    
C24   O24   S    
O14   C50   A    
O1    V2    S    
O20   V4    S    
O2    V1    S    
C6    C22   A    
O26   C55   S    
O17   V3    S    
C40   C42   S    
C28   C34   S    
C39   H21   S    
O19   V4    S    
C9    C11   A    
O11   V4    S    
C56   H40   S    
C5    C19   A    
C10   C12   A    
C41   H19   S    
C6    C20   A    
C55   H39   S    
O28   H44   S    
O3    V1    S    
C14   H6    S    
C29   H13   S    
O27   H43   S    
C33   C41   S    
C30   H14   S    
C10   C18   A    
C1    C32   S    
C33   C45   S    
C14   C16   A    
C2    C31   S    
O13   V3    S    
O3    C1    A    
C53   H34   S    
C30   H16   S    
C13   C15   A    
O21   H29   S    
C39   H27   S    
C26   H24   S    
C26   C34   S    
C55   C56   S    
O16   V4    S    
O7    V1    S    
C40   H22   S    
C1    O8    A    
C17   C19   A    
O8    V2    S    
O23   H31   S    
C18   C20   A    
C25   H9    S    
C8    C14   A    
C40   H28   S    
O16   C52   A    
C4    C7    S    
C16   C18   A    
C12   O26   S    
C21   C23   A    
C29   C37   S    
C22   C24   A    
O20   V3    S    
C7    C13   A    
O12   V3    S    
C53   C54   S    
O14   V4    S    
C16   C24   A    
O19   V3    S    
O9    V2    S    
C56   H41   S    
C6    C49   S    
O10   V1    S    
C34   C46   S    
C5    C50   S    
C30   C38   S    
C55   H38   S    
C54   H35   S    
C49   O18   A    
O18   V4    S    
C9    O21   S    
C31   C43   T    
