data_mof_unit_23016.cif
_audit_creation_date              2012-12-11T14:40:21-0500
_audit_creation_method            fapswitch 2.2
_symmetry_space_group_name_H-M    P1
_symmetry_Int_Tables_number       1
_space_group_crystal_system       triclinic
_cell_length_a                    19.574078
_cell_length_b                    10.929575
_cell_length_c                    19.468639
_cell_angle_alpha                 89.813021
_cell_angle_beta                  97.701546
_cell_angle_gamma                 89.613729
_cell_volume                      4127.34886998

loop_
_atom_site_label
_atom_site_type_symbol
_atom_type_description
_atom_site_fract_x
_atom_site_fract_y
_atom_site_fract_z
_atom_type_partial_charge
C1    C     C_R   0.726953 0.947879 0.359238 0.541185
C2    C     C_3   0.254668 0.390254 0.564958 0.058667
C3    C     C_3   0.552392 0.752691 0.926774 -0.379014
C4    C     C_3   0.972589 0.385970 0.085987 0.009115
C5    C     C_3   0.941762 0.258698 0.076708 -0.377712
C6    C     C_3   0.027725 0.384848 0.915916 0.005428
C7    C     C_3   0.058595 0.256804 0.925545 -0.379480
C8    C     C_3   0.232944 0.849920 0.439490 0.055488
C9    C     C_3   0.754666 0.890259 0.564959 0.059169
C10   C     C_3   0.752457 0.479740 0.463218 -0.112976
C11   C     C_3   0.287192 0.494392 0.529043 -0.133344
C12   C     C_3   0.252467 0.979754 0.463215 -0.113721
C13   C     C_3   0.787192 0.994394 0.529043 -0.133544
C14   C     C_3   0.808401 0.424280 0.517700 -0.108421
C15   C     C_3   0.217809 0.508803 0.481381 -0.112568
C16   C     C_3   0.308408 0.924286 0.517699 -0.110156
C17   C     C_R   0.274543 0.952793 0.638976 0.559139
C18   C     C_3   0.717808 0.008807 0.481381 -0.113229
C19   C     C_3   0.788840 0.294168 0.493259 -0.115735
C20   C     C_3   0.185829 0.403595 0.518307 -0.113944
C21   C     C_3   0.288842 0.794177 0.493256 -0.115695
C22   C     C_3   0.685828 0.903601 0.518308 -0.114224
C23   C     C_3   0.735340 0.286011 0.544720 -0.147269
C24   C     C_3   0.211008 0.310372 0.467860 -0.117423
C25   C     C_3   0.235340 0.786024 0.544714 -0.146463
C26   C     C_3   0.711005 0.810377 0.467861 -0.117169
C27   C     C_3   0.754948 0.414982 0.568350 0.056994
C28   C     C_R   0.226954 0.447877 0.359237 0.537152
C29   C     C_3   0.243154 0.415316 0.431465 0.057102
C30   C     C_3   0.254952 0.914993 0.568347 0.054886
C31   C     C_3   0.743152 0.915319 0.431466 0.056730
C32   C     C_3   0.531976 0.266491 0.977098 -0.160701
C33   C     C_3   0.472343 0.271396 0.021757 -0.157279
C34   C     C_3   0.029737 0.768498 0.977352 -0.161236
C35   C     C_3   0.969977 0.769619 0.021903 -0.161688
C36   C     C_3   0.567177 0.163277 0.023740 -0.104149
C37   C     C_3   0.433597 0.171734 0.976228 -0.106698
C38   C     C_3   0.066718 0.666960 0.023960 -0.102359
C39   C     C_R   0.774543 0.452794 0.638975 0.547957
C40   C     C_3   0.933138 0.668158 0.976185 -0.101111
C41   C     C_3   0.507002 0.169006 0.068091 0.017965
C42   C     C_3   0.493791 0.167589 0.931765 0.016940
C43   C     C_3   0.006377 0.668855 0.068246 0.016197
C44   C     C_3   0.993466 0.667784 0.931890 0.015890
C45   C     C_R   0.534919 0.180019 0.337752 0.534140
C46   C     C_R   0.464444 0.179965 0.661779 0.542481
C47   C     C_R   0.034921 0.680019 0.337754 0.535058
C48   C     C_R   0.964443 0.679965 0.661779 0.542459
C49   C     C_3   0.469748 0.069702 0.023215 0.259449
C50   C     C_3   0.679067 0.341591 0.489616 -0.142183
C51   C     C_3   0.527649 0.064918 0.977715 0.263497
C52   C     C_3   0.970966 0.567784 0.023198 0.261420
C53   C     C_3   0.029041 0.566715 0.977833 0.260041
C54   C     C_1   0.757869 0.409144 0.899850 -0.000965
C55   C     C_1   0.237066 0.425550 0.095781 0.001002
C56   C     C_1   0.282016 0.975618 0.914809 -0.003743
C57   C     C_1   0.736862 0.926206 0.095601 0.000882
C58   C     C_1   0.734037 0.359993 0.025694 -0.034674
C59   C     C_1   0.252271 0.407515 0.965359 -0.024527
C60   C     C_1   0.257948 0.938896 0.041884 -0.016264
C61   C     C_3   0.280320 0.295789 0.515621 -0.110592
C62   C     C_1   0.751984 0.908491 0.965136 -0.023979
C63   C     C_1   0.745093 0.383635 0.956913 -0.023937
C64   C     C_1   0.245539 0.415192 0.036122 -0.022495
C65   C     C_1   0.270708 0.960112 0.973425 -0.007471
C66   C     C_1   0.745256 0.916158 0.035903 -0.023125
C67   C     C_1   0.727368 0.339985 0.085244 -0.015030
C68   C     C_1   0.257213 0.394228 0.905028 -0.003030
C69   C     C_1   0.247704 0.911738 0.099516 -0.012460
C70   C     C_1   0.757010 0.894920 0.904842 -0.002027
C71   C     C_R   0.725031 0.311340 0.367848 0.560521
C72   C     C_3   0.179071 0.841613 0.489610 -0.141251
C73   C     C_R   0.260558 0.362625 0.637806 0.543528
C74   C     C_R   0.225034 0.811348 0.367849 0.557499
C75   C     C_R   0.760557 0.862627 0.637807 0.540578
C76   C     C_R   0.721860 0.953041 0.163627 0.539752
C77   C     C_R   0.295445 0.997781 0.845434 0.554050
C78   C     C_R   0.221913 0.452883 0.163697 0.543366
C79   C     C_R   0.777533 0.450747 0.835604 0.545074
C80   C     C_R   0.528835 0.178623 0.141552 0.537699
C81   C     C_R   0.471423 0.177877 0.858334 0.537093
C82   C     C_R   0.028602 0.678586 0.141676 0.546066
C83   C     C_3   0.780317 0.795792 0.515622 -0.109984
C84   C     C_R   0.971337 0.677912 0.858399 0.543620
C85   C     C_R   0.722131 0.310910 0.156078 0.559407
C86   C     C_R   0.264091 0.359945 0.835705 0.535946
C87   C     C_R   0.236521 0.862787 0.165229 0.550905
C88   C     C_R   0.764033 0.860143 0.835625 0.541222
C89   C     C_1   0.484772 0.172037 0.594222 -0.015574
C90   C     C_1   0.512732 0.171680 0.404490 -0.017896
C91   C     C_1   0.984773 0.672037 0.594222 -0.013988
C92   C     C_1   0.012735 0.671681 0.404493 -0.016000
C93   C     C_1   0.502248 0.168061 0.463875 -0.064671
C94   C     C_3   0.732938 0.349904 0.439493 0.053788
C95   C     C_1   0.494175 0.168339 0.534528 -0.062992
C96   C     C_1   0.002252 0.668061 0.463877 -0.064262
C97   C     C_1   0.994177 0.668339 0.534529 -0.062690
C98   C     C_3   0.699061 0.472194 0.514882 -0.115463
C99   C     C_3   0.312317 0.401515 0.477908 -0.125035
C100  C     C_3   0.199069 0.972213 0.514878 -0.115574
C101  C     C_3   0.812315 0.901517 0.477909 -0.124752
C102  C     C_3   0.469355 0.889197 0.086901 0.005583
C103  C     C_3   0.437360 0.762783 0.078001 -0.379248
C104  C     C_3   0.523299 0.881897 0.916540 0.005622
Cr1   Cr    Cr6+3 0.765830 0.160660 0.268180 1.010759
Cr2   Cr    Cr6+3 0.384070 0.324050 0.751550 1.019335
Cr3   Cr    Cr6+3 0.115930 0.824050 0.248450 1.021305
Cr4   Cr    Cr6+3 0.884070 0.824050 0.751550 1.024171
Cr5   Cr    Cr6+3 0.234170 0.160660 0.731820 1.017206
Cr6   Cr    Cr6+3 0.265830 0.660660 0.268180 1.013858
Cr7   Cr    Cr6+3 0.734170 0.660660 0.731820 1.018685
Cr8   Cr    Cr6+3 0.612110 0.009150 0.248770 0.998379
Cr9   Cr    Cr6+3 0.387890 0.009150 0.751230 0.998467
Cr10  Cr    Cr6+3 0.112110 0.509150 0.248770 1.004109
Cr11  Cr    Cr6+3 0.887890 0.509150 0.751230 1.004246
Cr12  Cr    Cr6+3 0.615930 0.324050 0.248450 1.022105
H1    H     H_    0.625804 0.307728 0.476049 0.121362
H2    H     H_    0.319144 0.564972 0.558465 0.115374
H3    H     H_    0.259682 0.057019 0.427832 0.118612
H4    H     H_    0.819145 0.064972 0.558467 0.115001
H5    H     H_    0.361750 0.959101 0.530667 0.126342
H6    H     H_    0.689673 0.093744 0.463562 0.108155
H7    H     H_    0.861742 0.459100 0.530665 0.126660
H8    H     H_    0.189674 0.593742 0.463564 0.108020
H9    H     H_    0.826594 0.223858 0.481359 0.128953
H10   H     H_    0.134406 0.406390 0.536398 0.124950
H11   H     H_    0.326594 0.723862 0.481356 0.129058
H12   H     H_    0.306552 0.208300 0.532575 0.113071
H13   H     H_    0.634405 0.906399 0.536399 0.124687
H14   H     H_    0.727726 0.210277 0.580956 0.111422
H15   H     H_    0.180220 0.235270 0.441234 0.118564
H16   H     H_    0.227722 0.710286 0.580946 0.113763
H17   H     H_    0.680216 0.735275 0.441236 0.119086
H18   H     H_    0.622820 0.157844 0.044377 0.116117
H19   H     H_    0.377861 0.175614 0.955771 0.112740
H20   H     H_    0.122475 0.665821 0.044668 0.130883
H21   H     H_    0.877386 0.667922 0.955472 0.132252
H22   H     H_    0.559187 0.345905 0.957994 0.135184
H23   H     H_    0.125806 0.807756 0.476040 0.121320
H24   H     H_    0.447962 0.355049 0.040068 0.135291
H25   H     H_    0.055515 0.849659 0.958331 0.136039
H26   H     H_    0.944089 0.851698 0.040190 0.134906
H27   H     H_    0.468392 0.917301 0.141485 0.165337
H28   H     H_    0.523861 0.882101 0.076531 0.175996
H29   H     H_    0.435208 0.732661 0.023355 0.151406
H30   H     H_    0.468761 0.696022 0.112135 0.102913
H31   H     H_    0.384231 0.764840 0.092068 0.180921
H32   H     H_    0.524737 0.907861 0.861617 0.165519
H33   H     H_    0.468777 0.880962 0.927211 0.172146
H34   H     H_    0.806548 0.708301 0.532575 0.113184
H35   H     H_    0.553673 0.723982 0.981689 0.152985
H36   H     H_    0.519621 0.688175 0.893176 0.102495
H37   H     H_    0.605617 0.749115 0.912927 0.179142
H38   H     H_    0.971508 0.413183 0.140694 0.167598
H39   H     H_    0.027093 0.380828 0.075430 0.173713
H40   H     H_    0.940280 0.228980 0.022051 0.149804
H41   H     H_    0.973547 0.192566 0.110933 0.100953
H42   H     H_    0.888457 0.259156 0.090383 0.182679
H43   H     H_    0.029052 0.412391 0.861205 0.164284
H44   H     H_    0.973153 0.380928 0.926279 0.174121
H45   H     H_    0.662647 0.545699 0.525781 0.126957
H46   H     H_    0.059876 0.226729 0.980234 0.150783
H47   H     H_    0.026958 0.191624 0.891332 0.101901
H48   H     H_    0.111981 0.256089 0.912085 0.179580
H49   H     H_    0.363559 0.399238 0.459450 0.121253
H50   H     H_    0.162657 0.045722 0.525775 0.127075
H51   H     H_    0.863558 0.899237 0.459451 0.121668
H52   H     H_    0.759668 0.557010 0.427837 0.120977
O1    O     O_R   0.783230 0.287800 0.346510 -0.506821
O2    O     O_R   0.454570 0.285140 0.836900 -0.510188
O3    O     O_R   0.045430 0.785140 0.163100 -0.511147
O4    O     O_R   0.954570 0.785140 0.836900 -0.510388
O5    O     O_R   0.677850 0.374730 0.185500 -0.479664
O6    O     O_R   0.322150 0.374730 0.814500 -0.495869
O7    O     O_R   0.177850 0.874730 0.185500 -0.490649
O8    O     O_R   0.822150 0.874730 0.814500 -0.496867
O9    O     O_3   0.664630 0.164620 0.255130 -0.293192
O10   O     O_3   0.335370 0.164620 0.744870 -0.271539
O11   O     O_3   0.164630 0.664620 0.255130 -0.271233
O12   O     O_R   0.216770 0.287800 0.653490 -0.519788
O13   O     O_3   0.835370 0.664620 0.744870 -0.251126
O14   O     O_R   0.760130 0.037060 0.338610 -0.519608
O15   O     O_R   0.239870 0.037060 0.661390 -0.500510
O16   O     O_R   0.260130 0.537060 0.338610 -0.520342
O17   O     O_R   0.739870 0.537060 0.661390 -0.506193
O18   O     O_R   0.666620 0.921370 0.332440 -0.510596
O19   O     O_R   0.333380 0.921370 0.667560 -0.514495
O20   O     O_R   0.166620 0.421370 0.332440 -0.513156
O21   O     O_R   0.833380 0.421370 0.667560 -0.519415
O22   O     O_R   0.557170 0.082420 0.312350 -0.494081
O23   O     O_R   0.283230 0.787800 0.346510 -0.513652
O24   O     O_R   0.442830 0.082420 0.687650 -0.501695
O25   O     O_R   0.057170 0.582420 0.312350 -0.494977
O26   O     O_R   0.942830 0.582420 0.687650 -0.502593
O27   O     O_R   0.548310 0.285980 0.316250 -0.518697
O28   O     O_R   0.451690 0.285980 0.683750 -0.505277
O29   O     O_R   0.048310 0.785980 0.316250 -0.519134
O30   O     O_R   0.951690 0.785980 0.683750 -0.505642
O31   O     O_R   0.680520 0.375500 0.327470 -0.489999
O32   O     O_R   0.319480 0.375500 0.672530 -0.497377
O33   O     O_R   0.180520 0.875500 0.327470 -0.497906
O34   O     O_R   0.716770 0.787800 0.653490 -0.520726
O35   O     O_R   0.819480 0.875500 0.672530 -0.500335
O36   O     O_R   0.780350 0.286970 0.193350 -0.500875
O37   O     O_R   0.219650 0.286970 0.806650 -0.522983
O38   O     O_R   0.280350 0.786970 0.193350 -0.511721
O39   O     O_R   0.719650 0.786970 0.806650 -0.513856
O40   O     O_R   0.757460 0.036290 0.196640 -0.517504
O41   O     O_R   0.242540 0.036290 0.803360 -0.494015
O42   O     O_R   0.257460 0.536290 0.196640 -0.499636
O43   O     O_R   0.742540 0.536290 0.803360 -0.498195
O44   O     O_R   0.663740 0.920540 0.179290 -0.510354
O45   O     O_R   0.554500 0.081650 0.170370 -0.522713
O46   O     O_R   0.336260 0.920540 0.820710 -0.512392
O47   O     O_R   0.163740 0.420540 0.179290 -0.515365
O48   O     O_R   0.836260 0.420540 0.820710 -0.516806
O49   O     O_3   0.429273 0.972227 0.042577 -0.579211
O50   O     O_3   0.565473 0.962058 0.959786 -0.574213
O51   O     O_3   0.931598 0.468319 0.042043 -0.570866
O52   O     O_3   0.068478 0.465943 0.959895 -0.574405
O53   O     O_R   0.445500 0.081650 0.829630 -0.539229
O54   O     O_R   0.054500 0.581650 0.170370 -0.519909
O55   O     O_R   0.945500 0.581650 0.829630 -0.522346
O56   O     O_R   0.545430 0.285140 0.163100 -0.518926

loop_
_geom_bond_atom_site_label_1
_geom_bond_atom_site_label_2
_ccdc_geom_bond_type
C3    C104  S    
C45   O27   A    
C4    H38   S    
C27   C98   S    
C89   C95   T    
C16   C21   S    
Cr10  O25   S    
C50   H1    S    
C68   C86   S    
C47   C92   S    
C104  H32   S    
Cr5   O12   S    
C92   C96   T    
C57   C66   T    
C100  H50   S    
C70   C88   S    
C98   H45   S    
C41   C80   S    
C6    H43   S    
C103  H31   S    
Cr1   O40   S    
C34   H25   S    
C71   C94   S    
Cr3   O3    S    
C1    O18   A    
C61   C99   S    
C79   O43   A    
C3    H36   S    
C24   C61   S    
Cr1   O1    S    
C13   C18   S    
C8    C74   S    
C26   C83   S    
C32   C36   S    
C57   C76   S    
Cr11  O55   S    
C28   C29   S    
C17   O19   A    
Cr3   O33   S    
Cr4   O35   S    
C28   O20   A    
Cr8   O18   S    
C39   O21   A    
C43   C52   S    
C84   O4    A    
C54   C63   T    
C10   C94   S    
C33   H24   S    
C16   C30   S    
C56   C65   T    
Cr9   O19   S    
C73   O32   A    
C30   C100  S    
Cr6   O23   S    
C3    H37   S    
Cr10  O20   S    
C62   C70   T    
C11   C99   S    
C34   C35   S    
C37   C42   S    
Cr8   O44   S    
C9    C13   S    
C24   C29   S    
C102  O49   S    
Cr12  O27   S    
C11   C15   S    
C44   C53   S    
C72   H23   S    
C12   C16   S    
C27   C39   S    
C49   C51   S    
C48   C91   S    
Cr11  O48   S    
C85   O5    A    
C71   O1    A    
C38   H20   S    
Cr1   O14   S    
C21   H11   S    
C35   C43   S    
C78   O42   A    
C69   C87   S    
C2    C61   S    
C77   O41   A    
C42   C51   S    
C83   H34   S    
C48   O26   A    
C76   O44   A    
C53   O52   S    
Cr9   O10   S    
Cr6   O16   S    
C26   C31   S    
C93   C95   S    
C18   C22   S    
Cr12  O9    S    
C55   C64   T    
C17   C30   S    
C73   O12   A    
C36   C41   S    
Cr6   O42   S    
C42   C81   S    
C102  H28   S    
Cr9   O46   S    
Cr5   O41   S    
C2    C11   S    
Cr5   O10   S    
C86   O37   A    
C41   C49   S    
Cr11  O13   S    
C75   O34   A    
C77   O46   A    
C15   C29   S    
C71   O31   A    
C1    C31   S    
C15   C20   S    
C7    H46   S    
Cr7   O17   S    
C67   C85   S    
C15   H8    S    
C29   C99   S    
C2    C20   S    
C20   C24   S    
C34   C44   S    
C10   C14   S    
C50   C98   S    
Cr1   O9    S    
Cr5   O15   S    
Cr3   O29   S    
Cr12  O31   S    
C62   C66   S    
C50   C94   S    
Cr1   O36   S    
Cr2   O28   S    
C44   C84   S    
C40   C52   S    
C7    H47   S    
C19   H9    S    
C33   C37   S    
C56   C77   S    
C23   H14   S    
C48   O30   A    
C86   O6    A    
Cr4   O13   S    
C104  H33   S    
Cr12  O56   S    
C19   C23   S    
C16   H5    S    
C87   O38   A    
C20   H10   S    
C46   C89   S    
C59   C68   T    
C80   O56   A    
C12   H3    S    
C37   C49   S    
C17   O15   A    
C8    C12   S    
C4    O51   S    
C104  O50   S    
C40   H21   S    
C37   H19   S    
C8    C21   S    
Cr2   O6    S    
Cr6   O38   S    
C25   C72   S    
C81   O2    A    
C91   C97   T    
Cr5   O37   S    
C45   C90   S    
C19   C94   S    
Cr9   O53   S    
C80   O45   A    
C2    C73   S    
C18   H6    S    
C6    O52   S    
Cr12  O5    S    
C60   C69   T    
C79   O48   A    
Cr11  O26   S    
C9    C83   S    
C60   C65   S    
Cr10  O11   S    
C23   C27   S    
Cr4   O4    S    
C22   H13   S    
C22   C26   S    
C14   C27   S    
C32   H22   S    
C102  H27   S    
C88   O39   A    
C13   C101  S    
Cr7   O39   S    
C101  H51   S    
C13   H4    S    
C87   O7    A    
C52   C53   S    
C103  H29   S    
C90   C93   T    
Cr2   O32   S    
C54   C79   S    
C72   C100  S    
C25   C30   S    
C55   C78   S    
Cr9   O24   S    
C21   C25   S    
C82   O3    A    
C52   O51   S    
C75   O35   A    
C14   H7    S    
C83   C101  S    
C96   C97   S    
Cr3   O11   S    
C34   C38   S    
C8    C72   S    
C3    H35   S    
C14   C19   S    
C47   O25   A    
C58   C63   S    
C46   O24   A    
C4    C5    S    
C23   C50   S    
C84   O55   A    
C36   H18   S    
C78   O47   A    
C6    H44   S    
C1    O14   A    
C46   O28   A    
C6    C7    S    
C82   O54   A    
C74   O33   A    
C5    H40   S    
C10   C98   S    
C7    H48   S    
C5    H41   S    
C36   C51   S    
C88   O8    A    
Cr7   O13   S    
C33   C41   S    
C32   C33   S    
C35   C40   S    
C28   O16   A    
Cr11  O21   S    
C38   C43   S    
C26   H17   S    
C11   H2    S    
C24   H15   S    
Cr8   O45   S    
C38   C53   S    
Cr3   O7    S    
Cr6   O11   S    
C31   C101  S    
Cr4   O8    S    
C85   O36   A    
C51   O50   S    
Cr7   O34   S    
C61   H12   S    
Cr4   O30   S    
C102  C103  S    
C9    C22   S    
Cr7   O43   S    
C12   C100  S    
C35   H26   S    
Cr8   O22   S    
C74   O23   A    
C39   O17   A    
C59   C64   S    
C58   C67   T    
C40   C44   S    
C4    H39   S    
C81   O53   A    
Cr10  O47   S    
C10   H52   S    
C5    H42   S    
Cr2   O2    S    
C49   O49   S    
C43   C82   S    
C32   C42   S    
C47   O29   A    
C18   C31   S    
C9    C75   S    
C99   H49   S    
C25   H16   S    
Cr2   O10   S    
C45   O22   A    
C76   O40   A    
C103  H30   S    
Cr8   O9    S    
Cr10  O54   S    
