data_mof_unit_14179.cif
_audit_creation_date              2012-12-11T15:55:43-0500
_audit_creation_method            fapswitch 2.2
_symmetry_space_group_name_H-M    P1
_symmetry_Int_Tables_number       1
_space_group_crystal_system       triclinic
_cell_length_a                    6.934664
_cell_length_b                    14.545795
_cell_length_c                    16.088188
_cell_angle_alpha                 89.982106
_cell_angle_beta                  89.966774
_cell_angle_gamma                 90.032569
_cell_volume                      1622.81814193

loop_
_atom_site_label
_atom_site_type_symbol
_atom_type_description
_atom_site_fract_x
_atom_site_fract_y
_atom_site_fract_z
_atom_type_partial_charge
O1    O     O_R   0.505680 0.583900 0.413320 -0.540139
O2    O     O_R   0.176010 0.594950 0.586080 -0.543195
O3    O     O_R   0.005680 0.416100 0.586680 -0.536901
C1    C     C_R   0.345041 0.617110 0.615085 0.686114
O4    O     O_R   0.175960 0.594930 0.413930 -0.543144
O5    O     O_R   0.005640 0.416080 0.413300 -0.540726
C2    C     C_R   0.345071 0.617175 0.385003 0.687930
O6    O     O_R   0.505720 0.583920 0.586700 -0.540105
O7    O     O_3   0.339190 0.441320 0.500000 -0.369997
V1    V     V_3+5 0.064350 0.510890 0.500000 1.397199
O8    O     O_R   0.675920 0.405050 0.413920 -0.544082
C3    C     C_R   0.844980 0.382811 0.384960 0.684366
O9    O     O_R   0.675960 0.405070 0.586070 -0.543231
C4    C     C_R   0.844708 0.383022 0.614892 0.702268
V2    V     V_3+5 0.564340 0.489110 0.500000 1.394618
O10   O     O_3   0.839370 0.558680 0.500000 -0.369832
C5    C     C_R   0.000751 0.320704 0.744442 0.056349
C6    C     C_R   0.852324 0.317512 0.685440 -0.107131
C7    C     C_R   0.704272 0.252667 0.698609 -0.176434
H1    H     H_    0.584343 0.248491 0.655844 0.125829
C8    C     C_R   0.716202 0.188180 0.763899 -0.178255
H2    H     H_    0.604776 0.136430 0.769399 0.126845
C9    C     C_R   0.875733 0.187045 0.818347 -0.137655
C10   C     C_R   0.011839 0.257582 0.809397 0.105241
C11   C     C_3   0.226831 0.253900 0.804452 -0.031009
C12   C     C_3   0.214183 0.323137 0.733263 -0.388649
H3    H     H_    0.280515 0.185214 0.785055 0.138011
H4    H     H_    0.258550 0.294170 0.672299 0.151437
H5    H     H_    0.275327 0.392082 0.747427 0.172658
C13   C     C_R   0.046833 0.224928 0.217329 -0.157484
H6    H     H_    0.187553 0.206561 0.193356 0.116331
C14   C     C_R   0.035710 0.288453 0.282570 -0.151872
H7    H     H_    0.168426 0.317209 0.306665 0.118637
C15   C     C_R   0.856159 0.314530 0.316070 -0.046497
C16   C     C_R   0.688038 0.275351 0.282374 -0.157556
H8    H     H_    0.547314 0.293739 0.306326 0.116403
C17   C     C_R   0.699160 0.211823 0.217136 -0.151486
H9    H     H_    0.566442 0.183084 0.193025 0.118531
C18   C     C_R   0.878721 0.185684 0.183691 -0.046442
C19   C     C_R   0.188027 0.724344 0.717805 -0.158070
H10   H     H_    0.047298 0.705775 0.693994 0.116678
C20   C     C_R   0.199128 0.787924 0.782992 -0.153004
H11   H     H_    0.066388 0.816529 0.807206 0.118526
C21   C     C_R   0.378697 0.814271 0.816263 -0.047425
C22   C     C_R   0.546844 0.775220 0.782480 -0.158428
H12   H     H_    0.687574 0.793782 0.806295 0.116560
C23   C     C_R   0.535743 0.711640 0.717294 -0.152110
H13   H     H_    0.668481 0.683029 0.693083 0.118787
C24   C     C_R   0.356184 0.685355 0.683975 -0.047743
C25   C     C_R   0.188155 0.724569 0.282477 -0.156825
H14   H     H_    0.047423 0.706060 0.306403 0.116833
C26   C     C_R   0.199262 0.788128 0.217256 -0.151527
H15   H     H_    0.066540 0.816781 0.193122 0.119068
C27   C     C_R   0.378828 0.814377 0.183840 -0.047155
C28   C     C_R   0.546978 0.775303 0.217530 -0.156759
H16   H     H_    0.687706 0.793815 0.193601 0.116905
C29   C     C_R   0.535871 0.711741 0.282754 -0.151531
H17   H     H_    0.668587 0.683084 0.306891 0.118934
C30   C     C_R   0.356302 0.685499 0.316174 -0.047044
O11   O     O_R   0.229200 0.915950 0.913350 -0.540508
O12   O     O_R   0.559090 0.905000 0.086080 -0.542871
O13   O     O_R   0.729280 0.083880 0.086680 -0.540162
C31   C     C_R   0.390009 0.882717 0.115021 0.689008
O14   O     O_R   0.558920 0.904980 0.913920 -0.543624
O15   O     O_R   0.729110 0.083860 0.913300 -0.537163
C32   C     C_R   0.389866 0.882680 0.885026 0.684605
O16   O     O_R   0.229360 0.915970 0.086730 -0.540006
O17   O     O_3   0.395680 0.058580 0.000030 -0.370993
V3    V     V_3+5 0.670570 0.989070 0.999990 1.395845
O18   O     O_R   0.058820 0.094950 0.913870 -0.542985
C33   C     C_R   0.889766 0.117002 0.885073 0.703401
O19   O     O_R   0.058990 0.094970 0.086020 -0.544543
C34   C     C_R   0.889921 0.117270 0.114920 0.686742
V4    V     V_3+5 0.170560 0.010930 0.999930 1.390668
O20   O     O_3   0.895590 0.941310 0.999960 -0.369542
C35   C     C_3   0.324100 0.291794 0.882656 -0.733329
H18   H     H_    0.259076 0.358341 0.901831 0.204538
H19   H     H_    0.308343 0.241879 0.934400 0.221047
H20   H     H_    0.480053 0.302568 0.870599 0.218259

loop_
_geom_bond_atom_site_label_1
_geom_bond_atom_site_label_2
_ccdc_geom_bond_type
C28   H16   S    
C4    C6    S    
C21   C32   S    
C7    H1    S    
C35   H20   S    
C1    O6    A    
C23   C24   A    
C22   H12   S    
C21   C22   A    
C5    C12   S    
C16   C17   A    
C35   H19   S    
C6    C7    A    
O5    C3    A    
C13   H6    S    
C29   C30   A    
C27   C31   S    
O17   V4    S    
C19   C24   A    
C15   C16   A    
O12   C31   A    
O8    V2    S    
C16   H8    S    
O17   V3    S    
O18   V4    S    
C25   C26   A    
C9    C10   A    
O13   C34   A    
O18   C33   A    
O1    V2    S    
O7    V1    S    
C19   C20   A    
O11   C32   A    
O9    C4    A    
C20   C21   A    
C2    C30   S    
C26   C27   A    
C25   H14   S    
C22   C23   A    
C8    C9    A    
C31   O16   A    
C5    C10   A    
V4    O20   S    
C9    C33   S    
C10   C11   S    
O19   V4    S    
O4    C2    A    
C11   C12   S    
O15   C33   A    
O13   V3    S    
O14   C32   A    
O2    C1    A    
C17   H9    S    
C23   H13   S    
C5    C6    A    
O16   V4    S    
O14   V3    S    
C35   H18   S    
O3    C4    A    
C19   H10   S    
O6    V2    S    
C28   C29   A    
C20   H11   S    
C25   C30   A    
C3    C15   S    
O2    V1    S    
C26   H15   S    
O12   V3    S    
C27   C28   A    
C7    C8    A    
O1    C2    A    
O19   C34   A    
O5    V1    S    
O8    C3    A    
C11   H3    S    
C12   H4    S    
C1    C24   S    
C11   C35   S    
C14   H7    S    
O9    V2    S    
O7    V2    S    
O4    V1    S    
C17   C18   A    
O3    V1    S    
V1    O10   S    
C13   C14   A    
C29   H17   S    
O15   V3    S    
O11   V4    S    
C13   C18   A    
V3    O20   S    
C18   C34   S    
C12   H5    S    
C8    H2    S    
V2    O10   S    
C14   C15   A    
