data_mof_unit_30480.cif
_audit_creation_date              2012-12-10T20:31:58-0500
_audit_creation_method            fapswitch 2.2
_symmetry_space_group_name_H-M    P1
_symmetry_Int_Tables_number       1
_space_group_crystal_system       triclinic
_cell_length_a                    10.072499
_cell_length_b                    10.979524
_cell_length_c                    15.194973
_cell_angle_alpha                 89.838279
_cell_angle_beta                  70.1787
_cell_angle_gamma                 87.482999
_cell_volume                      1579.21807408

loop_
_atom_site_label
_atom_site_type_symbol
_atom_type_description
_atom_site_fract_x
_atom_site_fract_y
_atom_site_fract_z
_atom_type_partial_charge
C1    C     C_R   0.499200 0.739274 0.496776 0.983037
C2    C     C_R   0.727985 0.405473 0.033899 0.060296
C3    C     C_R   0.585400 0.390702 0.089463 0.122012
C4    C     C_R   0.413110 0.483444 0.674199 0.943891
C5    C     C_R   0.821972 0.456450 0.071498 -0.153073
C6    C     C_R   0.777984 0.491890 0.164929 0.440166
C7    C     C_R   0.543282 0.423334 0.184334 -0.295240
C8    C     C_R   0.379476 0.946168 0.515513 -0.226562
C9    C     C_R   0.500465 0.871336 0.492616 -0.188217
C10   C     C_R   0.631291 0.928957 0.466013 0.486841
C11   C     C_R   0.634548 0.054527 0.489465 0.314991
C12   C     C_R   0.431985 0.360819 0.902400 0.040798
C13   C     C_R   0.510725 0.128185 0.499446 -0.176414
C14   C     C_R   0.388767 0.069033 0.511795 -0.233446
C15   C     C_3   0.235087 0.096298 0.546379 0.693655
C16   C     C_R   0.502756 0.260543 0.501593 0.885007
C17   C     C_3   0.220911 0.957435 0.535179 0.786878
C18   C     C_R   0.887991 0.520946 0.581274 -0.001032
C19   C     C_R   0.969627 0.464127 0.423433 -0.129905
C20   C     C_R   0.112055 0.465452 0.423130 -0.031387
C21   C     C_R   0.029940 0.527754 0.578735 0.186649
C22   C     C_3   0.001301 0.646942 0.628316 0.150099
C23   C     C_R   0.289162 0.340240 0.953441 0.019383
C24   C     C_3   0.844869 0.628092 0.648407 0.557326
C25   C     C_R   0.587850 0.497112 0.324147 0.895648
C26   C     C_R   0.365830 0.431038 0.769546 -0.151603
C27   C     C_R   0.638091 0.473215 0.222846 -0.158875
C28   C     C_R   0.190213 0.348069 0.906853 -0.251588
C29   C     C_R   0.227828 0.391695 0.815238 0.409523
C30   C     C_R   0.467601 0.404281 0.810827 -0.255917
C31   C     C_3   0.872333 0.881554 0.402393 0.146292
C32   C     C_3   0.957309 0.764239 0.363977 -0.690137
C33   C     C_3   0.816617 0.145629 0.522500 0.113494
C34   C     C_R   0.533805 0.350874 0.947103 0.073674
C35   C     C_3   0.815793 0.230562 0.602310 -0.703719
C36   C     C_3   0.258349 0.107212 0.700885 0.206035
C37   C     C_3   0.161319 0.086379 0.800884 -0.752913
C38   C     C_3   0.993734 0.949347 0.643521 0.177432
C39   C     C_3   0.907773 0.937410 0.747399 -0.695173
C40   C     C_3   0.284444 0.924182 0.367362 0.087469
C41   C     C_3   0.225977 0.963207 0.290800 -0.768230
C42   C     C_R   0.488319 0.354351 0.045909 0.017410
C43   C     C_R   0.347050 0.327023 0.095839 -0.261835
C44   C     C_R   0.249985 0.313479 0.049432 0.415151
C45   C     C_R   0.679414 0.345647 0.896370 -0.126516
C46   C     C_R   0.774616 0.373110 0.939950 -0.118946
Cl1   Cl    Cl    0.078443 0.271446 0.116146 -0.641126
Cl2   Cl    Cl    0.174509 0.186543 0.468229 -0.689820
Cl3   Cl    Cl    0.062066 0.654149 0.725659 -0.465104
Cl4   Cl    Cl    0.754688 0.585353 0.765926 -0.545948
Cl5   Cl    Cl    0.749202 0.750791 0.619762 -0.640769
Cl6   Cl    Cl    0.901260 0.564236 0.203302 -0.619731
Cl7   Cl    Cl    0.105129 0.378924 0.756836 -0.578090
H1    H     H_    0.928952 0.473200 0.027301 0.192389
H2    H     H_    0.721004 0.324307 0.822343 0.166904
H3    H     H_    0.867169 0.891280 0.475752 0.188666
H4    H     H_    0.925387 0.960402 0.361971 0.150157
H5    H     H_    0.992417 0.763387 0.286470 0.273127
H6    H     H_    0.050028 0.753678 0.387560 0.212920
H7    H     H_    0.889600 0.686258 0.389499 0.301268
H8    H     H_    0.825299 0.197935 0.458125 0.173566
H9    H     H_    0.912452 0.084776 0.503865 0.159639
H10   H     H_    0.795570 0.179218 0.668227 0.233062
H11   H     H_    0.918299 0.273808 0.585711 0.263896
H12   H     H_    0.950987 0.436237 0.360657 0.215260
H13   H     H_    0.730776 0.302526 0.615994 0.258757
H14   H     H_    0.330112 0.181150 0.700701 0.144602
H15   H     H_    0.323980 0.021533 0.680471 0.158190
H16   H     H_    0.065529 0.147990 0.820629 0.278692
H17   H     H_    0.128649 0.990864 0.808747 0.258271
H18   H     H_    0.219468 0.100796 0.850062 0.217024
H19   H     H_    0.944844 0.900956 0.600394 0.176837
H20   H     H_    0.982617 0.045937 0.627137 0.166892
H21   H     H_    0.959135 0.873527 0.783360 0.305839
H22   H     H_    0.893635 0.027468 0.783223 0.206857
H23   H     H_    0.197531 0.438304 0.360052 0.164241
H24   H     H_    0.800898 0.906076 0.756069 0.269036
H25   H     H_    0.334787 0.831024 0.351282 0.165601
H26   H     H_    0.368049 0.989341 0.360883 0.173487
H27   H     H_    0.148562 0.041542 0.314774 0.286947
H28   H     H_    0.313504 0.992030 0.228242 0.227848
H29   H     H_    0.177893 0.886552 0.267995 0.237193
H30   H     H_    0.435591 0.413205 0.228917 0.176482
H31   H     H_    0.045411 0.717623 0.575829 0.129940
H32   H     H_    0.883944 0.376547 0.899342 0.210110
H33   H     H_    0.084024 0.319247 0.940747 0.188753
H34   H     H_    0.574949 0.421617 0.771287 0.218285
H35   H     H_    0.310384 0.313429 0.170501 0.179352
N1    N     N_R   0.856900 0.500860 0.500610 -0.127762
N2    N     N_R   0.142540 0.500820 0.500610 -0.110469
O1    O     O_R   0.385310 0.683210 0.499990 -0.614725
O2    O     O_3   0.697262 0.074422 0.555895 -0.631478
O3    O     O_3   0.178990 0.141416 0.641507 -0.585303
O4    O     O_3   0.137242 0.906301 0.621224 -0.612496
O5    O     O_3   0.176056 0.925416 0.457622 -0.670259
O6    O     O_R   0.614650 0.683240 0.500000 -0.530728
O7    O     O_R   0.319830 0.499970 0.632240 -0.512038
O8    O     O_R   0.549170 0.500000 0.632250 -0.605481
O9    O     O_R   0.385350 0.316760 0.500000 -0.538422
O10   O     O_R   0.614690 0.316790 0.500010 -0.652281
O11   O     O_R   0.450830 0.500000 0.367750 -0.645722
O12   O     O_R   0.680170 0.500030 0.367760 -0.576012
O13   O     O_3   0.739259 0.873048 0.392875 -0.629106
Zn1   Zn    Zn3+2 0.346870 0.499980 0.499990 1.050606
Zn2   Zn    Zn3+2 0.653130 0.500020 0.500010 0.999746

loop_
_geom_bond_atom_site_label_1
_geom_bond_atom_site_label_2
_ccdc_geom_bond_type
C7    H30   S    
O6    Zn2   S    
C3    C42   A    
C37   H16   S    
C18   C21   A    
C19   C20   A    
C34   C42   A    
C32   H5    S    
O1    Zn1   S    
C41   H27   S    
C36   H14   S    
C45   C46   A    
C2    C46   A    
C12   C23   A    
C28   C29   A    
O10   Zn2   S    
O8    Zn2   S    
C18   C24   S    
C43   H35   S    
C39   H24   S    
C10   O13   S    
C33   H9    S    
C4    O8    A    
C38   C39   S    
C25   O12   A    
C7    C27   A    
C20   H23   S    
O12   Zn2   S    
C39   H21   S    
C13   C14   A    
C11   O2    S    
C31   C32   S    
C8    C9    A    
C35   H11   S    
C17   O5    S    
C39   H22   S    
C31   H3    S    
C9    C10   A    
C44   Cl1   S    
C46   H32   S    
C24   Cl5   S    
O9    Zn1   S    
C1    O1    A    
C4    O7    A    
C15   Cl2   S    
C36   O3    S    
C21   N2    A    
C24   Cl4   S    
C38   H19   S    
C5    H1    S    
C1    C9    S    
C33   O2    S    
C16   O10   A    
C35   H13   S    
C20   N2    A    
C23   C44   A    
C22   H31   S    
C43   C44   A    
C19   N1    A    
C6    C27   A    
C41   H28   S    
C38   O4    S    
C40   H26   S    
C34   C45   A    
C23   C28   A    
N2    Zn1   S    
C22   Cl3   S    
C40   C41   S    
C26   C30   A    
O11   Zn1   S    
C37   H18   S    
C28   H33   S    
C40   H25   S    
C2    C5    A    
C42   C43   A    
C32   H7    S    
C40   O5    S    
C12   C34   A    
C15   C17   S    
C36   C37   S    
C8    C14   A    
C12   C30   A    
C18   N1    A    
C15   O3    S    
C4    C26   S    
C36   H15   S    
C16   O9    A    
C25   C27   S    
C3    C7    A    
C8    C17   S    
C37   H17   S    
C31   H4    S    
C2    C3    A    
C11   C13   A    
C25   O11   A    
C5    C6    A    
C29   Cl7   S    
C1    O6    A    
C41   H29   S    
C33   C35   S    
C19   H12   S    
C22   C24   S    
O7    Zn1   S    
C10   C11   A    
C45   H2    S    
C26   C29   A    
C33   H8    S    
C13   C16   S    
N1    Zn2   S    
C14   C15   S    
C35   H10   S    
C17   O4    S    
C32   H6    S    
C6    Cl6   S    
C30   H34   S    
C21   C22   S    
C31   O13   S    
C38   H20   S    
