data_mof_unit_67988.cif
_audit_creation_date              2013-03-05T16:49:26-0500
_audit_creation_method            fapswitch 2.2
_symmetry_space_group_name_H-M    P1
_symmetry_Int_Tables_number       1
_space_group_crystal_system       triclinic
_cell_length_a                    10.740371
_cell_length_b                    8.852546
_cell_length_c                    8.18892
_cell_angle_alpha                 91.912875
_cell_angle_beta                  92.056931
_cell_angle_gamma                 89.404881
_cell_volume                      777.631273622

loop_
_atom_site_label
_atom_site_type_symbol
_atom_site_description
_atom_site_fract_x
_atom_site_fract_y
_atom_site_fract_z
_atom_type_partial_charge
O1    O     O_R   0.499990 0.285340 0.636850 -0.626642
O2    O     O_R   0.500010 0.714660 0.363150 -0.624540
O3    O     O_R   0.500010 0.285350 0.363100 -0.611368
O4    O     O_R   0.499990 0.714650 0.636900 -0.619614
C1    C     C_R   0.502583 0.218433 0.498420 0.952639
C2    C     C_R   0.501577 0.781552 0.501813 0.944891
O5    O     O_R   0.316750 0.500000 0.636870 -0.654304
O6    O     O_R   0.683250 0.500000 0.363130 -0.646116
O7    O     O_R   0.316770 0.500020 0.363120 -0.603026
O8    O     O_R   0.683230 0.499980 0.636880 -0.606880
C3    C     C_R   0.259388 0.500752 0.496942 0.866858
C4    C     C_R   0.740136 0.500542 0.502997 0.858494
Zn1   Zn    Zn3+2 0.499990 0.499990 0.682780 0.947349
Zn2   Zn    Zn3+2 0.500010 0.500010 0.317220 0.954968
H1    H     H_    0.273227 0.251087 0.815088 0.180376
H2    H     H_    0.713008 0.791344 0.160953 0.169357
C5    C     C_R   0.200793 0.427552 0.966374 -0.190701
C6    C     C_R   0.816773 0.618868 0.042670 -0.208702
H3    H     H_    0.230241 0.516324 0.891355 0.184350
H4    H     H_    0.812305 0.545515 0.142910 0.191045
C7    C     C_R   0.141857 0.468603 0.107967 -0.175317
C8    C     C_R   0.875906 0.568040 0.904115 -0.169049
H5    H     H_    0.125682 0.587689 0.135918 0.149909
H6    H     H_    0.914671 0.454439 0.900173 0.155447
C9    C     C_R   0.109475 0.359676 0.217561 0.083748
C10   C     C_R   0.883214 0.660059 0.770002 0.078483
C11   C     C_R   0.127043 0.203677 0.175863 0.126360
C12   C     C_R   0.830542 0.808479 0.776763 0.143687
C13   C     C_R   0.190869 0.161514 0.030954 0.184512
C14   C     C_R   0.764038 0.857471 0.917724 0.198662
C15   C     C_R   0.225833 0.276372 0.926940 -0.124726
C16   C     C_R   0.760289 0.760427 0.050343 -0.139745
C17   C     C_R   0.929991 0.413197 0.386502 -0.303769
C18   C     C_R   0.068398 0.590399 0.613887 -0.256306
H7    H     H_    0.875072 0.346158 0.297526 0.146858
H8    H     H_    0.122767 0.658210 0.702476 0.149142
C19   C     C_R   0.872352 0.499546 0.508050 -0.075239
C20   C     C_R   0.126348 0.504351 0.491380 -0.081831
C21   C     C_R   0.940621 0.589388 0.623606 0.012406
C22   C     C_R   0.056869 0.418101 0.372739 0.038539
C23   C     C_1   0.505068 0.065316 0.497901 -0.249234
C24   C     C_1   0.504405 0.934566 0.502684 -0.245698
N1    N     N_1   0.500020 0.500030 0.073640 -0.043192
N2    N     N_1   0.499980 0.499970 0.926360 -0.047471
C25   C     C_3   0.083441 0.083681 0.287394 -0.439551
C26   C     C_3   0.184144 0.049556 0.416594 -0.877264
H9    H     H_    0.276475 0.041738 0.361440 0.265335
H10   H     H_    0.186626 0.140600 0.513239 0.254373
H11   H     H_    0.165883 0.938956 0.470226 0.249019
H12   H     H_    0.996137 0.119060 0.345556 0.212707
H13   H     H_    0.058661 0.978074 0.217605 0.202347
C27   C     C_3   0.852661 0.917374 0.642223 -0.461241
C28   C     C_3   0.958525 0.024293 0.695043 -0.873871
H14   H     H_    0.949735 0.070230 0.821599 0.249897
H15   H     H_    0.047913 0.961591 0.691131 0.268412
H16   H     H_    0.959856 0.121485 0.613605 0.266116
H17   H     H_    0.877276 0.857136 0.526534 0.213691
H18   H     H_    0.766959 0.983369 0.612753 0.203740
C29   C     C_3   0.222597 0.995529 0.992278 -0.449571
C30   C     C_3   0.313228 0.965459 0.855123 -0.885474
H19   H     H_    0.270449 0.996234 0.736004 0.253366
H20   H     H_    0.400054 0.030332 0.878978 0.280612
H21   H     H_    0.337184 0.843160 0.848314 0.271343
H22   H     H_    0.266578 0.944980 0.102389 0.234405
H23   H     H_    0.135524 0.932643 0.961764 0.204420
C31   C     C_3   0.693812 0.008785 0.921362 -0.435226
C32   C     C_3   0.629639 0.052097 0.080407 -0.862166
H24   H     H_    0.556962 0.968586 0.106200 0.271586
H25   H     H_    0.699049 0.060699 0.184227 0.248108
H26   H     H_    0.583373 0.164135 0.067856 0.273672
H27   H     H_    0.757725 0.102211 0.897814 0.221772
H28   H     H_    0.621305 0.005706 0.821488 0.224832

loop_
_geom_bond_atom_site_label_1
_geom_bond_atom_site_label_2
_geom_bond_distance
_ccdc_geom_bond_type
C3    C20   1.428050 S    
C20   C22   1.412090 A    
O7    Zn2   2.016844 S    
H1    C15   1.079627 S    
H2    C16   1.080186 S    
C11   C13   1.428600 A    
C12   C27   1.514595 S    
C23   C24   1.159543 T    
C13   C29   1.530298 S    
C10   C12   1.425263 A    
C31   H27   1.106510 S    
O6    C4    1.278523 A    
N1    N2    1.206030 T    
C32   H26   1.110896 S    
C11   C25   1.512508 S    
C12   C14   1.431803 A    
C31   C32   1.530990 S    
C6    C16   1.387105 A    
C29   C30   1.527421 S    
C13   C15   1.410347 A    
O2    C2    1.262634 A    
C28   H14   1.107437 S    
C29   H23   1.109820 S    
C30   H20   1.108224 S    
C14   C16   1.408972 A    
O7    C3    1.276209 A    
C26   H11   1.108533 S    
C29   H22   1.108332 S    
C14   C31   1.530375 S    
O3    Zn2   1.949336 S    
O8    C4    1.274405 A    
C25   H12   1.104616 S    
C30   H21   1.110260 S    
O1    C1    1.262426 A    
O4    C2    1.272823 A    
C5    H3    1.070672 S    
C5    C15   1.391996 A    
O5    C3    1.281542 A    
C18   H8    1.084168 S    
C28   H15   1.104897 S    
C9    C22   1.484287 S    
C2    C24   1.354996 S    
O2    Zn2   1.924711 S    
C8    H6    1.084362 S    
C10   C21   1.484496 S    
C17   C22   1.372642 A    
C9    C11   1.423750 A    
C27   H17   1.110444 S    
C25   H13   1.109070 S    
C5    C7    1.377293 A    
C18   C21   1.377666 A    
O3    C1    1.273148 A    
C26   H10   1.110399 S    
C25   C26   1.520811 S    
O5    Zn1   1.990354 S    
O1    Zn1   1.924709 S    
C27   C28   1.528235 S    
C6    H4    1.066232 S    
C19   C21   1.406304 A    
C8    C10   1.393957 A    
C28   H16   1.106555 S    
C4    C19   1.419115 S    
C7    C9    1.394052 A    
C26   H9    1.104910 S    
Zn2   N1    1.994667 S    
C1    C23   1.355329 S    
O6    Zn2   1.990354 S    
C17   H7    1.085622 S    
C6    C8    1.380174 A    
C27   H18   1.108658 S    
C7    H5    1.084841 S    
Zn1   N2    1.994667 S    
C17   C19   1.393513 A    
C32   H24   1.111175 S    
O4    Zn1   1.949336 S    
C31   H28   1.108752 S    
C30   H19   1.104450 S    
C32   H25   1.111630 S    
O8    Zn1   2.016844 S    
C18   C20   1.399287 A    
