data_mof_unit_66408.cif
_audit_creation_date              2012-12-10T19:37:12-0500
_audit_creation_method            fapswitch 2.2
_symmetry_space_group_name_H-M    P1
_symmetry_Int_Tables_number       1
_space_group_crystal_system       triclinic
_cell_length_a                    14.349413
_cell_length_b                    15.882924
_cell_length_c                    17.122717
_cell_angle_alpha                 96.06536
_cell_angle_beta                  91.005996
_cell_angle_gamma                 91.951468
_cell_volume                      3877.47402954

loop_
_atom_site_label
_atom_site_type_symbol
_atom_type_description
_atom_site_fract_x
_atom_site_fract_y
_atom_site_fract_z
_atom_type_partial_charge
C1    C     C_R   0.499287 0.489774 0.348642 0.796277
C2    C     C_R   0.500700 0.510228 0.651358 0.796423
C3    C     C_R   0.488886 0.400911 0.135629 -0.200615
C4    C     C_R   0.511109 0.599103 0.864367 -0.201023
C5    C     C_R   0.489597 0.405533 0.217306 -0.202356
C6    C     C_R   0.510436 0.594474 0.782690 -0.202562
C7    C     C_R   0.453240 0.750802 0.460320 0.211164
C8    C     C_R   0.546689 0.249665 0.540011 0.272376
C9    C     C_R   0.457189 0.840302 0.459817 0.015675
C10   C     C_R   0.543891 0.160635 0.540839 -0.007394
C11   C     C_R   0.520194 0.889995 0.511830 0.331759
C12   C     C_R   0.481556 0.109764 0.488438 0.280686
C13   C     C_R   0.577212 0.847974 0.561212 -0.480508
C14   C     C_R   0.424428 0.151396 0.438694 -0.442475
C15   C     C_R   0.571715 0.758854 0.559901 0.566958
C16   C     C_R   0.429014 0.240586 0.439888 0.552963
C17   C     C_R   0.331019 0.500298 0.499869 0.817086
C18   C     C_R   0.668981 0.499702 0.500130 0.817039
C19   C     C_1   0.228742 0.500838 0.499887 -0.181862
C20   C     C_1   0.771258 0.499165 0.500113 -0.181593
C21   C     C_1   0.143349 0.500730 0.499916 -0.003975
C22   C     C_1   0.856651 0.499275 0.500083 -0.003441
C23   C     C_1   0.042705 0.500249 0.499972 0.007328
C24   C     C_1   0.957296 0.499758 0.500027 0.007585
C25   C     C_R   0.498682 0.484488 0.262623 -0.031414
C26   C     C_R   0.501267 0.515523 0.737376 -0.031920
C27   C     C_R   0.507105 0.558613 0.225077 -0.237404
C28   C     C_R   0.492706 0.441413 0.774927 -0.235822
C29   C     C_R   0.506405 0.553995 0.143560 -0.157282
C30   C     C_R   0.493375 0.446037 0.856444 -0.155311
C31   C     C_R   0.497223 0.474624 0.098008 0.386287
C32   C     C_R   0.502657 0.525402 0.901993 0.385486
Cu1   Cu    Cu3+1 0.495850 0.415220 0.496180 1.000456
Cu2   Cu    Cu3+1 0.504150 0.584780 0.503820 1.002196
H1    H     H_    0.485219 0.379720 0.741426 0.161433
H2    H     H_    0.514503 0.620316 0.258581 0.160097
H3    H     H_    0.486575 0.387522 0.883377 0.153422
H4    H     H_    0.513101 0.612523 0.116629 0.152438
H5    H     H_    0.481772 0.339598 0.101362 0.142285
H6    H     H_    0.518294 0.660410 0.898631 0.141862
H7    H     H_    0.482852 0.347346 0.244833 0.179453
H8    H     H_    0.517278 0.652647 0.755159 0.178857
H9    H     H_    0.626367 0.885007 0.600820 0.161645
H10   H     H_    0.375774 0.113984 0.398908 0.170203
N1    N     N_2   0.496054 0.465858 0.014735 -0.265865
N2    N     N_2   0.503819 0.534172 0.985266 -0.266141
N3    N     N_R   0.510380 0.712130 0.509560 -0.174779
N4    N     N_R   0.489620 0.287870 0.490440 -0.187251
N5    N     N_2   0.532604 0.980641 0.515439 -0.226918
N6    N     N_2   0.469182 0.019019 0.484765 -0.156483
O1    O     O_R   0.496120 0.420530 0.382500 -0.541510
O2    O     O_R   0.503880 0.579470 0.617500 -0.541716
O3    O     O_R   0.503120 0.563720 0.388950 -0.568650
O4    O     O_R   0.496880 0.436280 0.611050 -0.571837
O5    O     O_R   0.372550 0.428390 0.496770 -0.517461
O6    O     O_R   0.627450 0.571610 0.503230 -0.517223
O7    O     O_R   0.379550 0.571580 0.503220 -0.547183
O8    O     O_R   0.620450 0.428420 0.496780 -0.550978
N7    N     N_3   0.609917 0.300945 0.592060 -0.508379
H11   H     H_    0.595238 0.289833 0.649751 0.214098
H12   H     H_    0.677761 0.282169 0.580018 0.216828
N8    N     N_3   0.389460 0.699563 0.408710 -0.517541
H13   H     H_    0.321573 0.717900 0.421056 0.197981
H14   H     H_    0.403899 0.709437 0.350717 0.191488
N9    N     N_3   0.602796 0.125709 0.596874 -0.612099
H15   H     H_    0.651989 0.088043 0.567188 0.248382
H16   H     H_    0.561899 0.090050 0.632177 0.246187
N10   N     N_3   0.399759 0.879526 0.405607 -0.558564
H17   H     H_    0.329790 0.864760 0.415754 0.215701
H18   H     H_    0.415604 0.855573 0.348367 0.211854
O9    O     O_3   0.627912 0.717535 0.608485 -0.701577
H19   H     H_    0.668019 0.759946 0.641324 0.298899
O10   O     O_3   0.372661 0.281374 0.391001 -0.700609
H20   H     H_    0.333141 0.238599 0.358033 0.298867

loop_
_geom_bond_atom_site_label_1
_geom_bond_atom_site_label_2
_ccdc_geom_bond_type
C29   H4    S    
Cu1   O5    S    
Cu2   O7    S    
C3    C31   A    
C23   C24   T    
C8    N4    A    
C7    N8    S    
Cu2   O6    S    
N8    H13   S    
C11   N5    S    
C14   C16   A    
C18   O6    A    
C27   H2    S    
Cu1   O1    S    
C1    O1    A    
O10   H20   S    
C17   O5    A    
C26   C28   A    
Cu1   O8    S    
C15   N3    A    
C32   N2    S    
O9    H19   S    
C16   N4    A    
C28   C30   A    
Cu1   Cu2   S    
C9    N10   S    
C3    H5    S    
N7    H11   S    
C29   C31   A    
C4    C32   A    
N1    N2    D    
C1    C25   S    
C9    C11   A    
N8    H14   S    
C6    C26   A    
C2    O2    A    
C5    C25   A    
C10   C12   A    
C14   H10   S    
C17   C19   S    
C12   C14   A    
N9    H15   S    
C18   C20   S    
C13   C15   A    
C21   C23   S    
C31   N1    S    
C22   C24   S    
N7    H12   S    
C11   C13   A    
C25   C27   A    
C4    C6    A    
C16   O10   S    
C30   C32   A    
C3    C5    A    
C13   H9    S    
C2    O4    A    
C15   O9    S    
C27   C29   A    
C30   H3    S    
Cu2   O3    S    
N10   H18   S    
N5    N6    D    
C6    H8    S    
C10   N9    S    
C8    N7    S    
Cu1   O4    S    
C7    C9    A    
Cu1   N4    S    
C1    O3    A    
N10   H17   S    
C5    H7    S    
Cu2   N3    S    
C19   C21   T    
C17   O7    A    
Cu2   O2    S    
C12   N6    S    
C8    C10   A    
C18   O8    A    
C4    H6    S    
C28   H1    S    
C20   C22   T    
C2    C26   S    
N9    H16   S    
C7    N3    A    
