data_mof_unit_8182.cif
_audit_creation_date              2012-12-10T20:28:42-0500
_audit_creation_method            fapswitch 2.2
_symmetry_space_group_name_H-M    P1
_symmetry_Int_Tables_number       1
_space_group_crystal_system       triclinic
_cell_length_a                    10.632225
_cell_length_b                    10.663084
_cell_length_c                    9.860135
_cell_angle_alpha                 90.183229
_cell_angle_beta                  89.897071
_cell_angle_gamma                 89.829297
_cell_volume                      1117.85376449

loop_
_atom_site_label
_atom_site_type_symbol
_atom_type_description
_atom_site_fract_x
_atom_site_fract_y
_atom_site_fract_z
_atom_type_partial_charge
C1    C     C_R   0.505921 0.259725 0.499482 0.906963
C2    C     C_R   0.065324 0.611947 0.566206 0.096365
C3    C     C_R   0.128187 0.512362 0.499945 -0.098768
C4    C     C_R   0.064638 0.418633 0.429981 -0.222692
C5    C     C_R   0.936195 0.418731 0.429715 -0.209547
C6    C     C_R   0.871666 0.512552 0.499330 -0.090566
C7    C     C_R   0.535479 0.064277 0.621353 0.068301
C8    C     C_R   0.531495 0.128274 0.498392 -0.235826
C9    C     C_R   0.557696 0.062918 0.376382 0.512880
C10   C     C_R   0.555123 0.932737 0.378485 -0.319487
C11   C     C_R   0.531017 0.870631 0.500721 -0.177342
C12   C     C_R   0.260452 0.503690 0.500131 0.869063
C13   C     C_R   0.535918 0.936364 0.622630 0.110119
C14   C     C_3   0.452490 0.930496 0.744637 -0.453791
C15   C     C_3   0.451421 0.072615 0.742874 -0.445905
C16   C     C_R   0.440236 0.407037 0.071074 0.278798
C17   C     C_R   0.568385 0.585062 0.072139 -0.135419
C18   C     C_R   0.568400 0.585077 0.928102 -0.130790
C19   C     C_R   0.440090 0.407146 0.928491 0.206945
C20   C     C_3   0.303245 0.377352 0.923254 -0.515501
C21   C     C_3   0.303579 0.376807 0.077238 -0.509572
C22   C     C_R   0.505370 0.740020 0.500208 0.886054
C23   C     C_R   0.739516 0.503608 0.499873 0.854584
C24   C     C_R   0.129981 0.712443 0.628698 -0.190737
C25   C     C_R   0.063843 0.810175 0.690827 -0.141406
C26   C     C_R   0.932965 0.810318 0.690420 -0.139742
C27   C     C_R   0.867798 0.712736 0.627939 -0.190694
C28   C     C_R   0.933480 0.612084 0.565832 0.096572
H1    H     H_    0.357487 0.112884 0.718856 0.192753
H2    H     H_    0.499573 0.115176 0.831740 0.210554
H3    H     H_    0.621604 0.655253 0.126642 0.145852
H4    H     H_    0.621652 0.655243 0.873841 0.145320
H5    H     H_    0.246189 0.454881 0.879623 0.228583
H6    H     H_    0.285214 0.283435 0.878426 0.199271
H7    H     H_    0.246418 0.453801 0.122504 0.221383
H8    H     H_    0.286417 0.282473 0.121092 0.212428
H9    H     H_    0.231435 0.717599 0.628214 0.144826
H10   H     H_    0.881723 0.886891 0.737407 0.133398
H11   H     H_    0.766298 0.718269 0.627071 0.144050
H12   H     H_    0.886790 0.343975 0.377699 0.141620
H13   H     H_    0.561790 0.882070 0.283278 0.183601
H14   H     H_    0.359139 0.888729 0.722581 0.193430
N1    N     N_R   0.499160 0.499140 0.142800 -0.112157
N2    N     N_R   0.499160 0.499180 0.857150 -0.107559
O1    O     O_R   0.500020 0.316790 0.614690 -0.618668
O2    O     O_R   0.500000 0.316760 0.385350 -0.561008
O3    O     O_R   0.316770 0.500020 0.614690 -0.624218
O4    O     O_R   0.316760 0.499980 0.385350 -0.618342
O5    O     O_R   0.500000 0.683240 0.614650 -0.633350
O6    O     O_R   0.499980 0.683210 0.385310 -0.623870
O7    O     O_R   0.683240 0.500020 0.614650 -0.621856
O8    O     O_R   0.683230 0.499980 0.385310 -0.618147
Zn1   Zn    Zn3+2 0.500010 0.500020 0.653130 0.934203
Zn2   Zn    Zn3+2 0.499990 0.499980 0.346870 0.960776
H15   H     H_    0.114825 0.343841 0.378014 0.149373
H16   H     H_    0.501820 0.890801 0.834157 0.200158
H17   H     H_    0.114249 0.886688 0.738163 0.130911
O9    O     O_3   0.564967 0.123782 0.252965 -0.589102
C29   C     C_3   0.691558 0.124657 0.210448 -0.310098
H18   H     H_    0.753180 0.169859 0.287472 0.148749
H19   H     H_    0.698470 0.180502 0.115992 0.187002
H20   H     H_    0.725657 0.028231 0.187049 0.151273

loop_
_geom_bond_atom_site_label_1
_geom_bond_atom_site_label_2
_ccdc_geom_bond_type
C14   H16   S    
C17   N1    A    
C29   H18   S    
C16   C21   S    
C21   H7    S    
C18   N2    A    
C24   H9    S    
C1    C8    S    
C9    C10   A    
N1    Zn2   S    
C23   O7    A    
C19   C20   S    
C22   O6    A    
O3    Zn1   S    
C20   H6    S    
O2    Zn2   S    
C7    C15   S    
C17   C18   A    
C23   O8    A    
O1    Zn1   S    
C7    C8    A    
C21   H8    S    
C14   H14   S    
C24   C25   A    
C10   H13   S    
O4    Zn2   S    
C4    C5    A    
C11   C13   A    
C16   N1    A    
C1    O1    A    
C26   C27   A    
O6    Zn2   S    
C25   H17   S    
C12   O3    A    
O5    Zn1   S    
C6    C23   S    
C25   C26   A    
C12   O4    A    
O8    Zn2   S    
C15   H1    S    
C2    C3    A    
C16   C19   A    
C4    H15   S    
C2    C24   A    
C5    C6    A    
C17   H3    S    
C1    O2    A    
C29   H19   S    
C18   H4    S    
C10   C11   A    
C20   H5    S    
C3    C4    A    
C7    C13   A    
C19   N2    A    
C15   H2    S    
C20   C21   S    
C9    O9    S    
C5    H12   S    
C22   O5    A    
C27   C28   A    
C14   C15   S    
C26   H10   S    
C29   H20   S    
C2    C28   A    
C3    C12   S    
C11   C22   S    
O9    C29   S    
C13   C14   S    
N2    Zn1   S    
C6    C28   A    
C27   H11   S    
C8    C9    A    
O7    Zn1   S    
