data_mof_unit_11933.cif
_audit_creation_date              2012-12-10T17:15:49-0500
_audit_creation_method            fapswitch 2.2
_symmetry_space_group_name_H-M    P1
_symmetry_Int_Tables_number       1
_space_group_crystal_system       triclinic
_cell_length_a                    10.187986
_cell_length_b                    10.652387
_cell_length_c                    10.505098
_cell_angle_alpha                 90.703406
_cell_angle_beta                  94.789972
_cell_angle_gamma                 80.314502
_cell_volume                      1119.90273212

loop_
_atom_site_label
_atom_site_type_symbol
_atom_type_description
_atom_site_fract_x
_atom_site_fract_y
_atom_site_fract_z
_atom_type_partial_charge
C1    C     C_R   0.444401 0.504834 0.264786 0.801879
C2    C     C_R   0.555678 0.060997 0.616869 0.038702
C3    C     C_R   0.506342 0.127869 0.503797 -0.129842
C4    C     C_R   0.460758 0.068691 0.394549 -0.309665
C5    C     C_R   0.464422 0.938941 0.395445 0.519860
C6    C     C_R   0.498315 0.872908 0.511088 -0.243108
C7    C     C_2   0.414309 0.484311 0.127549 0.325430
C8    C     C_2   0.505766 0.402797 0.069209 -0.344587
C9    C     C_2   0.585652 0.448147 0.869987 0.200149
C10   C     C_2   0.496641 0.394253 0.929825 0.474595
C11   C     C_2   0.069728 0.493527 0.487806 -0.060431
C12   C     C_R   0.500681 0.260507 0.497641 0.878297
C13   C     C_2   0.923295 0.513915 0.509351 -0.147277
C14   C     C_R   0.555388 0.482398 0.734392 0.918967
C15   C     C_R   0.500359 0.739597 0.506062 1.057078
C16   C     C_R   0.616821 0.119439 0.722184 -0.128517
C17   C     C_R   0.659052 0.052353 0.834967 -0.240145
C18   C     C_R   0.632663 0.929722 0.847669 -0.261407
C19   C     C_R   0.567545 0.871699 0.745810 0.537309
C20   C     C_R   0.540770 0.932969 0.624758 -0.084477
H1    H     H_    0.426543 0.122575 0.307609 0.144074
H2    H     H_    0.881154 0.584880 0.575842 0.179528
H3    H     H_    0.104705 0.426154 0.414711 0.140100
H4    H     H_    0.882988 0.381244 0.385427 0.168021
H5    H     H_    0.634161 0.216402 0.717677 0.142557
H6    H     H_    0.707037 0.097622 0.914574 0.167877
H7    H     H_    0.658117 0.881048 0.938457 0.135474
H8    H     H_    0.598314 0.357197 0.120527 0.155799
N1    N     N_2   0.157290 0.551390 0.551110 -0.083754
N2    N     N_2   0.842740 0.448550 0.448960 -0.195038
O1    O     O_R   0.568950 0.489660 0.307530 -0.617351
O2    O     O_R   0.348880 0.522640 0.340350 -0.607766
O3    O     O_R   0.610060 0.300270 0.483590 -0.623224
O4    O     O_R   0.389990 0.333260 0.516410 -0.598097
O5    O     O_R   0.651120 0.477360 0.659650 -0.603371
O6    O     O_R   0.431050 0.510340 0.692470 -0.571681
O7    O     O_R   0.610010 0.666740 0.483590 -0.623491
O8    O     O_R   0.389940 0.699730 0.516410 -0.604413
Zn1   Zn    Zn3+2 0.646940 0.477980 0.478090 0.946143
Zn2   Zn    Zn3+2 0.353060 0.522020 0.521910 0.978363
O9    O     O_3   0.294599 0.535981 0.058368 -0.590076
C21   C     C_3   0.238517 0.656351 0.104285 -0.310258
H9    H     H_    0.314951 0.717536 0.129185 0.185560
H10   H     H_    0.179371 0.645982 0.186442 0.198177
H11   H     H_    0.168404 0.705983 0.027282 0.173588
C22   C     C_3   0.117763 0.639578 0.653342 -0.170349
C23   C     C_3   0.056043 0.772019 0.600258 -0.414567
C24   C     C_3   0.993723 0.857744 0.704402 -0.903923
H12   H     H_    0.911095 0.817024 0.741941 0.264887
H13   H     H_    0.069969 0.868024 0.784062 0.251756
H14   H     H_    0.952379 0.953511 0.664149 0.272579
H15   H     H_    0.134772 0.816708 0.560377 0.243357
H16   H     H_    0.977595 0.764657 0.521853 0.224514
H17   H     H_    0.051051 0.600825 0.715680 0.162695
H18   H     H_    0.207840 0.649046 0.716316 0.209984
O10   O     O_3   0.523381 0.759357 0.768183 -0.664934
C25   C     C_3   0.403548 0.788490 0.829130 -0.387770
H19   H     H_    0.321114 0.835731 0.761092 0.187946
H20   H     H_    0.413321 0.849220 0.915195 0.158744
H21   H     H_    0.376706 0.698703 0.862661 0.219987
O11   O     O_3   0.429982 0.876266 0.284636 -0.629340
C26   C     C_3   0.537540 0.863985 0.206360 -0.384194
H22   H     H_    0.519223 0.798198 0.126932 0.175947
H23   H     H_    0.634109 0.821953 0.259121 0.178770
H24   H     H_    0.545324 0.957311 0.163898 0.169405
O12   O     O_3   0.383972 0.360884 0.861752 -0.582253
C27   C     C_3   0.343130 0.256172 0.919047 -0.233815
H25   H     H_    0.274852 0.215092 0.848675 0.183645
H26   H     H_    0.286839 0.287132 0.003216 0.196583
H27   H     H_    0.428770 0.179346 0.946781 0.133899
O13   O     O_3   0.710395 0.453751 0.932603 -0.637524
C28   C     C_3   0.734829 0.579976 0.934968 -0.261076
H28   H     H_    0.652449 0.645679 0.976214 0.168370
H29   H     H_    0.752775 0.611826 0.838591 0.196605
H30   H     H_    0.827068 0.583823 0.997893 0.180518

loop_
_geom_bond_atom_site_label_1
_geom_bond_atom_site_label_2
_ccdc_geom_bond_type
C22   H18   S    
C19   O10   S    
C23   C24   S    
O5    Zn1   S    
C9    C14   S    
C15   O8    A    
C23   H15   S    
C6    C20   A    
O9    C21   S    
C19   C20   A    
C1    O1    A    
N1    C22   S    
C23   H16   S    
C27   H27   S    
C22   H17   S    
C24   H13   S    
C17   C18   A    
C6    C15   S    
C5    O11   S    
O13   C28   S    
O7    Zn1   S    
O3    Zn1   S    
O8    Zn2   S    
C4    H1    S    
C11   C13   S    
C25   H19   S    
C26   H22   S    
C21   H10   S    
C13   H2    S    
C28   H30   S    
O4    Zn2   S    
C17   H6    S    
N1    Zn2   S    
C8    C10   S    
C24   H12   S    
O1    Zn1   S    
N2    Zn1   S    
O12   C27   S    
C2    C3    A    
C10   O12   S    
C14   O6    A    
C5    C6    A    
C8    H8    S    
C16   C17   A    
H4    N2    S    
C25   H20   S    
C7    C8    D    
O11   C26   S    
C1    O2    A    
C12   O4    A    
C27   H25   S    
C9    C10   D    
C9    O13   S    
C13   N2    D    
O6    Zn2   S    
O2    Zn2   S    
C2    C16   A    
O10   C25   S    
C11   N1    D    
C28   H29   S    
C18   C19   A    
C21   H9    S    
C11   H3    S    
C16   H5    S    
C22   C23   S    
C4    C5    A    
C25   H21   S    
C26   H23   S    
C3    C12   S    
C26   H24   S    
C12   O3    A    
C1    C7    S    
C2    C20   A    
C14   O5    A    
C24   H14   S    
C15   O7    A    
C18   H7    S    
C3    C4    A    
C7    O9    S    
C28   H28   S    
C27   H26   S    
C21   H11   S    
