data_mof_unit_59333.cif
_audit_creation_date              2012-12-10T19:27:27-0500
_audit_creation_method            fapswitch 2.2
_symmetry_space_group_name_H-M    P1
_symmetry_Int_Tables_number       1
_space_group_crystal_system       triclinic
_cell_length_a                    23.347971
_cell_length_b                    10.471368
_cell_length_c                    9.90177
_cell_angle_alpha                 88.269147
_cell_angle_beta                  88.139393
_cell_angle_gamma                 89.290267
_cell_volume                      2418.29827382

loop_
_atom_site_label
_atom_site_type_symbol
_atom_type_description
_atom_site_fract_x
_atom_site_fract_y
_atom_site_fract_z
_atom_type_partial_charge
C1    C     C_R   0.498898 0.258017 0.501783 0.854583
C2    C     C_R   0.501079 0.741984 0.498246 0.859438
C3    C     C_R   0.239589 0.558045 0.624998 -0.126433
C4    C     C_R   0.754916 0.422855 0.632470 -0.120313
C5    C     C_R   0.298357 0.567169 0.607918 -0.233391
C6    C     C_R   0.696392 0.425294 0.617047 -0.222694
C7    C     C_R   0.327365 0.497700 0.508598 -0.054335
C8    C     C_R   0.672814 0.482644 0.501604 -0.061032
C9    C     C_R   0.296853 0.422427 0.421700 -0.250832
C10   C     C_R   0.708994 0.529239 0.396357 -0.261962
C11   C     C_R   0.236986 0.413537 0.436206 0.151206
C12   C     C_R   0.768793 0.525926 0.409756 0.159634
C13   C     C_R   0.208472 0.481671 0.540943 0.284633
C14   C     C_R   0.791344 0.475079 0.531652 0.289332
C15   C     C_3   0.484171 0.034227 0.625999 -0.158890
C16   C     C_3   0.515769 0.965787 0.374209 -0.157332
C17   C     C_3   0.538027 0.954221 0.588761 -0.169924
C18   C     C_3   0.461912 0.045786 0.411455 -0.168850
C19   C     C_3   0.501444 0.877453 0.495820 0.034438
C20   C     C_3   0.498500 0.122553 0.504357 0.037323
C21   C     C_3   0.447699 0.954835 0.533048 -0.178264
C22   C     C_3   0.552243 0.045162 0.467161 -0.178656
C23   C     C_R   0.389679 0.499557 0.501965 0.861665
C24   C     C_R   0.610455 0.496574 0.498762 0.864818
C25   C     C_3   0.468635 0.411396 0.052680 0.132958
C26   C     C_3   0.531150 0.588735 0.947325 0.125753
C27   C     C_3   0.519444 0.392160 0.953877 0.074398
C28   C     C_3   0.480529 0.607868 0.046221 0.071272
C29   C     C_3   0.448716 0.517649 0.956062 0.106079
C30   C     C_3   0.551276 0.482420 0.043872 0.107067
C31   C     C_R   0.877591 0.592763 0.565002 0.491633
C32   C     C_R   0.120251 0.371761 0.601230 0.485613
C33   C     C_R   0.880850 0.364663 0.571128 0.500496
C34   C     C_R   0.117913 0.593445 0.537294 0.506335
C35   C     C_R   0.939809 0.365171 0.589563 -0.019882
C36   C     C_R   0.058411 0.596961 0.553677 -0.048500
C37   C     C_R   0.968826 0.482265 0.579454 -0.045677
C38   C     C_R   0.029094 0.482001 0.579941 -0.061961
C39   C     C_R   0.937771 0.598953 0.565742 -0.049689
C40   C     C_R   0.060022 0.366647 0.603257 -0.011135
C41   C     C_R   0.970298 0.250997 0.613059 -0.222700
C42   C     C_R   0.027922 0.712327 0.540311 -0.139839
C43   C     C_R   0.029846 0.250811 0.623046 0.111576
C44   C     C_R   0.968318 0.715393 0.548977 0.087357
H1    H     H_    0.948103 0.160738 0.623319 0.191079
H2    H     H_    0.050348 0.801599 0.522501 0.192662
H3    H     H_    0.217700 0.612167 0.703030 0.156668
H4    H     H_    0.772266 0.380997 0.723848 0.150652
H5    H     H_    0.321201 0.629624 0.671591 0.150474
H6    H     H_    0.669308 0.383338 0.696708 0.150892
H7    H     H_    0.319756 0.368416 0.344954 0.153280
H8    H     H_    0.690739 0.570815 0.306184 0.151099
H9    H     H_    0.569762 0.913205 0.659433 0.141024
H10   H     H_    0.430147 0.086946 0.340968 0.134135
H11   H     H_    0.469476 0.062711 0.728231 0.133668
H12   H     H_    0.530475 0.937172 0.272058 0.132578
H13   H     H_    0.405114 0.913252 0.559395 0.130896
H14   H     H_    0.594832 0.086726 0.440822 0.132949
N1    N     N_R   0.851403 0.477405 0.555870 -0.354023
N2    N     N_R   0.147416 0.481536 0.558943 -0.359566
N3    N     N_3   0.499960 0.500030 0.863290 -0.129781
N4    N     N_3   0.500040 0.499970 0.136710 -0.129206
O1    O     O_R   0.500000 0.313960 0.616610 -0.638933
O2    O     O_R   0.500000 0.686040 0.383390 -0.639154
O3    O     O_R   0.500030 0.313950 0.383350 -0.625956
O4    O     O_R   0.499970 0.686050 0.616650 -0.623918
O5    O     O_R   0.416140 0.499970 0.616650 -0.634142
O6    O     O_R   0.583860 0.500030 0.383350 -0.636103
O7    O     O_R   0.416170 0.499960 0.383400 -0.606017
O8    O     O_R   0.583830 0.500040 0.616600 -0.605326
O9    O     O_2   0.845032 0.699622 0.571808 -0.592990
O10   O     O_2   0.151771 0.268105 0.637152 -0.538938
O11   O     O_2   0.853148 0.252537 0.566581 -0.569795
O12   O     O_2   0.146228 0.700813 0.498571 -0.567657
Zn1   Zn    Zn3+2 0.499980 0.500010 0.655740 0.922521
Zn2   Zn    Zn3+2 0.500020 0.499990 0.344260 0.920741
C45   C     C_3   0.539091 0.263778 0.897412 -0.373266
C46   C     C_3   0.563455 0.170959 0.004861 -0.391139
C47   C     C_3   0.579604 0.042734 0.944366 -0.907234
H15   H     H_    0.541313 0.997751 0.903672 0.261948
H16   H     H_    0.612589 0.055803 0.861885 0.270126
H17   H     H_    0.597186 0.977852 0.023958 0.247629
H18   H     H_    0.602172 0.210138 0.048869 0.230218
H19   H     H_    0.531811 0.154273 0.088691 0.218931
H20   H     H_    0.501166 0.219875 0.854494 0.209947
H21   H     H_    0.571876 0.281121 0.815386 0.218349
C48   C     C_3   0.462074 0.736899 0.103784 -0.373613
C49   C     C_3   0.434262 0.828584 0.000233 -0.392722
C50   C     C_3   0.420203 0.957407 0.061665 -0.909118
H22   H     H_    0.389165 0.945356 0.148392 0.269504
H23   H     H_    0.459641 0.001663 0.096844 0.262354
H24   H     H_    0.400967 0.022244 0.984299 0.250070
H25   H     H_    0.463011 0.844163 0.910389 0.219061
H26   H     H_    0.393707 0.789321 0.965871 0.238414
H27   H     H_    0.431619 0.720222 0.190704 0.228513
H28   H     H_    0.501069 0.781683 0.140562 0.204925
N5    N     N_3   0.430856 0.314737 0.114074 -0.456250
H29   H     H_    0.415354 0.261315 0.035980 0.157998
H30   H     H_    0.455253 0.252711 0.173365 0.201162
N6    N     N_3   0.567871 0.687279 0.885553 -0.442959
H31   H     H_    0.584593 0.738761 0.963657 0.159551
H32   H     H_    0.542342 0.750639 0.830554 0.200142
C51   C     C_3   0.388038 0.531964 0.904514 -0.373832
C52   C     C_3   0.343342 0.546997 0.020285 -0.368454
C53   C     C_3   0.285415 0.589851 0.967260 -0.909141
H33   H     H_    0.289811 0.678852 0.904132 0.261001
H34   H     H_    0.267133 0.513273 0.907250 0.274839
H35   H     H_    0.255526 0.610548 0.053336 0.260532
H36   H     H_    0.338532 0.454520 0.076533 0.233219
H37   H     H_    0.356926 0.617846 0.093037 0.238712
H38   H     H_    0.387323 0.616627 0.834833 0.203942
H39   H     H_    0.377631 0.445579 0.848241 0.220637
C54   C     C_3   0.612420 0.474741 0.093812 -0.376923
C55   C     C_3   0.656693 0.456497 0.977641 -0.378760
C56   C     C_3   0.717274 0.466504 0.027147 -0.905125
H40   H     H_    0.724325 0.564874 0.061158 0.266960
H41   H     H_    0.724196 0.396021 0.111315 0.268708
H42   H     H_    0.748693 0.446756 0.943921 0.255864
H43   H     H_    0.652072 0.361531 0.933583 0.220661
H44   H     H_    0.650944 0.529882 0.896048 0.262806
H45   H     H_    0.620921 0.565851 0.143532 0.207148
H46   H     H_    0.616053 0.394413 0.168800 0.213731
N7    N     N_3   0.059182 0.131559 0.646720 -0.373869
H47   H     H_    0.043177 0.091124 0.737921 0.188752
H48   H     H_    0.049462 0.070273 0.569418 0.189382
N8    N     N_3   0.940902 0.837906 0.532899 -0.459639
H49   H     H_    0.916605 0.857364 0.620524 0.241434
H50   H     H_    0.914832 0.837520 0.449052 0.232658
C57   C     C_3   0.205530 0.330514 0.340368 -0.396732
C58   C     C_3   0.206588 0.388496 0.196765 -0.403202
C59   C     C_3   0.171435 0.310264 0.102441 -0.816238
H51   H     H_    0.188434 0.210830 0.098585 0.267493
H52   H     H_    0.125778 0.308517 0.137663 0.260492
H53   H     H_    0.173976 0.354046 0.998863 0.261380
H54   H     H_    0.188943 0.487566 0.198371 0.243277
H55   H     H_    0.251341 0.390642 0.156817 0.236690
H56   H     H_    0.225960 0.234012 0.340193 0.212966
H57   H     H_    0.160174 0.316926 0.371986 0.224535
C60   C     C_3   0.807489 0.571613 0.292454 -0.422102
C61   C     C_3   0.797816 0.713726 0.256012 -0.327560
C62   C     C_3   0.839335 0.758606 0.142702 -0.861410
H58   H     H_    0.884292 0.747336 0.175003 0.262518
H59   H     H_    0.833428 0.702608 0.050735 0.269081
H60   H     H_    0.831074 0.861105 0.117579 0.257010
H61   H     H_    0.753379 0.730397 0.222280 0.207312
H62   H     H_    0.804019 0.772393 0.345740 0.271950
H63   H     H_    0.853371 0.555252 0.313497 0.204701
H64   H     H_    0.799629 0.513192 0.203938 0.200928

loop_
_geom_bond_atom_site_label_1
_geom_bond_atom_site_label_2
_ccdc_geom_bond_type
C38   C40   A    
C48   C49   S    
N8    H49   S    
C43   N7    S    
C18   C21   S    
C23   O7    A    
C36   C42   A    
C58   H54   S    
C9    H7    S    
C59   H53   S    
C10   H8    S    
N5    H29   S    
C24   O8    A    
N7    H47   S    
C32   O10   S    
C13   N2    S    
C45   C46   S    
N3    Zn1   S    
C14   N1    S    
C53   H34   S    
C60   H63   S    
O3    Zn2   S    
C28   C29   S    
C35   C37   A    
C26   N3    S    
C57   C58   S    
C62   H59   S    
C52   H36   S    
N7    H48   S    
C31   N1    A    
C56   H40   S    
C1    O1    A    
C29   C51   S    
O7    Zn2   S    
C51   H38   S    
C42   H2    S    
C23   O5    A    
C27   N3    S    
C33   C35   A    
C2    O4    A    
C46   H18   S    
C40   C43   A    
C57   H57   S    
C56   H41   S    
C48   H27   S    
C1    O3    A    
C50   H23   S    
C18   C20   S    
C55   H43   S    
C3    C13   A    
C3    C5    A    
C31   O9    S    
C45   H20   S    
C33   N1    A    
C27   C30   S    
C34   N2    A    
C41   C43   A    
N4    Zn2   S    
C42   C44   A    
C11   C57   S    
C52   C53   S    
N5    H30   S    
C2    O2    A    
C55   C56   S    
C49   H26   S    
C25   C29   S    
C15   C20   S    
C53   H35   S    
C29   N3    S    
C60   H64   S    
C54   H46   S    
C61   C62   S    
C4    C6    A    
C62   H60   S    
C61   H62   S    
C5    C7    A    
C24   O6    A    
C46   C47   S    
C17   C19   S    
C6    C8    A    
C27   C45   S    
C16   C22   S    
C51   H39   S    
C15   H11   S    
C16   H12   S    
C21   H13   S    
C37   C38   A    
C56   H42   S    
C44   N8    S    
C48   H28   S    
C28   C48   S    
N6    H32   S    
O2    Zn2   S    
C12   C60   S    
C57   H56   S    
C16   C18   S    
O6    Zn2   S    
C6    H6    S    
C50   H24   S    
C9    C11   A    
C10   C12   A    
C34   O12   S    
C33   O11   S    
C12   C14   A    
C45   H21   S    
C26   C30   S    
C30   N4    S    
O5    Zn1   S    
C32   N2    A    
C59   H51   S    
C17   H9    S    
C51   C52   S    
C47   H16   S    
C54   C55   S    
C4    H4    S    
C25   N5    S    
C7    C9    A    
C49   H25   S    
C1    C20   S    
N8    H50   S    
C19   C21   S    
C2    C19   S    
C58   H55   S    
C20   C22   S    
C59   H52   S    
C61   H61   S    
C22   H14   S    
C47   H17   S    
C60   C61   S    
C15   C17   S    
C39   C44   A    
C25   C27   S    
C53   H33   S    
C26   C28   S    
C17   C22   S    
C36   C38   A    
C58   C59   S    
C37   C39   A    
C62   H58   S    
C52   H37   S    
C11   C13   A    
O1    Zn1   S    
C16   C19   S    
C7    C23   S    
O4    Zn1   S    
C3    H3    S    
N6    H31   S    
C8    C24   S    
C31   C39   A    
C34   C36   A    
C25   N4    S    
C32   C40   A    
C4    C14   A    
C35   C41   A    
C5    H5    S    
C18   H10   S    
C47   H15   S    
C46   H19   S    
C15   C21   S    
C54   H45   S    
C49   C50   S    
C8    C10   A    
O8    Zn1   S    
C41   H1    S    
C50   H22   S    
C55   H44   S    
C26   N6    S    
C30   C54   S    
C28   N4    S    
