data_mof_unit_43911.cif
_audit_creation_date              2012-12-10T17:20:52-0500
_audit_creation_method            fapswitch 2.2
_symmetry_space_group_name_H-M    P1
_symmetry_Int_Tables_number       1
_space_group_crystal_system       triclinic
_cell_length_a                    14.315556
_cell_length_b                    10.898825
_cell_length_c                    9.658988
_cell_angle_alpha                 90.215827
_cell_angle_beta                  90.420271
_cell_angle_gamma                 93.022687
_cell_volume                      1504.8715966

loop_
_atom_site_label
_atom_site_type_symbol
_atom_type_description
_atom_site_fract_x
_atom_site_fract_y
_atom_site_fract_z
_atom_type_partial_charge
C1    C     C_R   0.501435 0.262367 0.500606 0.809209
C2    C     C_1   0.770921 0.497598 0.500352 -0.188137
C3    C     C_R   0.554699 0.119399 0.751376 -0.335586
C4    C     C_R   0.539926 0.063558 0.880543 0.414000
C5    C     C_R   0.487990 0.951184 0.887635 0.426378
C6    C     C_R   0.469873 0.885731 0.763662 -0.298468
C7    C     C_R   0.493175 0.937223 0.633710 0.050206
C8    C     C_R   0.518706 0.063051 0.628471 0.011359
C9    C     C_R   0.500219 0.127384 0.503563 -0.102534
C10   C     C_R   0.468436 0.059420 0.385583 -0.016207
C11   C     C_R   0.474444 0.933192 0.384294 -0.303545
C12   C     C_R   0.331328 0.499313 0.499563 0.818312
C13   C     C_R   0.486748 0.870244 0.507465 -0.082126
C14   C     C_R   0.656437 0.607495 0.142730 0.104020
C15   C     C_R   0.742034 0.600452 0.076461 -0.259341
C16   C     C_R   0.742478 0.606668 0.933631 -0.382836
C17   C     C_R   0.656185 0.612238 0.862457 0.533899
C18   C     C_R   0.575411 0.555654 0.926802 0.112578
C19   C     C_R   0.575176 0.555361 0.075271 -0.051911
C20   C     C_R   0.427644 0.445937 0.073353 0.570156
C21   C     C_R   0.429529 0.444558 0.924400 -0.175629
C22   C     C_R   0.494592 0.736862 0.501451 0.807730
C23   C     C_R   0.668585 0.498871 0.500261 0.830015
C24   C     C_1   0.228916 0.498908 0.498601 -0.193940
C25   C     C_1   0.143398 0.498531 0.498248 -0.012853
C26   C     C_1   0.042653 0.498070 0.498432 -0.001847
C27   C     C_1   0.957132 0.497700 0.498963 -0.002412
C28   C     C_1   0.856405 0.497402 0.499777 -0.019303
Cu1   Cu    Cu3+1 0.499990 0.499990 0.640660 0.960754
Cu2   Cu    Cu3+1 0.500010 0.500010 0.359340 0.998905
H1    H     H_    0.809187 0.628582 0.885886 0.165109
H2    H     H_    0.375179 0.396054 0.865171 0.148910
H3    H     H_    0.593309 0.207143 0.750501 0.191034
H4    H     H_    0.430902 0.799339 0.768415 0.183001
H5    H     H_    0.460022 0.882910 0.289686 0.176902
H6    H     H_    0.806959 0.623636 0.131333 0.200717
N1    N     N_R   0.500820 0.501210 0.147910 -0.217261
N2    N     N_R   0.500850 0.501290 0.852040 -0.202709
O1    O     O_R   0.499990 0.319640 0.618810 -0.587557
O2    O     O_R   0.500000 0.319660 0.381240 -0.525825
O3    O     O_R   0.376050 0.499990 0.618810 -0.580194
O4    O     O_R   0.376060 0.500010 0.381240 -0.516158
O5    O     O_R   0.500000 0.680340 0.618760 -0.530921
O6    O     O_R   0.500010 0.680360 0.381190 -0.613147
O7    O     O_R   0.623940 0.499990 0.618760 -0.550004
O8    O     O_R   0.623950 0.500010 0.381190 -0.555839
C29   C     C_2   0.414727 0.112369 0.271873 0.424551
H7    H     H_    0.430597 0.092154 0.165550 0.153080
O9    O     O_2   0.347207 0.172050 0.297753 -0.534518
O10   O     O_3   0.642616 0.694253 0.754773 -0.579450
C30   C     C_3   0.723288 0.755993 0.698981 0.087088
H8    H     H_    0.703997 0.785486 0.593134 0.201246
H9    H     H_    0.782226 0.695460 0.683660 0.125544
C31   C     C_3   0.751558 0.872053 0.782465 -0.406212
H10   H     H_    0.690380 0.929711 0.790825 0.226358
H11   H     H_    0.774102 0.847821 0.888504 0.225487
C32   C     C_3   0.831068 0.946592 0.712873 -0.891538
H12   H     H_    0.893755 0.891197 0.704646 0.260598
H13   H     H_    0.849598 0.030134 0.775465 0.247897
H14   H     H_    0.809316 0.975487 0.607787 0.267024
O11   O     O_3   0.562178 0.128289 0.000821 -0.613477
C33   C     C_3   0.660045 0.135063 0.023312 0.031557
H15   H     H_    0.678287 0.222801 0.078535 0.178398
H16   H     H_    0.701725 0.137283 0.926075 0.124937
C34   C     C_3   0.687734 0.028522 0.115012 -0.323439
H17   H     H_    0.647782 0.029722 0.213203 0.236984
H18   H     H_    0.669958 0.940288 0.060866 0.211648
C35   C     C_3   0.792188 0.036977 0.148405 -0.903405
H19   H     H_    0.833529 0.034535 0.051680 0.252358
H20   H     H_    0.810093 0.957986 0.213898 0.286882
H21   H     H_    0.811137 0.123389 0.205718 0.254359
O12   O     O_3   0.462358 0.905906 0.017558 -0.642553
C36   C     C_3   0.372501 0.843651 0.019570 0.009194
H22   H     H_    0.358676 0.813921 0.127435 0.161181
H23   H     H_    0.370757 0.756281 0.960367 0.133326
C37   C     C_3   0.293220 0.926242 0.976438 -0.364706
H24   H     H_    0.294684 0.009099 0.043721 0.230923
H25   H     H_    0.301940 0.956797 0.867578 0.214750
C38   C     C_3   0.197872 0.858170 0.988783 -0.903975
H26   H     H_    0.193627 0.777440 0.918066 0.258884
H27   H     H_    0.142063 0.920375 0.959548 0.258886
H28   H     H_    0.186026 0.827119 0.096952 0.259894
O13   O     O_3   0.358065 0.382228 0.147752 -0.548067
C39   C     C_3   0.266596 0.387209 0.091567 0.072587
H29   H     H_    0.219622 0.332664 0.161879 0.205702
H30   H     H_    0.258887 0.339900 0.990003 0.107799
C40   C     C_3   0.232262 0.518473 0.086870 -0.411612
H31   H     H_    0.245641 0.564631 0.188338 0.239183
H32   H     H_    0.270485 0.572277 0.005890 0.193940
C41   C     C_3   0.127675 0.517061 0.054320 -0.893913
H33   H     H_    0.104130 0.612388 0.052792 0.259068
H34   H     H_    0.087306 0.465009 0.134730 0.260110
H35   H     H_    0.112922 0.474164 0.951415 0.257590
C42   C     C_2   0.651199 0.718330 0.229163 0.411147
H36   H     H_    0.595140 0.779455 0.211404 0.088696
O14   O     O_2   0.711993 0.746409 0.314614 -0.608893

loop_
_geom_bond_atom_site_label_1
_geom_bond_atom_site_label_2
_ccdc_geom_bond_type
C40   H31   S    
C23   O7    A    
C36   H22   S    
C37   C38   S    
C41   H33   S    
C7    C8    A    
C29   O9    D    
C16   H1    S    
C26   C27   T    
C33   H15   S    
C39   H30   S    
C5    O12   S    
C5    C6    A    
C32   H13   S    
C3    H3    S    
C15   C16   A    
C18   C19   A    
C12   O4    A    
C19   N1    A    
C1    O2    A    
C35   H19   S    
C22   O6    A    
C21   N2    A    
C29   H7    S    
C8    C9    A    
C34   H18   S    
Cu1   N2    S    
C33   H16   S    
C39   C40   S    
C9    C10   A    
C23   O8    A    
Cu1   O5    S    
C36   H23   S    
Cu2   O6    S    
C42   H36   S    
C17   C18   A    
C37   H24   S    
C21   H2    S    
C31   H11   S    
C30   H8    S    
C1    C9    S    
C24   C25   T    
C3    C8    A    
C38   H27   S    
C16   C17   A    
C32   H14   S    
C25   C26   S    
C4    O11   S    
C6    H4    S    
Cu2   N1    S    
Cu1   O7    S    
C30   H9    S    
Cu1   Cu2   S    
C41   H34   S    
O13   C39   S    
C7    C13   A    
C34   C35   S    
Cu1   O1    S    
O10   C30   S    
Cu2   O2    S    
C39   H29   S    
C42   O14   D    
C40   H32   S    
C36   C37   S    
C20   O13   S    
C3    C4    A    
C15   H6    S    
C2    C23   S    
C41   H35   S    
C31   H10   S    
C33   C34   S    
Cu1   O3    S    
C14   C19   A    
Cu2   O8    S    
C37   H25   S    
O12   C36   S    
C17   O10   S    
C38   H28   S    
C6    C7    A    
C12   O3    A    
C12   C24   S    
C30   C31   S    
C11   H5    S    
C18   N2    A    
C20   N1    A    
C11   C13   A    
C32   H12   S    
C35   H21   S    
C13   C22   S    
O11   C33   S    
C10   C11   A    
C1    O1    A    
C38   H26   S    
C4    C5    A    
C20   C21   A    
C35   H20   S    
C34   H17   S    
C40   C41   S    
C10   C29   S    
C14   C15   A    
Cu2   O4    S    
C2    C28   T    
C14   C42   S    
C22   O5    A    
C27   C28   S    
C31   C32   S    
