data_mof_unit_44582.cif
_audit_creation_date              2012-12-11T17:17:07-0500
_audit_creation_method            fapswitch 2.2
_symmetry_space_group_name_H-M    P1
_symmetry_Int_Tables_number       1
_space_group_crystal_system       triclinic
_cell_length_a                    6.941212
_cell_length_b                    13.377495
_cell_length_c                    14.672093
_cell_angle_alpha                 98.945188
_cell_angle_beta                  89.803131
_cell_angle_gamma                 90.325977
_cell_volume                      1345.7959807

loop_
_atom_site_label
_atom_site_type_symbol
_atom_type_description
_atom_site_fract_x
_atom_site_fract_y
_atom_site_fract_z
_atom_type_partial_charge
O1    O     O_R   0.354890 0.151580 0.148210 -0.537163
O2    O     O_R   0.645110 0.848420 0.851790 -0.539159
O3    O     O_R   0.682370 0.152980 0.336770 -0.544177
O4    O     O_R   0.317630 0.847020 0.663230 -0.544504
O5    O     O_R   0.854980 0.348430 0.351800 -0.533005
O6    O     O_R   0.145020 0.651570 0.648200 -0.537019
C1    C     C_R   0.513282 0.131304 0.366476 0.676165
C2    C     C_R   0.486694 0.868762 0.633603 0.671404
O7    O     O_R   0.684450 0.139580 0.148000 -0.544670
O8    O     O_R   0.315550 0.860420 0.852000 -0.533019
O9    O     O_R   0.857080 0.334940 0.161680 -0.528384
O10   O     O_R   0.142920 0.665060 0.838320 -0.533427
C3    C     C_R   0.515548 0.112805 0.113930 0.733807
C4    C     C_R   0.484549 0.887327 0.885963 0.744104
O11   O     O_R   0.352790 0.165070 0.338330 -0.541471
O12   O     O_R   0.647210 0.834930 0.661670 -0.542512
O13   O     O_3   0.522170 0.314120 0.254710 -0.360615
O14   O     O_3   0.477830 0.685880 0.745290 -0.368138
V1    V     V_3+5 0.796120 0.238110 0.249130 1.434525
V2    V     V_3+5 0.203880 0.761890 0.750870 1.432540
O15   O     O_R   0.186930 0.347040 0.163240 -0.543741
O16   O     O_R   0.813070 0.652960 0.836760 -0.545089
C5    C     C_R   0.018681 0.366765 0.132445 0.745340
C6    C     C_R   0.981409 0.631684 0.866380 0.785972
O17   O     O_R   0.184850 0.360440 0.352010 -0.538391
O18   O     O_R   0.815150 0.639560 0.647990 -0.537656
C7    C     C_R   0.015858 0.387469 0.385867 0.744639
C8    C     C_R   0.984133 0.612737 0.613967 0.741372
V3    V     V_3+5 0.296410 0.261900 0.250880 1.433238
V4    V     V_3+5 0.703590 0.738100 0.749120 1.430456
O19   O     O_3   0.020490 0.185890 0.245290 -0.377278
O20   O     O_3   0.979510 0.814110 0.754710 -0.375695
C9    C     C_1   0.005211 0.467094 0.466180 -0.179942
C10   C     C_1   0.994820 0.533253 0.533533 -0.177449
C11   C     C_3   0.089629 0.582096 0.030753 0.397016
C12   C     C_3   0.911910 0.409511 0.962307 0.461768
C13   C     C_3   0.914276 0.536754 0.073553 0.284190
C14   C     C_3   0.085293 0.456289 0.918753 0.290450
C15   C     C_3   0.009443 0.431748 0.058279 -0.222360
C16   C     C_3   0.990154 0.560783 0.935722 -0.213383
C17   C     C_3   0.188867 0.476929 0.013685 -0.394691
C18   C     C_3   0.812968 0.514842 0.979053 -0.295454
H1    H     H_    0.341317 0.457311 0.024560 0.161492
H2    H     H_    0.659377 0.530350 0.966036 0.141740
C19   C     C_3   0.319290 0.026825 0.482249 -0.114169
C20   C     C_3   0.680519 0.973305 0.517937 -0.115349
C21   C     C_3   0.396589 0.917057 0.467980 -0.143906
C22   C     C_3   0.603188 0.083073 0.532213 -0.136702
H3    H     H_    0.310846 0.848279 0.442063 0.110178
H4    H     H_    0.688434 0.151997 0.558315 0.110326
H5    H     H_    0.170143 0.048975 0.467297 0.110760
H6    H     H_    0.829649 0.951136 0.532905 0.110289
C23   C     C_3   0.495768 0.938817 0.562780 -0.007598
C24   C     C_3   0.504061 0.061306 0.437391 -0.007650
C25   C     C_3   0.418385 0.047765 0.577856 -0.138792
C26   C     C_3   0.581398 0.952346 0.422334 -0.140482
H7    H     H_    0.351357 0.086751 0.642446 0.111508
H8    H     H_    0.648542 0.913471 0.357745 0.100246
C27   C     C_1   0.505094 0.033201 0.033590 -0.200290
C28   C     C_1   0.495365 0.966928 0.966295 -0.191638
O21   O     O_3   0.823664 0.579405 0.155519 -0.659166
H9    H     H_    0.787087 0.648648 0.146334 0.285708
O22   O     O_3   0.172734 0.415432 0.835373 -0.647881
H10   H     H_    0.289882 0.457081 0.830733 0.296870
O23   O     O_3   0.166835 0.678715 0.065138 -0.576605
C29   C     C_3   0.321045 0.672264 0.126700 0.084863
H11   H     H_    0.399726 0.745636 0.134324 0.134963
H12   H     H_    0.428092 0.614000 0.098702 0.121972
C30   C     C_3   0.249105 0.656173 0.222496 -0.299384
H13   H     H_    0.140673 0.714876 0.247849 0.204320
H14   H     H_    0.180518 0.580510 0.218359 0.213862
C31   C     C_3   0.413984 0.662159 0.291656 -0.833146
H15   H     H_    0.517686 0.599946 0.270494 0.269892
H16   H     H_    0.355824 0.654208 0.360788 0.224971
H17   H     H_    0.489985 0.736066 0.296589 0.222814
O24   O     O_3   0.803806 0.325722 0.918121 -0.565588
C32   C     C_3   0.882417 0.231524 0.930555 0.087386
H18   H     H_    0.766272 0.174242 0.913367 0.145828
H19   H     H_    0.921294 0.227780 0.002875 0.091731
C33   C     C_3   0.054015 0.201333 0.866267 -0.318601
H20   H     H_    0.021693 0.217909 0.796005 0.233657
H21   H     H_    0.183389 0.245154 0.893398 0.217672
C34   C     C_3   0.099018 0.088919 0.860025 -0.803412
H22   H     H_    0.127256 0.070039 0.929827 0.234778
H23   H     H_    0.228830 0.070276 0.816368 0.220683
H24   H     H_    0.976365 0.042310 0.828513 0.233254

loop_
_geom_bond_atom_site_label_1
_geom_bond_atom_site_label_2
_ccdc_geom_bond_type
C22   C25   S    
C29   H12   S    
O13   V3    S    
C12   C18   S    
O4    C2    A    
V1    O19   S    
C21   H3    S    
C32   H18   S    
C7    C9    S    
C22   C24   S    
O9    V1    S    
C11   C13   S    
O3    C1    A    
C33   C34   S    
C29   C30   S    
C19   H5    S    
O12   V4    S    
C20   H6    S    
C19   C21   S    
O9    C5    A    
C13   C18   S    
C30   H14   S    
O7    C3    A    
C12   O24   S    
O13   V1    S    
O5    C7    A    
O7    V1    S    
O6    C8    A    
O8    V2    S    
O3    V1    S    
O14   V4    S    
V4    O20   S    
C21   C23   S    
C16   C18   S    
C29   H11   S    
C8    C10   S    
C27   C28   T    
C2    O12   A    
C17   H1    S    
O21   H9    S    
C18   H2    S    
C31   H17   S    
O2    C4    A    
O11   V3    S    
C20   C22   S    
C23   C25   S    
O17   V3    S    
C24   C26   S    
O24   C32   S    
C14   C17   S    
C33   H21   S    
O8    C4    A    
C31   H15   S    
C1    O11   A    
O15   V3    S    
C30   C31   S    
C34   H22   S    
O10   V2    S    
O1    V3    S    
C9    C10   T    
C32   H19   S    
C19   C25   S    
O5    V1    S    
C31   H16   S    
C34   H23   S    
C19   C24   S    
O18   V4    S    
C25   H7    S    
O16   C6    A    
O1    C3    A    
C12   C14   S    
O6    V2    S    
C14   O22   S    
V2    O20   S    
C32   C33   S    
O16   V4    S    
C12   C15   S    
C33   H20   S    
C2    C23   S    
C13   O21   S    
C3    C27   S    
O17   C7    A    
C4    C28   S    
O10   C6    A    
O18   C8    A    
O2    V4    S    
O15   C5    A    
C11   C16   S    
V3    O19   S    
C14   C16   S    
C5    C15   S    
C20   C23   S    
C22   H4    S    
C6    C16   S    
C26   H8    S    
O14   V2    S    
C30   H13   S    
C11   C17   S    
O22   H10   S    
O4    V2    S    
C34   H24   S    
C15   C17   S    
C13   C15   S    
O23   C29   S    
C20   C26   S    
C11   O23   S    
C1    C24   S    
C21   C26   S    
