data_mof_unit_28983.cif
_audit_creation_date              2012-12-10T18:07:29-0500
_audit_creation_method            fapswitch 2.2
_symmetry_space_group_name_H-M    P1
_symmetry_Int_Tables_number       1
_space_group_crystal_system       triclinic
_cell_length_a                    11.547912
_cell_length_b                    12.610529
_cell_length_c                    13.150223
_cell_angle_alpha                 83.514429
_cell_angle_beta                  90.635018
_cell_angle_gamma                 102.120907
_cell_volume                      1860.17355926

loop_
_atom_site_label
_atom_site_type_symbol
_atom_type_description
_atom_site_fract_x
_atom_site_fract_y
_atom_site_fract_z
_atom_type_partial_charge
C1    C     C_R   0.476929 0.440248 0.690517 0.887750
C2    C     C_R   0.404567 0.661901 0.894489 -0.208694
C3    C     C_R   0.396030 0.581750 0.829061 -0.206117
C4    C     C_R   0.717845 0.500636 0.500217 0.909556
C5    C     C_R   0.480182 0.512184 0.134581 -0.267867
C6    C     C_R   0.487734 0.699501 0.163528 -0.329470
C7    C     C_R   0.441116 0.404034 0.797344 -0.165417
C8    C     C_R   0.316451 0.082009 0.363554 0.392861
C9    C     C_R   0.640398 0.801071 0.628563 0.022351
C10   C     C_R   0.670602 0.906249 0.656413 -0.244979
C11   C     C_R   0.617170 0.987077 0.607794 -0.195948
C12   C     C_R   0.497363 0.593184 0.200045 -0.118095
C13   C     C_R   0.532545 0.962679 0.530718 0.049615
C14   C     C_R   0.504291 0.853855 0.505719 0.235669
C15   C     C_R   0.473673 0.041056 0.478923 -0.072388
C16   C     C_R   0.510409 0.559885 0.308582 0.896250
C17   C     C_R   0.381364 0.007270 0.409607 0.062958
C18   C     C_R   0.356374 0.899872 0.386060 -0.246452
C19   C     C_R   0.419447 0.825554 0.431148 -0.228790
C20   C     C_R   0.501937 0.152115 0.493498 -0.078780
C21   C     C_R   0.348183 0.190320 0.382955 -0.097483
C22   C     C_R   0.282160 0.499386 0.499763 0.881306
C23   C     C_R   0.431914 0.293957 0.834598 -0.345414
C24   C     C_1   0.838738 0.501705 0.500362 -0.189196
C25   C     C_1   0.940835 0.500961 0.500131 0.004022
C26   C     C_1   0.059258 0.499270 0.499714 0.003979
C27   C     C_1   0.161324 0.498428 0.499531 -0.182469
C28   C     C_R   0.461507 0.725442 0.059957 0.536242
C29   C     C_3   0.236753 0.079360 0.203160 0.106862
C30   C     C_3   0.154337 0.153780 0.162862 -0.824679
C31   C     C_3   0.543236 0.910969 0.053350 -0.329463
C32   C     C_3   0.322562 0.078264 0.903720 0.082716
C33   C     C_3   0.244039 0.975522 0.957233 -0.805586
C34   C     C_R   0.402145 0.257174 0.937761 0.539781
C35   C     C_R   0.407272 0.335677 0.005784 -0.270792
C36   C     C_R   0.423597 0.448234 0.969696 0.045624
C37   C     C_R   0.419592 0.478311 0.863959 0.086965
C38   C     C_R   0.443953 0.532230 0.034634 0.036496
C39   C     C_R   0.436177 0.640512 0.996416 0.066369
H1    H     H_    0.497840 0.760947 0.215940 0.168355
H2    H     H_    0.446089 0.236729 0.782978 0.156344
H3    H     H_    0.392414 0.306753 0.086013 0.146490
H4    H     H_    0.369414 0.601802 0.751458 0.183595
H5    H     H_    0.298161 0.249194 0.350624 0.156482
H6    H     H_    0.215932 0.004453 0.164155 0.178422
H7    H     H_    0.330212 0.120319 0.182072 0.153723
H8    H     H_    0.175038 0.231067 0.198625 0.237364
H9    H     H_    0.165690 0.173341 0.078648 0.235339
H10   H     H_    0.060759 0.112626 0.180414 0.261966
H11   H     H_    0.520943 0.931936 0.129529 0.175797
H12   H     H_    0.289327 0.873161 0.330798 0.189009
H13   H     H_    0.551339 0.986096 0.998868 0.213383
H14   H     H_    0.630734 0.886807 0.054489 0.161110
H15   H     H_    0.393159 0.054177 0.860283 0.163859
H16   H     H_    0.264785 0.117350 0.849481 0.140205
H17   H     H_    0.162906 0.995385 0.987848 0.227464
H18   H     H_    0.217324 0.914751 0.901914 0.220340
H19   H     H_    0.291901 0.939383 0.021021 0.295969
H20   H     H_    0.571791 0.185470 0.542978 0.143733
H21   H     H_    0.681641 0.737895 0.666039 0.144323
H22   H     H_    0.642250 0.066871 0.633343 0.137115
H23   H     H_    0.734945 0.925032 0.715747 0.152712
H24   H     H_    0.399158 0.746037 0.406486 0.213261
H25   H     H_    0.390731 0.741621 0.863743 0.193872
H26   H     H_    0.496432 0.432891 0.162633 0.173795
N1    N     N_R   0.440320 0.222190 0.444690 -0.126336
N2    N     N_R   0.559060 0.776980 0.554780 -0.133571
O1    O     O_R   0.471500 0.366730 0.627160 -0.614126
O2    O     O_3   0.451333 0.830061 0.020087 -0.641295
O3    O     O_3   0.375410 0.147226 0.977087 -0.646014
O4    O     O_R   0.509620 0.544830 0.662520 -0.627187
O5    O     O_R   0.646490 0.410960 0.482310 -0.608979
O6    O     O_R   0.684610 0.589050 0.517670 -0.607867
O7    O     O_R   0.490380 0.455170 0.337480 -0.618126
O8    O     O_R   0.528500 0.633270 0.372840 -0.635397
O9    O     O_R   0.315390 0.410950 0.482330 -0.608016
O10   O     O_R   0.353510 0.589040 0.517690 -0.638908
O11   O     O_3   0.215304 0.047223 0.308885 -0.623406
Zn1   Zn    Zn3+2 0.474550 0.381080 0.476390 0.939129
Zn2   Zn    Zn3+2 0.525450 0.618920 0.523610 0.926779

loop_
_geom_bond_atom_site_label_1
_geom_bond_atom_site_label_2
_ccdc_geom_bond_type
C33   H19   S    
C21   N1    A    
C16   O8    A    
C28   O2    S    
O9    Zn1   S    
C22   O9    A    
C31   H13   S    
N1    Zn1   S    
C3    H4    S    
C26   C27   T    
C1    O4    A    
C16   O7    A    
C20   N1    A    
C36   C37   A    
C18   C19   A    
O5    Zn1   S    
C6    C12   A    
C38   C39   A    
C4    C24   S    
C1    O1    A    
C34   C35   A    
C35   H3    S    
C2    C39   A    
C6    C28   A    
C29   O11   S    
C12   C16   S    
C19   H24   S    
C14   N2    A    
C9    C10   A    
C34   O3    S    
C32   H16   S    
O1    Zn1   S    
C13   C14   A    
C8    O11   S    
C10   H23   S    
C32   H15   S    
O4    Zn2   S    
C2    H25   S    
C18   H12   S    
C8    C21   A    
C15   C20   A    
C30   H8    S    
C24   C25   T    
C5    C12   A    
C5    H26   S    
C32   O3    S    
C28   C39   A    
C25   C26   S    
C29   H6    S    
C35   C36   A    
C9    N2    A    
C29   C30   S    
C21   H5    S    
C23   C34   A    
C17   C18   A    
C7    C37   A    
C31   H14   S    
C20   H20   S    
C4    O6    A    
C30   H10   S    
O7    Zn1   S    
C13   C15   A    
C6    H1    S    
C31   H11   S    
C4    O5    A    
O8    Zn2   S    
O10   Zn2   S    
C30   H9    S    
C15   C17   A    
C33   H18   S    
C1    C7    S    
C14   C19   A    
N2    Zn2   S    
C22   O10   A    
C11   H22   S    
C8    C17   A    
C23   H2    S    
C29   H7    S    
C22   C27   S    
C9    H21   S    
C32   C33   S    
C36   C38   A    
C2    C3    A    
C11   C13   A    
C33   H17   S    
C7    C23   A    
O6    Zn2   S    
C10   C11   A    
C31   O2    S    
C3    C37   A    
C5    C38   A    
