data_mof_unit_43095.cif
_audit_creation_date              2012-12-10T18:02:10-0500
_audit_creation_method            fapswitch 2.2
_symmetry_space_group_name_H-M    P1
_symmetry_Int_Tables_number       1
_space_group_crystal_system       triclinic
_cell_length_a                    10.838902
_cell_length_b                    9.686832
_cell_length_c                    23.514111
_cell_angle_alpha                 90.003311
_cell_angle_beta                  100.955031
_cell_angle_gamma                 89.999788
_cell_volume                      2423.86436927

loop_
_atom_site_label
_atom_site_type_symbol
_atom_type_description
_atom_site_fract_x
_atom_site_fract_y
_atom_site_fract_z
_atom_type_partial_charge
C1    C     C_R   0.262854 0.500225 0.501098 0.846597
C2    C     C_R   0.737145 0.500224 0.498901 0.846576
C3    C     C_R   0.489884 0.373488 0.237688 0.177210
C4    C     C_R   0.509364 0.373328 0.762235 0.177503
C5    C     C_R   0.488658 0.375209 0.297240 -0.190475
C6    C     C_R   0.510674 0.375090 0.702689 -0.190224
C7    C     C_R   0.505423 0.499147 0.328853 -0.106550
C8    C     C_R   0.494486 0.499133 0.671142 -0.106609
C9    C     C_R   0.526401 0.621855 0.300508 -0.168641
C10   C     C_R   0.473970 0.621911 0.699544 -0.168896
C11   C     C_R   0.526490 0.621738 0.241328 -0.119210
C12   C     C_R   0.473876 0.621766 0.758723 -0.119310
C13   C     C_R   0.507606 0.498851 0.209589 0.329687
C14   C     C_R   0.492222 0.498774 0.790402 0.329552
C15   C     C_R   0.064313 0.376385 0.501691 -0.125781
C16   C     C_R   0.935910 0.626781 0.499643 -0.124480
C17   C     C_R   0.935672 0.376387 0.498267 -0.125770
C18   C     C_R   0.064099 0.626782 0.500384 -0.124497
C19   C     C_R   0.871084 0.501222 0.498601 -0.074793
C20   C     C_R   0.128914 0.501222 0.501394 -0.074742
C21   C     C_R   0.412278 0.075414 0.459742 0.311834
C22   C     C_R   0.586530 0.924368 0.540884 0.308292
C23   C     C_R   0.587727 0.075428 0.540257 0.311737
C24   C     C_R   0.413473 0.924355 0.459114 0.308282
C25   C     C_R   0.502449 0.499871 0.391276 0.860197
C26   C     C_R   0.497529 0.499874 0.608723 0.860247
C27   C     C_R   0.607692 0.506435 0.888995 0.540611
C28   C     C_R   0.392199 0.507672 0.111005 0.540583
C29   C     C_R   0.383112 0.504026 0.871030 0.523017
C30   C     C_R   0.616749 0.502941 0.128966 0.523002
C31   C     C_R   0.382983 0.506292 0.930686 -0.017594
C32   C     C_R   0.616896 0.505137 0.069311 -0.017577
C33   C     C_R   0.498799 0.506456 0.969890 -0.017784
C34   C     C_R   0.501086 0.506478 0.030108 -0.017767
C35   C     C_R   0.612335 0.506580 0.949018 -0.019681
C36   C     C_R   0.387556 0.507819 0.050981 -0.019674
C37   C     C_R   0.270345 0.507709 0.951983 -0.152022
C38   C     C_R   0.729541 0.505337 0.048015 -0.152041
C39   C     C_R   0.272609 0.508892 0.011516 -0.163130
C40   C     C_R   0.727286 0.506481 0.988483 -0.163097
Cu1   Cu    Cu3+1 0.500000 0.640660 0.500000 1.094323
Cu2   Cu    Cu3+1 0.500000 0.359340 0.500000 1.093231
H1    H     H_    0.180127 0.507843 0.922754 0.196651
H2    H     H_    0.819756 0.504548 0.077244 0.196579
H3    H     H_    0.184064 0.509880 0.026477 0.186949
H4    H     H_    0.815836 0.506517 0.973523 0.186921
H5    H     H_    0.475092 0.279159 0.318833 0.202763
H6    H     H_    0.523801 0.278980 0.681044 0.202298
H7    H     H_    0.543749 0.717949 0.324095 0.199815
H8    H     H_    0.456990 0.718089 0.676005 0.200136
H9    H     H_    0.541336 0.717601 0.219900 0.153277
H10   H     H_    0.459434 0.717692 0.780197 0.153314
H11   H     H_    0.112805 0.278634 0.504586 0.209187
H12   H     H_    0.887889 0.724841 0.499677 0.190903
H13   H     H_    0.887169 0.278639 0.495343 0.209169
H14   H     H_    0.112130 0.724842 0.500378 0.190834
N1    N     N_R   0.494351 0.503084 0.851540 -0.472400
N2    N     N_R   0.505507 0.503185 0.148455 -0.472377
N3    N     N_R   0.500000 0.852070 0.500000 -0.321854
N4    N     N_R   0.500000 0.147930 0.500000 -0.320085
O1    O     O_R   0.319640 0.618740 0.500000 -0.539049
O2    O     O_R   0.680360 0.381260 0.500000 -0.532661
O3    O     O_R   0.680360 0.618740 0.500000 -0.539036
O4    O     O_R   0.319640 0.381260 0.500000 -0.532695
O5    O     O_R   0.499960 0.618810 0.417880 -0.527051
O6    O     O_R   0.500040 0.381190 0.582120 -0.535150
O7    O     O_R   0.500040 0.618810 0.582120 -0.527117
O8    O     O_R   0.499960 0.381190 0.417880 -0.535124
O9    O     O_2   0.715336 0.509793 0.868136 -0.532992
O10   O     O_2   0.284589 0.512127 0.131868 -0.532976
O11   O     O_2   0.273244 0.502015 0.832769 -0.522021
O12   O     O_2   0.726593 0.499822 0.167226 -0.522072
C41   C     C_3   0.476021 0.236946 0.205833 -0.430646
C42   C     C_3   0.342213 0.181327 0.198683 -0.706217
H15   H     H_    0.316475 0.163413 0.241539 0.287918
H16   H     H_    0.274598 0.255164 0.173638 0.279512
H17   H     H_    0.335330 0.081690 0.174940 0.241362
H18   H     H_    0.500679 0.245967 0.162282 0.212485
H19   H     H_    0.542326 0.160836 0.230383 0.215778
C43   C     C_3   0.522352 0.236661 0.793992 -0.430983
C44   C     C_3   0.655748 0.179892 0.801056 -0.706048
H20   H     H_    0.681326 0.161898 0.758173 0.287969
H21   H     H_    0.723913 0.253059 0.826188 0.279768
H22   H     H_    0.661916 0.080113 0.824670 0.241101
H23   H     H_    0.497824 0.245857 0.837562 0.212562
H24   H     H_    0.455489 0.161123 0.769404 0.215638
S1    S     S_3+6 0.286379 0.163990 0.409117 0.076160
O13   O     O_2   0.279999 0.108014 0.349181 -0.243216
O14   O     O_2   0.165991 0.130554 0.428916 -0.289446
O15   O     O_3   0.280245 0.334605 0.397796 -0.514041
H25   H     H_    0.197961 0.352099 0.372212 0.359037
S2    S     S_3+6 0.692643 0.834980 0.600396 0.090056
O16   O     O_2   0.823013 0.892756 0.608187 -0.205602
O17   O     O_2   0.641150 0.862893 0.654279 -0.293623
O18   O     O_3   0.721038 0.665111 0.601374 -0.509026
H26   H     H_    0.768480 0.644777 0.640820 0.360849
S3    S     S_3+6 0.713657 0.164025 0.590867 0.076363
O19   O     O_2   0.720137 0.108058 0.650807 -0.242915
O20   O     O_2   0.834016 0.130625 0.571035 -0.289493
O21   O     O_3   0.719758 0.334639 0.602202 -0.513849
H27   H     H_    0.802092 0.352167 0.627738 0.359085
S4    S     S_3+6 0.307418 0.834943 0.399580 0.090201
O22   O     O_2   0.177053 0.892757 0.391718 -0.205524
O23   O     O_2   0.359046 0.862751 0.345725 -0.293274
O24   O     O_3   0.278958 0.665090 0.398628 -0.509037
H28   H     H_    0.231545 0.644722 0.359179 0.360824

loop_
_geom_bond_atom_site_label_1
_geom_bond_atom_site_label_2
_ccdc_geom_bond_type
C38   C40   A    
S1    O13   D    
C21   S1    S    
C8    C26   S    
C41   C42   S    
O18   H26   S    
Cu1   O1    S    
C44   H22   S    
C44   H20   S    
Cu1   O7    S    
C40   H4    S    
C5    H5    S    
C6    H6    S    
C26   O7    A    
C15   H11   S    
C4    C43   S    
C24   N3    A    
C33   C35   A    
S4    O24   S    
C7    C9    A    
Cu1   Cu2   S    
S2    O16   D    
C43   H24   S    
S3    O20   D    
C42   H17   S    
C41   H18   S    
C31   C33   A    
C32   C38   A    
C17   H13   S    
C34   C36   A    
C3    C13   A    
C18   H14   S    
C39   H3    S    
Cu2   O8    S    
C15   C20   A    
C25   O8    A    
C44   H21   S    
S3    O19   D    
C23   N4    A    
C42   H15   S    
C26   O6    A    
C9    H7    S    
Cu1   N3    S    
C21   N4    A    
C4    C6    A    
C27   N1    A    
Cu2   N4    S    
C22   N3    A    
C5    C7    A    
Cu1   O5    S    
C13   N2    S    
C27   C35   A    
S2    O18   S    
C31   C37   A    
C1    O1    A    
C32   C34   A    
C37   H1    S    
C38   H2    S    
C43   H23   S    
C30   O12   S    
C29   C31   A    
S2    O17   D    
C33   C34   A    
C41   H19   S    
C25   O5    A    
S4    O23   D    
C9    C11   A    
C10   C12   A    
C16   C18   A    
C23   S3    S    
C12   C14   A    
S1    O14   D    
S1    O15   S    
C42   H16   S    
C10   H8    S    
C1    O4    A    
Cu2   O4    S    
S3    O21   S    
C2    O3    A    
C15   C17   A    
C14   N1    S    
Cu2   O2    S    
C1    C20   S    
C22   S2    S    
C2    C19   S    
C36   C39   A    
C28   O10   S    
C29   N1    A    
C43   C44   S    
C3    C5    A    
C27   O9    S    
C18   C20   A    
C6    C8    A    
C28   N2    A    
O24   H28   S    
C12   H10   S    
C7    C25   S    
C35   C40   A    
C37   C39   A    
C30   C32   A    
C11   C13   A    
O15   H25   S    
C16   C19   A    
C30   N2    A    
O21   H27   S    
C17   C19   A    
C24   S4    S    
C4    C14   A    
S4    O22   D    
C3    C41   S    
C16   H12   S    
C11   H9    S    
C28   C36   A    
C8    C10   A    
C21   C24   A    
Cu2   O6    S    
Cu1   O3    S    
C22   C23   A    
C2    O2    A    
C29   O11   S    
