data_mof_unit_46131.cif
_audit_creation_date              2012-12-10T18:58:10-0500
_audit_creation_method            fapswitch 2.2
_symmetry_space_group_name_H-M    P1
_symmetry_Int_Tables_number       1
_space_group_crystal_system       triclinic
_cell_length_a                    11.048391
_cell_length_b                    10.824228
_cell_length_c                    9.586289
_cell_angle_alpha                 89.770994
_cell_angle_beta                  102.324708
_cell_angle_gamma                 90.957576
_cell_volume                      1119.8496835

loop_
_atom_site_label
_atom_site_type_symbol
_atom_type_description
_atom_site_fract_x
_atom_site_fract_y
_atom_site_fract_z
_atom_type_partial_charge
C1    C     C_R   0.502111 0.262501 0.500829 0.786185
C2    C     C_R   0.513700 0.129525 0.504731 -0.102008
C3    C     C_R   0.544497 0.065877 0.389965 -0.239510
C4    C     C_R   0.543774 0.937082 0.389445 -0.212289
C5    C     C_R   0.512618 0.871042 0.503649 -0.092258
C6    C     C_R   0.498453 0.935705 0.624566 0.122471
C7    C     C_3   0.396530 0.927551 0.704757 -0.475435
C8    C     C_3   0.398488 0.067595 0.706691 -0.485460
C9    C     C_R   0.598033 0.548389 0.097037 0.158150
C10   C     C_R   0.412053 0.434553 0.053815 0.460220
C11   C     C_R   0.409977 0.438488 0.903410 0.141454
C12   C     C_R   0.263051 0.500547 0.442106 0.871568
C13   C     C_R   0.598705 0.547209 0.950507 0.198575
C14   C     C_3   0.650411 0.675436 0.955507 -0.471536
C15   C     C_3   0.647452 0.677549 0.113177 -0.480553
C16   C     C_R   0.501850 0.737601 0.500295 0.785171
C17   C     C_R   0.736956 0.500984 0.557744 0.855433
C18   C     C_2   0.128288 0.501119 0.409238 -0.355229
C19   C     C_2   0.066988 0.510309 0.514385 -0.159685
C20   C     C_2   0.871710 0.504579 0.589740 -0.356361
C21   C     C_2   0.932539 0.506139 0.483426 -0.155421
C22   C     C_R   0.499413 0.062946 0.625312 0.145978
Cu1   Cu    Cu3+1 0.499990 0.499980 0.640670 0.958143
Cu2   Cu    Cu3+1 0.500010 0.500020 0.359330 0.968234
H1    H     H_    0.883142 0.503209 0.372384 0.179204
H2    H     H_    0.432336 0.106145 0.815517 0.188427
H3    H     H_    0.745899 0.678033 0.935551 0.192658
H4    H     H_    0.585708 0.741475 0.890928 0.210591
H5    H     H_    0.741004 0.683681 0.184375 0.194454
H6    H     H_    0.578565 0.742896 0.137323 0.203389
H7    H     H_    0.116049 0.520133 0.624761 0.186502
H8    H     H_    0.921499 0.506571 0.700592 0.146029
H9    H     H_    0.078868 0.492910 0.298617 0.156369
H10   H     H_    0.564003 0.114899 0.298315 0.155382
H11   H     H_    0.562879 0.890100 0.297710 0.154401
H12   H     H_    0.309428 0.887058 0.639930 0.201073
H13   H     H_    0.427010 0.886663 0.812723 0.192393
H14   H     H_    0.312080 0.108718 0.644100 0.200185
N1    N     N_R   0.500780 0.500930 0.148120 -0.229552
N2    N     N_R   0.500790 0.500890 0.852210 -0.201006
O1    O     O_R   0.500000 0.319640 0.618810 -0.562537
O2    O     O_R   0.500010 0.319680 0.381230 -0.592394
O3    O     O_R   0.320680 0.500000 0.575130 -0.550008
O4    O     O_R   0.320690 0.500040 0.337550 -0.526947
O5    O     O_R   0.499990 0.680320 0.618770 -0.582174
O6    O     O_R   0.500000 0.680360 0.381190 -0.586565
O7    O     O_R   0.679310 0.499960 0.662450 -0.581970
O8    O     O_R   0.679320 0.500000 0.424870 -0.581278
O9    O     O_3   0.315008 0.378112 0.102025 -0.587152
C23   C     C_3   0.322062 0.247428 0.097339 0.062640
H15   H     H_    0.352002 0.212177 0.207333 0.186553
H16   H     H_    0.389107 0.212379 0.035366 0.088723
C24   C     C_3   0.192986 0.191676 0.039215 -0.366702
H17   H     H_    0.130029 0.218447 0.109887 0.225820
H18   H     H_    0.154213 0.227789 0.930735 0.213443
C25   C     C_3   0.197013 0.050933 0.032512 -0.917006
H19   H     H_    0.256970 0.021989 0.959466 0.260767
H20   H     H_    0.102072 0.013089 0.991734 0.258477
H21   H     H_    0.233432 0.012157 0.140538 0.259431
N3    N     N_3   0.309061 0.382722 0.804399 -0.521071
H22   H     H_    0.226012 0.412017 0.827912 0.205851
H23   H     H_    0.313929 0.287099 0.813990 0.197762

loop_
_geom_bond_atom_site_label_1
_geom_bond_atom_site_label_2
_ccdc_geom_bond_type
C16   O5    A    
C2    C22   A    
C8    C22   S    
Cu1   Cu2   S    
C17   O8    A    
C14   H4    S    
C6    C7    S    
Cu1   O5    S    
C14   H3    S    
C8    H2    S    
C7    H12   S    
C23   H16   S    
Cu1   O1    S    
C25   H21   S    
Cu2   O6    S    
Cu2   N1    S    
C2    C3    A    
C7    H13   S    
C4    H11   S    
C19   H7    S    
C7    C8    S    
C12   O4    A    
C13   C14   S    
C25   H19   S    
C10   O9    S    
C11   N2    A    
C8    H14   S    
N3    H22   S    
C1    O1    A    
C19   C21   S    
C25   H20   S    
C15   H5    S    
C12   O3    A    
C24   H18   S    
C9    C15   S    
C5    C6    A    
Cu2   O4    S    
C18   H9    S    
C23   C24   S    
Cu1   O7    S    
C10   C11   A    
C12   C18   S    
Cu1   N2    S    
C6    C22   A    
C17   O7    A    
C1    O2    A    
C9    N1    A    
C17   C20   S    
Cu2   O2    S    
C20   C21   D    
C15   H6    S    
N3    H23   S    
C1    C2    S    
C20   H8    S    
C24   C25   S    
C16   O6    A    
O9    C23   S    
C9    C13   A    
C14   C15   S    
C18   C19   D    
C5    C16   S    
C21   H1    S    
C3    H10   S    
C23   H15   S    
C24   H17   S    
Cu1   O3    S    
C10   N1    A    
C3    C4    A    
C11   N3    S    
C4    C5    A    
C13   N2    A    
Cu2   O8    S    
