data_mof_unit_63968.cif
_audit_creation_date              2012-12-10T16:50:19-0500
_audit_creation_method            fapswitch 2.2
_symmetry_space_group_name_H-M    P1
_symmetry_Int_Tables_number       1
_space_group_crystal_system       triclinic
_cell_length_a                    21.93626
_cell_length_b                    21.968121
_cell_length_c                    22.429717
_cell_angle_alpha                 59.325526
_cell_angle_beta                  119.472169
_cell_angle_gamma                 91.138825
_cell_volume                      7698.25362878

loop_
_atom_site_label
_atom_site_type_symbol
_atom_type_description
_atom_site_fract_x
_atom_site_fract_y
_atom_site_fract_z
_atom_type_partial_charge
C1    C     C_R   0.616171 0.502096 0.497364 0.843444
C2    C     C_2   0.818341 0.491958 0.504582 -0.311648
C3    C     C_2   0.692687 0.484873 0.453139 -0.154655
C4    C     C_R   0.419812 0.580587 0.339615 0.818402
C5    C     C_2   0.679337 0.508532 0.491307 -0.313608
C6    C     C_3   0.763575 0.175824 0.029422 -0.216852
C7    C     C_3   0.685910 0.232506 0.973226 -0.127622
C8    C     C_1   0.625110 0.373570 0.750204 -0.178033
C9    C     C_1   0.875448 0.124639 0.249771 -0.171089
C10   C     C_3   0.785692 0.233107 0.972053 -0.238384
C11   C     C_3   0.708688 0.289369 0.917438 0.127296
C12   C     C_3   0.290636 0.710233 0.082369 0.187248
C13   C     C_3   0.811968 0.263995 0.025604 0.523855
C14   C     C_3   0.790902 0.207231 0.082527 0.132213
C15   C     C_3   0.735669 0.321125 0.970375 -0.248216
C16   C     C_R   0.383929 0.497840 0.502791 0.875565
C17   C     C_3   0.713915 0.263218 0.027700 -0.210050
C18   C     C_1   0.662883 0.335346 0.825667 -0.054635
C19   C     C_1   0.837452 0.161950 0.174316 -0.025540
C20   C     C_2   0.247087 0.496898 0.561183 -0.244707
C21   C     C_2   0.182305 0.508497 0.496448 -0.373049
C22   C     C_2   0.312516 0.504735 0.557281 0.475940
C23   C     C_3   0.183811 0.738561 0.973629 -0.156424
C24   C     C_2   0.320622 0.491670 0.508695 -0.407930
C25   C     C_R   0.999087 0.882653 0.499941 0.732890
C26   C     C_R   0.079954 0.919721 0.660406 0.825475
C27   C     C_R   0.999536 0.118698 0.497478 0.847624
C28   C     C_R   0.580107 0.419412 0.660357 0.814981
C29   C     C_R   0.920034 0.080032 0.339617 0.818402
C30   C     C_R   0.002785 0.617900 0.499134 0.837415
C31   C     C_R   0.882632 0.497856 0.500698 0.858916
C32   C     C_R   0.998735 0.381868 0.500873 0.850958
C33   C     C_R   0.117465 0.502252 0.499412 0.879865
C34   C     C_3   0.207931 0.792048 0.917629 0.187585
C35   C     C_2   0.050913 0.686434 0.562004 -0.122198
C36   C     C_2   0.009270 0.685795 0.494521 -0.249801
C37   C     C_2   0.053548 0.757230 0.553552 -0.243835
C38   C     C_2   0.993835 0.817854 0.497121 0.320599
C39   C     C_2   0.940096 0.310264 0.445707 -0.156236
C40   C     C_3   0.282779 0.733078 0.972154 -0.157943
C41   C     C_2   0.996972 0.313531 0.505110 -0.314163
C42   C     C_2   0.938175 0.239390 0.453872 -0.152722
C43   C     C_2   0.000110 0.187725 0.491833 -0.312908
C44   C     C_3   0.314755 0.763719 0.026368 -0.156236
C45   C     C_3   0.215788 0.769199 0.027859 -0.155407
C46   C     C_1   0.374701 0.626353 0.249703 -0.167861
C47   C     C_1   0.124405 0.875038 0.750308 -0.172809
C48   C     C_3   0.259354 0.678905 0.029534 -0.157786
C49   C     C_3   0.887892 0.329625 0.993165 0.044001
C50   C     C_3   0.949257 0.290215 0.998930 -0.331409
C51   C     C_3   0.961088 0.343876 0.930879 -0.921899
C52   C     C_3   0.410540 0.461420 0.688454 0.044726
C53   C     C_3   0.474741 0.480522 0.738975 -0.301077
C54   C     C_3   0.522549 0.415346 0.831163 -0.936795
C55   C     C_3   0.884992 0.873287 0.365868 0.048452
C56   C     C_3   0.239207 0.823388 0.970451 -0.155390
C57   C     C_3   0.810414 0.913122 0.338501 -0.299066
C58   C     C_3   0.764462 0.975979 0.245266 -0.936243
C59   C     C_1   0.336776 0.664381 0.174203 -0.072318
C60   C     C_1   0.161979 0.837588 0.825801 -0.071686
C61   C     C_2   0.755448 0.494904 0.445014 -0.159527
Cu1   Cu    Cu3+1 0.500050 0.438990 0.500010 0.949616
Cu2   Cu    Cu3+1 0.499950 0.561010 0.499990 0.971199
Cu3   Cu    Cu3+1 0.061010 0.999870 0.499990 0.955555
Cu4   Cu    Cu3+1 0.938990 0.999980 0.500010 0.950474
Cu5   Cu    Cu3+1 0.958560 0.541440 0.417120 0.946399
Cu6   Cu    Cu3+1 0.041440 0.458560 0.582880 0.944314
H1    H     H_    0.369086 0.773611 0.048991 0.131965
H2    H     H_    0.309870 0.718665 0.948313 0.131759
H3    H     H_    0.283509 0.468191 0.478744 0.117616
H4    H     H_    0.085187 0.634803 0.623908 0.157974
H5    H     H_    0.981032 0.737194 0.432276 0.166020
H6    H     H_    0.104897 0.758087 0.598267 0.119862
H7    H     H_    0.892360 0.359154 0.392738 0.159972
H8    H     H_    0.041005 0.263124 0.562432 0.153078
H9    H     H_    0.884941 0.231524 0.424312 0.161902
H10   H     H_    0.052552 0.198910 0.513350 0.153824
H11   H     H_    0.230440 0.883299 0.945201 0.131755
H12   H     H_    0.712150 0.539371 0.512718 0.155019
H13   H     H_    0.188706 0.783601 0.051713 0.132839
H14   H     H_    0.129482 0.728666 0.951005 0.133204
H15   H     H_    0.268116 0.618997 0.054772 0.132656
H16   H     H_    0.751257 0.500431 0.392053 0.159513
H17   H     H_    0.825351 0.478330 0.561890 0.153976
H18   H     H_    0.655069 0.461365 0.423629 0.162050
H19   H     H_    0.903995 0.373983 0.002264 0.166271
H20   H     H_    0.836597 0.358128 0.928878 0.125485
H21   H     H_    0.001345 0.265845 0.061272 0.231282
H22   H     H_    0.934924 0.244287 0.992291 0.211603
H23   H     H_    0.632959 0.220035 0.950258 0.133701
H24   H     H_    0.910108 0.367627 0.867929 0.256425
H25   H     H_    0.006106 0.313657 0.937050 0.258285
H26   H     H_    0.976636 0.389765 0.937050 0.256547
H27   H     H_    0.433505 0.414108 0.691727 0.124580
H28   H     H_    0.378473 0.444109 0.717161 0.135539
H29   H     H_    0.509037 0.495005 0.713134 0.233190
H30   H     H_    0.453118 0.529548 0.733758 0.224205
H31   H     H_    0.490491 0.403319 0.859610 0.253667
H32   H     H_    0.570753 0.429419 0.865356 0.259726
H33   H     H_    0.542653 0.364841 0.837881 0.261400
H34   H     H_    0.775082 0.115809 0.054768 0.146452
H35   H     H_    0.875145 0.850126 0.329093 0.152103
H36   H     H_    0.914399 0.914671 0.349361 0.102008
H37   H     H_    0.779778 0.872549 0.351595 0.223333
H38   H     H_    0.818861 0.936680 0.374569 0.239782
H39   H     H_    0.793671 0.017671 0.230796 0.258684
H40   H     H_    0.711025 0.004071 0.227538 0.258813
H41   H     H_    0.753494 0.953558 0.207605 0.253972
H42   H     H_    0.684750 0.274739 0.051351 0.149755
H43   H     H_    0.724648 0.381037 0.945464 0.135213
H44   H     H_    0.814543 0.221582 0.948144 0.133486
H45   H     H_    0.251262 0.485123 0.616556 0.165612
H46   H     H_    0.174887 0.527903 0.437362 0.154806
O1    O     O_R   0.589060 0.448490 0.499990 -0.580492
O2    O     O_R   0.034920 0.554020 0.569980 -0.587518
O3    O     O_R   0.875990 0.534990 0.430030 -0.583064
O4    O     O_R   0.588980 0.551530 0.499980 -0.588224
O5    O     O_R   0.945970 0.465000 0.570010 -0.586838
O6    O     O_R   0.965080 0.445980 0.430020 -0.584439
O7    O     O_R   0.035060 0.375990 0.570000 -0.589198
O8    O     O_R   0.054030 0.535000 0.429990 -0.589322
O9    O     O_R   0.124010 0.465010 0.569970 -0.588149
O10   O     O_R   0.439580 0.508940 0.379080 -0.584370
O11   O     O_R   0.439510 0.611990 0.379070 -0.582064
O12   O     O_R   0.948460 0.910940 0.500030 -0.571423
O13   O     O_R   0.411020 0.448470 0.500020 -0.599248
O14   O     O_R   0.410940 0.551510 0.500010 -0.536870
O15   O     O_R   0.560490 0.388010 0.620930 -0.580587
O16   O     O_R   0.560420 0.491060 0.620920 -0.587542
O17   O     O_R   0.051510 0.910850 0.500010 -0.606118
O18   O     O_3   0.879776 0.278271 0.058237 -0.613033
O19   O     O_3   0.365729 0.524687 0.604823 -0.583453
O20   O     O_3   0.924552 0.812953 0.451769 -0.596765
O21   O     O_R   0.111980 0.939430 0.620910 -0.580702
O22   O     O_R   0.008930 0.939520 0.620930 -0.578170
O23   O     O_R   0.051540 0.088910 0.499970 -0.584591
O24   O     O_R   0.948490 0.089000 0.499990 -0.580905
O25   O     O_R   0.991070 0.060330 0.379070 -0.572478
O26   O     O_R   0.888020 0.060420 0.379090 -0.589566
O27   O     O_R   0.964940 0.624010 0.430000 -0.591431

loop_
_geom_bond_atom_site_label_1
_geom_bond_atom_site_label_2
_ccdc_geom_bond_type
C57   H38   S    
Cu3   O23   S    
C11   C18   S    
C34   C56   S    
C23   C45   S    
C46   C59   T    
C3    H18   S    
C49   H20   S    
C2    H17   S    
C35   C36   D    
C15   H43   S    
C12   C48   S    
Cu2   O11   S    
C24   H3    S    
C39   C41   D    
Cu3   O25   S    
C53   C54   S    
C7    C11   S    
C29   O25   A    
C49   O18   S    
C55   H35   S    
C27   O24   A    
Cu5   O3    S    
C1    C5    S    
C27   O23   A    
C28   O16   A    
C22   C24   D    
C35   C37   S    
C37   C38   D    
Cu1   O1    S    
C33   O8    A    
C51   H25   S    
C39   H7    S    
C21   C33   S    
C55   H36   S    
C56   H11   S    
C4    O11   A    
C52   H28   S    
C15   C17   S    
C58   H40   S    
C6    H34   S    
C25   O12   A    
Cu6   O2    S    
C26   O22   A    
C51   H24   S    
C47   C60   T    
C20   H45   S    
C12   C59   S    
C11   C15   S    
C9    C19   T    
C45   C56   S    
C7    C17   S    
C32   C41   S    
C52   H27   S    
C5    H12   S    
Cu6   O7    S    
C2    C61   D    
C9    C29   S    
Cu4   O24   S    
Cu5   Cu6   S    
C35   H4    S    
C16   C24   S    
C13   C14   S    
C53   H29   S    
C34   C60   S    
C14   C17   S    
C54   H33   S    
C32   O7    A    
C25   O17   A    
C14   C19   S    
Cu1   O10   S    
Cu6   O5    S    
C39   C42   S    
C30   O2    A    
C3    C61   S    
C29   O26   A    
Cu3   O21   S    
C30   O27   A    
C40   H2    S    
C52   O19   S    
C21   H46   S    
C61   H16   S    
Cu1   O13   S    
C4    C46   S    
C53   H30   S    
C55   O20   S    
C7    H23   S    
C8    C18   T    
C4    O10   A    
C2    C31   S    
C58   H39   S    
Cu4   O12   S    
C31   O5    A    
Cu1   Cu2   S    
C26   O21   A    
C25   C38   S    
C41   H8    S    
C44   C56   S    
C50   H22   S    
C23   C34   S    
C50   C51   S    
C13   O18   S    
Cu5   O8    S    
C10   H44   S    
C1    O4    A    
Cu4   O22   S    
C26   C47   S    
C51   H26   S    
C20   C22   S    
Cu5   O6    S    
C13   C15   S    
C33   O9    A    
C8    C28   S    
C34   C40   S    
C54   H32   S    
C44   H1    S    
C1    O1    A    
C32   O6    A    
Cu6   O9    S    
C31   O3    A    
C52   C53   S    
C40   C48   S    
C57   H37   S    
C37   H6    S    
C23   C48   S    
C23   H14   S    
C22   O19   S    
C49   H19   S    
Cu3   O17   S    
C12   C45   S    
C3    C5    D    
C10   C13   S    
C17   H42   S    
C6    C10   S    
C6    C7    S    
C50   H21   S    
C43   H10   S    
C42   H9    S    
C30   C36   S    
Cu3   Cu4   S    
C55   C57   S    
C6    C14   S    
C12   C44   S    
C28   O15   A    
Cu1   O15   S    
C57   C58   S    
Cu2   O4    S    
C48   H15   S    
C45   H13   S    
C58   H41   S    
Cu2   O16   S    
C16   O14   A    
C10   C11   S    
Cu4   O26   S    
C27   C43   S    
C40   C44   S    
Cu5   O27   S    
C20   C21   D    
C49   C50   S    
C42   C43   D    
C54   H31   S    
C16   O13   A    
C38   O20   S    
Cu2   O14   S    
C36   H5    S    
