data_mof_unit_54858.cif
_audit_creation_date              2012-12-10T19:00:15-0500
_audit_creation_method            fapswitch 2.2
_symmetry_space_group_name_H-M    P1
_symmetry_Int_Tables_number       1
_space_group_crystal_system       triclinic
_cell_length_a                    9.553156
_cell_length_b                    10.82372
_cell_length_c                    13.532925
_cell_angle_alpha                 90.245404
_cell_angle_beta                  73.645422
_cell_angle_gamma                 89.916983
_cell_volume                      1342.67654109

loop_
_atom_site_label
_atom_site_type_symbol
_atom_type_description
_atom_site_fract_x
_atom_site_fract_y
_atom_site_fract_z
_atom_type_partial_charge
C1    C     C_R   0.499243 0.737671 0.501610 0.816952
C2    C     C_R   0.449113 0.452303 0.974509 0.082374
C3    C     C_R   0.494470 0.449824 0.865489 0.084484
C4    C     C_R   0.555804 0.473231 0.028325 0.049564
C5    C     C_R   0.703745 0.496719 0.972598 0.137463
C6    C     C_R   0.747816 0.479253 0.865324 -0.017897
C7    C     C_R   0.645527 0.442204 0.816261 -0.278263
C8    C     C_R   0.519619 0.472878 0.136047 -0.243395
C9    C     C_R   0.764430 0.531355 0.133193 -0.225055
C10   C     C_R   0.387313 0.454784 0.809875 -0.102266
C11   C     C_R   0.372314 0.936711 0.503972 0.168436
C12   C     C_R   0.424627 0.485475 0.698590 0.808314
C13   C     C_R   0.495071 0.870922 0.510883 -0.149872
C14   C     C_R   0.611428 0.935552 0.531571 -0.189099
C15   C     C_R   0.611641 0.064411 0.531698 -0.206471
C16   C     C_R   0.495611 0.129339 0.510985 -0.116199
C17   C     C_R   0.373229 0.064093 0.503529 0.135780
C18   C     C_3   0.293555 0.071708 0.423288 -0.491448
C19   C     C_3   0.292633 0.931067 0.423131 -0.211389
C20   C     C_R   0.944980 0.406649 0.452862 0.253426
C21   C     C_R   0.903699 0.585316 0.554656 -0.075784
C22   C     C_R   0.052448 0.585115 0.554794 -0.056072
C23   C     C_R   0.499518 0.262383 0.501562 0.795652
C24   C     C_R   0.092818 0.407393 0.452006 0.262323
C25   C     C_3   0.140577 0.377761 0.339873 -0.526572
C26   C     C_3   0.981569 0.372795 0.341819 -0.493908
C27   C     C_R   0.577396 0.501003 0.300757 0.798809
C28   C     C_R   0.805341 0.528093 0.026474 -0.163766
C29   C     C_R   0.621884 0.501862 0.188306 -0.040724
C30   C     C_R   0.241196 0.433102 0.862748 -0.152470
C31   C     C_R   0.198426 0.419673 0.968906 -0.149976
C32   C     C_R   0.298962 0.434525 0.024836 -0.175077
Cu1   Cu    Cu3+1 0.359330 0.500020 0.500010 0.953208
Cu2   Cu    Cu3+1 0.640670 0.499980 0.499990 0.938132
H1    H     H_    0.844937 0.555709 0.172426 0.150145
H2    H     H_    0.705060 0.112515 0.543450 0.174768
H3    H     H_    0.184505 0.115748 0.453735 0.218725
H4    H     H_    0.361848 0.111431 0.349877 0.171765
H5    H     H_    0.359233 0.889475 0.349523 0.117885
H6    H     H_    0.830793 0.655615 0.597716 0.173135
H7    H     H_    0.090861 0.654933 0.598167 0.204784
H8    H     H_    0.197261 0.457092 0.294477 0.206778
H9    H     H_    0.197289 0.287311 0.322629 0.193891
H10   H     H_    0.951709 0.445563 0.293792 0.213761
H11   H     H_    0.943943 0.278198 0.329935 0.197392
H12   H     H_    0.917668 0.548414 0.987522 0.187424
H13   H     H_    0.413297 0.446889 0.181409 0.139357
H14   H     H_    0.159895 0.425713 0.821636 0.173131
H15   H     H_    0.254646 0.430642 0.107065 0.127005
H16   H     H_    0.085540 0.401012 0.008837 0.137995
H17   H     H_    0.688356 0.406865 0.739104 0.177788
H18   H     H_    0.704778 0.887138 0.543243 0.186200
N1    N     N_R   0.852320 0.499070 0.499340 -0.203581
N2    N     N_R   0.148230 0.499110 0.499340 -0.207303
O1    O     O_R   0.381190 0.680360 0.500000 -0.584121
O2    O     O_R   0.618780 0.680320 0.499990 -0.582845
O3    O     O_R   0.323230 0.500000 0.650990 -0.565103
O4    O     O_R   0.560820 0.499960 0.650980 -0.595139
O5    O     O_R   0.381220 0.319680 0.500010 -0.579508
O6    O     O_R   0.618810 0.319640 0.500000 -0.591779
O7    O     O_R   0.439180 0.500040 0.349020 -0.590006
O8    O     O_R   0.676770 0.500000 0.349010 -0.585736
C33   C     C_2   0.142428 0.876053 0.461241 0.400726
H19   H     H_    0.106823 0.809004 0.413652 0.058772
O9    O     O_2   0.059503 0.906347 0.544323 -0.555956
C34   C     C_2   0.898834 0.497528 0.799960 0.288089
H20   H     H_    0.946695 0.431568 0.739131 0.072523
O10   O     O_2   0.966843 0.590597 0.808133 -0.550180

loop_
_geom_bond_atom_site_label_1
_geom_bond_atom_site_label_2
_ccdc_geom_bond_type
C25   H8    S    
Cu1   O1    S    
C2    C4    A    
C3    C7    A    
C33   O9    D    
Cu2   O2    S    
C6    C7    A    
C27   O8    A    
C27   C29   S    
C5    C28   A    
C10   C30   A    
C34   O10   D    
C31   C32   A    
C26   H11   S    
C17   C18   S    
C9    C29   A    
C30   C31   A    
C4    C8    A    
C12   O4    A    
C25   H9    S    
C2    C3    A    
C1    O1    A    
C8    H13   S    
C7    H17   S    
C22   N2    A    
C3    C10   A    
C13   C14   A    
Cu2   O6    S    
C11   C13   A    
C11   C19   S    
C6    C34   S    
C23   O6    A    
C21   H6    S    
C19   H5    S    
C12   O3    A    
C21   N1    A    
C2    C32   A    
C30   H14   S    
C18   H3    S    
Cu1   Cu2   S    
C16   C23   S    
C10   C12   S    
C18   H4    S    
C5    C6    A    
Cu2   O4    S    
C14   H18   S    
C32   H15   S    
C22   H7    S    
C1    C13   S    
C8    C29   A    
C31   H16   S    
C26   H10   S    
C33   H19   S    
C16   C17   A    
C20   C24   A    
C15   H2    S    
Cu2   O8    S    
C34   H20   S    
C24   C25   S    
Cu2   N1    S    
Cu1   O7    S    
C18   C19   S    
Cu1   N2    S    
C9    H1    S    
C28   H12   S    
C14   C15   A    
C20   N1    A    
Cu1   O3    S    
C27   O7    A    
C23   O5    A    
C25   C26   S    
C21   C22   A    
C24   N2    A    
Cu1   O5    S    
C1    O2    A    
C11   C17   A    
C15   C16   A    
C9    C28   A    
C19   C33   S    
C4    C5    A    
C20   C26   S    
