data_mof_unit_35609.cif
_audit_creation_date              2012-12-11T16:13:08-0500
_audit_creation_method            fapswitch 2.2
_symmetry_space_group_name_H-M    P1
_symmetry_Int_Tables_number       1
_space_group_crystal_system       triclinic
_cell_length_a                    23.489549
_cell_length_b                    13.619931
_cell_length_c                    28.417531
_cell_angle_alpha                 90.000015
_cell_angle_beta                  90.564019
_cell_angle_gamma                 89.99996
_cell_volume                      9091.06756412

loop_
_atom_site_label
_atom_site_type_symbol
_atom_type_description
_atom_site_fract_x
_atom_site_fract_y
_atom_site_fract_z
_atom_type_partial_charge
Br1   Br    Br    0.145917 0.691521 0.944431 -0.296358
Br2   Br    Br    0.868681 0.649898 0.064563 -0.319083
Br3   Br    Br    0.631319 0.149892 0.935437 -0.319081
Br4   Br    Br    0.354086 0.191509 0.055569 -0.296332
C1    C     C_R   0.284546 0.005991 0.815787 0.546349
C2    C     C_3   0.543087 0.763195 0.969088 0.096286
C3    C     C_R   0.206286 0.034279 0.524621 -0.101720
C4    C     C_R   0.296496 0.541162 0.524324 -0.102476
C5    C     C_R   0.703508 0.541147 0.475672 -0.102482
C6    C     C_R   0.796491 0.041147 0.524328 -0.102482
C7    C     C_R   0.203504 0.041162 0.475676 -0.102476
C8    C     C_R   0.253155 0.589463 0.548589 0.031133
C9    C     C_R   0.746850 0.589446 0.451407 0.031065
C10   C     C_R   0.753150 0.089446 0.548593 0.031065
C11   C     C_R   0.246845 0.089463 0.451411 0.031133
C12   C     C_R   0.247985 0.576832 0.450906 0.022961
C13   C     C_3   0.956920 0.263192 0.030909 0.096279
C14   C     C_R   0.752020 0.576815 0.549090 0.023008
C15   C     C_R   0.747980 0.076815 0.450910 0.023008
C16   C     C_R   0.252014 0.076832 0.549093 0.022961
C17   C     C_1   0.241606 0.561350 0.401550 -0.047821
C18   C     C_1   0.758398 0.561338 0.598447 -0.047850
C19   C     C_1   0.741602 0.061338 0.401553 -0.047850
C20   C     C_1   0.258394 0.061350 0.598450 -0.047820
C21   C     C_1   0.258885 0.607016 0.597846 -0.042483
C22   C     C_1   0.741119 0.607004 0.402151 -0.042319
C23   C     C_1   0.758881 0.107004 0.597849 -0.042319
C24   C     C_3   0.946802 0.271110 0.976545 0.056307
C25   C     C_1   0.241115 0.107017 0.402154 -0.042483
C26   C     C_1   0.232163 0.541444 0.361210 0.013139
C27   C     C_1   0.767839 0.541437 0.638788 0.012815
C28   C     C_1   0.732161 0.041437 0.361212 0.012816
C29   C     C_1   0.267837 0.041444 0.638790 0.013139
C30   C     C_R   0.284433 0.007119 0.684019 0.548043
C31   C     C_R   0.715567 0.007119 0.315981 0.550703
C32   C     C_R   0.784433 0.507119 0.684018 0.550704
C33   C     C_R   0.215567 0.507120 0.315981 0.548040
C34   C     C_R   0.445722 0.825283 0.684479 0.550687
C35   C     C_1   0.513738 0.835581 0.097693 0.081193
C36   C     C_R   0.554279 0.825283 0.315521 0.547835
C37   C     C_R   0.945721 0.325283 0.684479 0.547833
C38   C     C_R   0.054278 0.325283 0.315521 0.550686
C39   C     C_R   0.274152 0.674073 0.683049 0.549739
C40   C     C_R   0.725848 0.674071 0.316950 0.546499
C41   C     C_R   0.774152 0.174071 0.683050 0.546497
C42   C     C_R   0.225848 0.174073 0.316950 0.549739
C43   C     C_3   0.439121 0.800926 0.976846 -0.247456
C44   C     C_3   0.512171 0.941251 0.027264 -0.232516
C45   C     C_3   0.987835 0.441258 0.972734 -0.232538
C46   C     C_1   0.485846 0.835602 0.902566 0.087528
C47   C     C_3   0.060885 0.300935 0.023154 -0.247465
C48   C     C_3   0.510340 0.942220 0.972564 0.140092
C49   C     C_3   0.445892 0.792856 0.031006 0.146173
C50   C     C_3   0.054114 0.292865 0.968993 0.146164
C51   C     C_3   0.989663 0.442223 0.027435 0.140087
C52   C     C_1   0.527865 0.831994 0.138317 0.098190
C53   C     C_1   0.471598 0.831446 0.861973 0.094588
C54   C     C_1   0.028403 0.331447 0.138027 0.094614
C55   C     C_1   0.972138 0.331996 0.861682 0.098195
C56   C     C_1   0.014155 0.335604 0.097433 0.087574
C57   C     C_1   0.986267 0.335586 0.902305 0.081210
C58   C     C_1   0.267517 0.637524 0.862050 0.043752
C59   C     C_1   0.737095 0.624178 0.141602 0.077950
C60   C     C_1   0.762907 0.124182 0.858398 0.077952
C61   C     C_R   0.714602 0.003916 0.183248 0.547615
C62   C     C_1   0.232483 0.137525 0.137950 0.043750
C63   C     C_R   0.305475 0.566961 0.978760 -0.114862
C64   C     C_R   0.712830 0.514693 0.029511 -0.067013
C65   C     C_R   0.787175 0.014710 0.970492 -0.066921
C66   C     C_R   0.194522 0.066972 0.021239 -0.114863
C67   C     C_R   0.303071 0.558262 0.027949 0.293726
C68   C     C_R   0.716949 0.501986 0.980650 0.301518
C69   C     C_R   0.783055 0.002003 0.019353 0.301610
C70   C     C_R   0.196926 0.058274 0.972050 0.293738
C71   C     C_R   0.208571 0.631030 0.026001 -0.080871
C72   C     C_R   0.785399 0.503915 0.816752 0.547609
C73   C     C_R   0.807049 0.589718 0.982095 -0.104639
C74   C     C_R   0.692953 0.089727 0.017906 -0.104594
C75   C     C_R   0.291430 0.131027 0.973999 -0.080872
C76   C     C_R   0.210627 0.637963 0.977117 0.233044
C77   C     C_R   0.804276 0.597568 0.031028 0.214851
C78   C     C_R   0.695727 0.097577 0.968974 0.214817
C79   C     C_R   0.289374 0.137960 0.022883 0.233048
C80   C     C_R   0.259014 0.604815 0.953241 -0.000112
C81   C     C_R   0.755538 0.564718 0.054569 -0.010164
C82   C     C_R   0.744466 0.064730 0.945434 -0.010232
C83   C     C_R   0.215454 0.505991 0.184213 0.546355
C84   C     C_R   0.240985 0.104819 0.046758 -0.000120
C85   C     C_R   0.253656 0.589207 0.051437 0.006830
C86   C     C_R   0.762736 0.545256 0.956607 0.006751
C87   C     C_R   0.737266 0.045269 0.043395 0.006771
C88   C     C_R   0.246343 0.089211 0.948563 0.006834
C89   C     C_R   0.446243 0.824119 0.816459 0.550623
C90   C     C_R   0.553537 0.824235 0.183686 0.555586
C91   C     C_R   0.946463 0.324235 0.816314 0.555587
C92   C     C_R   0.053757 0.324119 0.183541 0.550625
C93   C     C_1   0.244851 0.568162 0.100405 0.055622
C94   C     C_3   0.495261 0.837236 0.953619 -0.063393
C95   C     C_1   0.766936 0.539271 0.906159 0.045074
C96   C     C_1   0.733065 0.039281 0.093843 0.045081
C97   C     C_1   0.255148 0.068164 0.899595 0.055610
C98   C     C_1   0.263305 0.617948 0.903178 0.018163
C99   C     C_1   0.746084 0.592144 0.102830 0.061288
C100  C     C_1   0.753920 0.092152 0.897172 0.061215
C101  C     C_1   0.236695 0.117950 0.096822 0.018160
C102  C     C_1   0.233606 0.543711 0.139900 0.059169
C103  C     C_1   0.772741 0.528397 0.864443 0.050788
C104  C     C_1   0.727260 0.028404 0.135558 0.050820
C105  C     C_3   0.505156 0.834949 0.046511 -0.072025
C106  C     C_1   0.266394 0.043712 0.860100 0.059145
C107  C     C_1   0.469518 0.834331 0.638823 0.049723
C108  C     C_1   0.530483 0.834330 0.361178 0.050184
C109  C     C_1   0.969517 0.334330 0.638822 0.050184
C110  C     C_1   0.030482 0.334331 0.361177 0.049723
C111  C     C_R   0.497135 0.760145 0.524204 -0.163587
C112  C     C_R   0.502869 0.760145 0.475797 -0.163589
C113  C     C_R   0.997131 0.260145 0.524203 -0.163589
C114  C     C_R   0.002865 0.260145 0.475796 -0.163587
C115  C     C_R   0.506758 0.939424 0.475601 0.224573
C116  C     C_3   0.994849 0.334956 0.953488 -0.072017
C117  C     C_R   0.493238 0.939423 0.524399 0.224620
C118  C     C_R   0.006762 0.439423 0.475601 0.224620
C119  C     C_R   0.993242 0.439424 0.524399 0.224572
C120  C     C_R   0.492362 0.848477 0.548639 -0.022384
C121  C     C_R   0.507638 0.848477 0.451362 -0.022458
C122  C     C_R   0.992362 0.348477 0.548638 -0.022458
C123  C     C_R   0.007638 0.348477 0.451361 -0.022384
C124  C     C_1   0.517447 0.841882 0.401740 0.018748
C125  C     C_1   0.482554 0.841882 0.598261 0.018690
C126  C     C_1   0.017446 0.341882 0.401739 0.018690
C127  C     C_3   0.004743 0.337239 0.046380 -0.063385
C128  C     C_1   0.982553 0.341882 0.598260 0.018748
C129  C     C_1   0.264901 0.631552 0.638029 0.009213
C130  C     C_1   0.735101 0.631545 0.361968 0.009807
C131  C     C_1   0.764899 0.131545 0.638031 0.009806
C132  C     C_1   0.235099 0.131552 0.361971 0.009213
C133  C     C_R   0.207352 0.631547 0.524070 -0.083414
C134  C     C_R   0.792654 0.631526 0.475926 -0.083431
C135  C     C_R   0.707346 0.131526 0.524074 -0.083431
C136  C     C_R   0.292648 0.131547 0.475930 -0.083414
C137  C     C_R   0.274786 0.674656 0.815408 0.551198
C138  C     C_3   0.553202 0.771102 0.023453 0.056299
C139  C     C_R   0.725726 0.673247 0.185166 0.556516
C140  C     C_R   0.774274 0.173247 0.814834 0.556518
C141  C     C_R   0.225214 0.174656 0.184592 0.551198
C142  C     C_R   0.204706 0.625014 0.475216 -0.095939
C143  C     C_R   0.795300 0.624993 0.524780 -0.095899
C144  C     C_R   0.704699 0.124993 0.475220 -0.095900
C145  C     C_R   0.295293 0.125015 0.524784 -0.095939
C146  C     C_R   0.293714 0.534279 0.475379 -0.101720
C147  C     C_R   0.706291 0.534264 0.524617 -0.101726
C148  C     C_R   0.793709 0.034264 0.475383 -0.101726
Cr1   Cr    Cr6+3 0.250680 0.837130 0.748990 1.079761
Cr2   Cr    Cr6+3 0.623910 0.707720 0.250330 1.085722
Cr3   Cr    Cr6+3 0.876090 0.207720 0.749670 1.085723
Cr4   Cr    Cr6+3 0.123910 0.207720 0.250330 1.057794
Cr5   Cr    Cr6+3 0.749320 0.837130 0.251010 1.074210
Cr6   Cr    Cr6+3 0.750680 0.337130 0.748990 1.074205
Cr7   Cr    Cr6+3 0.249320 0.337130 0.251010 1.079758
Cr8   Cr    Cr6+3 0.378160 0.960100 0.750430 1.098813
Cr9   Cr    Cr6+3 0.621840 0.960100 0.249570 1.092106
Cr10  Cr    Cr6+3 0.878160 0.460100 0.750430 1.092106
Cr11  Cr    Cr6+3 0.121840 0.460100 0.249570 1.098836
Cr12  Cr    Cr6+3 0.376090 0.707720 0.749670 1.057797
H1    H     H_    0.494864 0.690525 0.542598 0.138326
H2    H     H_    0.831224 0.656655 0.543563 0.170033
H3    H     H_    0.668776 0.156655 0.456437 0.170033
H4    H     H_    0.331217 0.156678 0.543568 0.169951
H5    H     H_    0.326784 0.495344 0.456714 0.127334
H6    H     H_    0.673220 0.495332 0.543282 0.127318
H7    H     H_    0.826780 0.995332 0.456717 0.127318
H8    H     H_    0.173216 0.995344 0.543286 0.127334
H9    H     H_    0.332545 0.509991 0.543134 0.126474
H10   H     H_    0.667459 0.509979 0.456863 0.126548
H11   H     H_    0.832541 0.009979 0.543137 0.126548
H12   H     H_    0.505144 0.690525 0.457403 0.138371
H13   H     H_    0.167455 0.009991 0.456866 0.126474
H14   H     H_    0.402824 0.848699 0.967025 0.237752
H15   H     H_    0.479458 0.990330 0.042243 0.247885
H16   H     H_    0.020549 0.490335 0.957758 0.247896
H17   H     H_    0.097180 0.348712 0.032974 0.237753
H18   H     H_    0.553396 0.961295 0.960228 0.222813
H19   H     H_    0.444828 0.713628 0.039574 0.212591
H20   H     H_    0.055179 0.213638 0.960425 0.212608
H21   H     H_    0.946605 0.461296 0.039767 0.222842
H22   H     H_    0.553749 0.972146 0.039304 0.103394
H23   H     H_    0.994857 0.190525 0.542597 0.138371
H24   H     H_    0.427501 0.727220 0.962655 0.094453
H25   H     H_    0.072508 0.227230 0.037344 0.094457
H26   H     H_    0.946258 0.472155 0.960693 0.103367
H27   H     H_    0.526935 0.688756 0.960256 0.163446
H28   H     H_    0.593900 0.811264 0.029591 0.185532
H29   H     H_    0.906104 0.311276 0.970412 0.185434
H30   H     H_    0.973079 0.188753 0.039734 0.163442
H31   H     H_    0.343419 0.544515 0.960261 0.154287
H32   H     H_    0.676205 0.486550 0.048029 0.207122
H33   H     H_    0.823802 0.986570 0.951975 0.207125
H34   H     H_    0.005136 0.190525 0.457402 0.138326
H35   H     H_    0.156577 0.044531 0.039737 0.154285
H36   H     H_    0.171028 0.656448 0.044173 0.191183
H37   H     H_    0.844069 0.617651 0.963978 0.160732
H38   H     H_    0.655932 0.117656 0.036022 0.160728
H39   H     H_    0.328974 0.156441 0.955827 0.191179
H40   H     H_    0.294001 0.820625 0.055890 0.369461
H41   H     H_    0.449301 0.105221 0.882109 0.374164
H42   H     H_    0.050614 0.605360 0.117877 0.374196
H43   H     H_    0.206004 0.320636 0.944108 0.369462
H44   H     H_    0.607542 0.000658 0.419590 0.324340
H45   H     H_    0.174193 0.670478 0.542649 0.157748
H46   H     H_    0.392449 0.000649 0.580410 0.324368
H47   H     H_    0.107551 0.500650 0.419590 0.324369
H48   H     H_    0.892458 0.500656 0.580410 0.324340
H49   H     H_    0.680228 0.876432 0.935145 0.374042
H50   H     H_    0.534687 0.535738 0.004463 0.382346
H51   H     H_    0.965280 0.035726 0.995534 0.382365
H52   H     H_    0.819723 0.376283 0.064783 0.373991
H53   H     H_    0.372742 0.400143 0.113605 0.391602
H54   H     H_    0.677429 0.344790 0.886492 0.383637
H55   H     H_    0.822596 0.844774 0.113503 0.383660
H56   H     H_    0.825814 0.670455 0.457346 0.157775
H57   H     H_    0.127245 0.900152 0.886400 0.391600
H58   H     H_    0.674186 0.170455 0.542654 0.157776
H59   H     H_    0.325807 0.170478 0.457350 0.157748
H60   H     H_    0.168783 0.656678 0.456432 0.169950
O1    O     O_R   0.237900 0.735050 0.799950 -0.477235
O2    O     O_R   0.566580 0.739640 0.301090 -0.514023
O3    O     O_3   0.159464 0.914255 0.908113 -0.486517
O4    O     O_R   0.933420 0.239640 0.698910 -0.514024
O5    O     O_R   0.066580 0.239640 0.301090 -0.511465
O6    O     O_R   0.323550 0.666510 0.701520 -0.496139
O7    O     O_R   0.676450 0.666510 0.298480 -0.499633
O8    O     O_R   0.823550 0.166510 0.701520 -0.499634
O9    O     O_R   0.176450 0.166510 0.298480 -0.496140
O10   O     O_3   0.334980 0.834990 0.749700 -0.278189
O11   O     O_3   0.665020 0.834990 0.250300 -0.278925
O12   O     O_3   0.834980 0.334990 0.749700 -0.278923
O13   O     O_R   0.762100 0.735050 0.200050 -0.495302
O14   O     O_3   0.165020 0.334990 0.250300 -0.278193
O15   O     O_R   0.256160 0.936210 0.796950 -0.480130
O16   O     O_R   0.743840 0.936210 0.203050 -0.485447
O17   O     O_R   0.756160 0.436210 0.796950 -0.485464
O18   O     O_R   0.243840 0.436210 0.203050 -0.480139
O19   O     O_R   0.333710 0.029860 0.801630 -0.506908
O20   O     O_R   0.666290 0.029860 0.198370 -0.505449
O21   O     O_R   0.833710 0.529860 0.801630 -0.505441
O22   O     O_R   0.166290 0.529860 0.198370 -0.506870
O23   O     O_R   0.425340 0.901920 0.798280 -0.480073
O24   O     O_R   0.737900 0.235050 0.799950 -0.495309
O25   O     O_R   0.574660 0.901920 0.201720 -0.507562
O26   O     O_R   0.925340 0.401920 0.798280 -0.507565
O27   O     O_R   0.074660 0.401920 0.201720 -0.480044
O28   O     O_R   0.433530 0.738890 0.801610 -0.503949
O29   O     O_R   0.566470 0.738890 0.198390 -0.460846
O30   O     O_R   0.933530 0.238890 0.801610 -0.460839
O31   O     O_R   0.066470 0.238890 0.198390 -0.503954
O32   O     O_R   0.323650 0.665810 0.796720 -0.501594
O33   O     O_R   0.676350 0.665810 0.203280 -0.479291
O34   O     O_R   0.823650 0.165810 0.796720 -0.479286
O35   O     O_R   0.262100 0.235050 0.200050 -0.477235
O36   O     O_R   0.176350 0.165810 0.203280 -0.501595
O37   O     O_R   0.237790 0.735800 0.697250 -0.496131
O38   O     O_R   0.762210 0.735800 0.302750 -0.496543
O39   O     O_R   0.737790 0.235800 0.697250 -0.496540
O40   O     O_R   0.262210 0.235800 0.302750 -0.496131
O41   O     O_R   0.256050 0.936910 0.701750 -0.499530
O42   O     O_R   0.743950 0.936910 0.298250 -0.498109
O43   O     O_R   0.756050 0.436910 0.701750 -0.498106
O44   O     O_R   0.243950 0.436910 0.298250 -0.499531
O45   O     O_R   0.333600 0.030610 0.698930 -0.478343
O46   O     O_R   0.425240 0.902610 0.703070 -0.463839
O47   O     O_R   0.666400 0.030610 0.301070 -0.476117
O48   O     O_R   0.833600 0.530610 0.698930 -0.476116
O49   O     O_R   0.166400 0.530610 0.301070 -0.478349
O50   O     O_2   0.388646 0.820844 0.112434 -0.241581
O51   O     O_2   0.380793 0.952520 0.053913 -0.233749
O52   O     O_3   0.325874 0.791017 0.038271 -0.531631
O53   O     O_2   0.404634 0.021541 0.958707 -0.297679
O54   O     O_2   0.483184 0.134709 0.974984 -0.187669
O55   O     O_3   0.477356 0.055094 0.892341 -0.493007
O56   O     O_2   0.095365 0.521550 0.041307 -0.297620
O57   O     O_R   0.574760 0.902610 0.296930 -0.464681
O58   O     O_2   0.016818 0.634712 0.025013 -0.187767
O59   O     O_3   0.022627 0.555105 0.107659 -0.493014
O60   O     O_2   0.111355 0.320879 0.887564 -0.241580
O61   O     O_2   0.119216 0.452530 0.946097 -0.233770
O62   O     O_3   0.174131 0.291017 0.961722 -0.531625
O63   O     O_2   0.473419 0.092507 0.422862 -0.210165
O64   O     O_2   0.551890 0.123515 0.478232 -0.229341
O65   O     O_3   0.573578 0.026614 0.402802 -0.508749
O66   O     O_2   0.526570 0.092510 0.577140 -0.210082
O67   O     O_2   0.448099 0.123509 0.521768 -0.229404
O68   O     O_R   0.925240 0.402610 0.703070 -0.464682
O69   O     O_3   0.426413 0.026606 0.597198 -0.508873
O70   O     O_2   0.973430 0.592510 0.422860 -0.210084
O71   O     O_2   0.051901 0.623509 0.478232 -0.229404
O72   O     O_3   0.073587 0.526606 0.402802 -0.508875
O73   O     O_2   0.026581 0.592507 0.577139 -0.210165
O74   O     O_2   0.948110 0.623515 0.521768 -0.229341
O75   O     O_3   0.926422 0.526614 0.597198 -0.508749
O76   O     O_2   0.648530 0.692739 0.953814 -0.208314
O77   O     O_2   0.600371 0.766205 0.885942 -0.254530
O78   O     O_3   0.642548 0.881521 0.950287 -0.565451
O79   O     O_R   0.074760 0.402610 0.296930 -0.463843
O80   O     O_2   0.617888 0.657184 0.080181 -0.270746
O81   O     O_2   0.516405 0.622741 0.082289 -0.243385
O82   O     O_3   0.573182 0.563347 0.010040 -0.434397
O83   O     O_2   0.882125 0.157215 0.919796 -0.270756
O84   O     O_2   0.983608 0.122736 0.917720 -0.243382
O85   O     O_3   0.926791 0.063364 0.989953 -0.434412
O86   O     O_2   0.851465 0.192762 0.046149 -0.208515
O87   O     O_2   0.899641 0.266048 0.114055 -0.254332
O88   O     O_3   0.857480 0.381530 0.049776 -0.565356
O89   O     O_2   0.408334 0.478700 0.026872 -0.251856
O90   O     O_R   0.433420 0.739640 0.698910 -0.511464
O91   O     O_2   0.384491 0.588657 0.092233 -0.227619
O92   O     O_3   0.340525 0.414245 0.091891 -0.486535
O93   O     O_2   0.629370 0.374296 0.984358 -0.197187
O94   O     O_2   0.629114 0.494925 0.920240 -0.210917
O95   O     O_3   0.700543 0.349355 0.915751 -0.515710
O96   O     O_2   0.870637 0.874317 0.015649 -0.197230
O97   O     O_2   0.870890 0.994954 0.079765 -0.210916
O98   O     O_3   0.799463 0.849381 0.084257 -0.515716
O99   O     O_2   0.091655 0.978746 0.973125 -0.251870
O100  O     O_2   0.115516 0.088679 0.907758 -0.227611
S1    S     S_3+6 0.384931 0.843494 0.060736 0.029271
S2    S     S_3+6 0.564578 0.651600 0.050703 0.019130
S3    S     S_3+6 0.935423 0.151613 0.949291 0.019123
S4    S     S_3+6 0.890077 0.274509 0.061855 0.020015
S5    S     S_3+6 0.362011 0.510564 0.059650 0.055811
S6    S     S_3+6 0.666010 0.429581 0.950336 0.090625
S7    S     S_3+6 0.833995 0.929604 0.049670 0.090626
S8    S     S_3+6 0.137985 0.010588 0.940348 0.055818
S9    S     S_3+6 0.466530 0.041192 0.950362 0.030819
S10   S     S_3+6 0.033467 0.541198 0.049640 0.030814
S11   S     S_3+6 0.115074 0.343508 0.939264 0.029263
S12   S     S_3+6 0.525951 0.049364 0.445254 0.061508
S13   S     S_3+6 0.474039 0.049361 0.554746 0.061478
S14   S     S_3+6 0.025960 0.549361 0.445254 0.061477
S15   S     S_3+6 0.974048 0.549364 0.554746 0.061508
S16   S     S_3+6 0.609933 0.774541 0.938148 0.019996

loop_
_geom_bond_atom_site_label_1
_geom_bond_atom_site_label_2
_ccdc_geom_bond_type
C13   C127  S    
O59   S10   S    
H49   O78   S    
C71   H36   S    
C147  H6    S    
Cr6   O24   S    
Cr1   O1    S    
C48   H18   S    
C49   H19   S    
C45   C116  S    
C54   C56   T    
O73   S15   D    
O92   S5    S    
C16   C145  A    
Cr12  O6    S    
C70   C88   A    
C39   C129  S    
O60   S11   D    
C5    C9    A    
C7    C11   A    
Cr7   O40   S    
C66   C70   A    
C105  C138  S    
C111  C120  A    
C87   C96   S    
C111  H1    S    
C21   C129  T    
C113  C122  A    
C61   C104  S    
O87   S4    D    
C81   C99   S    
C43   C49   S    
C79   C84   A    
Cr8   O10   S    
C3    H8    S    
C110  C126  T    
C145  H4    S    
C35   C105  S    
Cr3   O4    S    
C61   O20   A    
C55   C57   T    
Cr1   O15   S    
C133  C142  A    
Cr3   O34   S    
C47   C127  S    
Cr5   O11   S    
C119  C122  A    
C47   H17   S    
C97   C106  T    
H46   O69   S    
C15   C19   S    
C42   O9    A    
C74   C78   A    
C35   C52   T    
C64   C68   A    
C1    O19   A    
C43   C94   S    
O56   S10   D    
C72   C103  S    
C24   C116  S    
H53   O92   S    
O52   S1    S    
C49   C105  S    
C5    C147  A    
Cr7   O35   S    
C34   O90   A    
C46   C53   T    
C37   C109  S    
O76   S16   D    
H57   O3    S    
C15   C144  A    
O97   S7    D    
C72   O17   A    
O84   S3    D    
C48   C94   S    
Cr1   O10   S    
C36   O2    A    
C2    S16   S    
C38   O5    A    
C44   C48   S    
O86   S4    D    
C68   S6    S    
O53   S9    D    
C144  H3    S    
C27   C32   S    
Br2   C77   S    
C92   O27   A    
Cr2   O29   S    
C119  S15   S    
C12   C17   S    
Cr2   O7    S    
C141  O35   A    
C80   C98   S    
C139  O13   A    
H48   O75   S    
C82   C100  S    
H43   O62   S    
O67   S13   D    
C39   O6    A    
C36   C108  S    
Cr5   O42   S    
Cr12  O28   S    
H52   O88   S    
C1    C106  S    
C111  C112  A    
C142  H60   S    
C118  C123  A    
C89   O23   A    
Cr6   O12   S    
C38   C110  S    
O88   S4    S    
O61   S11   D    
C2    H27   S    
C7    H13   S    
Cr1   O37   S    
C134  C143  A    
Cr7   O18   S    
C37   O4    A    
C138  H28   S    
C57   C116  S    
C64   C81   A    
O69   S13   S    
C13   H30   S    
C91   O26   A    
C29   C30   S    
C38   O79   A    
C115  C117  A    
C40   C130  S    
C135  C144  A    
C96   C104  T    
Cr12  O10   S    
C13   S4    S    
C14   C143  A    
C6    C10   A    
C46   C94   S    
C45   H26   S    
Cr7   O44   S    
C45   C51   S    
C33   O44   A    
C22   C130  T    
O64   S12   D    
C68   C86   A    
Cr5   O16   S    
Cr9   O11   S    
C122  C128  S    
C4    C8    A    
C49   S1    S    
H41   O55   S    
C32   O48   A    
O55   S9    S    
Cr2   O33   S    
O78   S16   S    
C41   O8    A    
C3    C16   A    
C112  C121  A    
C9    C22   S    
O77   S16   D    
C114  C123  A    
C62   C101  T    
C114  H34   S    
C86   C95   S    
C67   S5    S    
C6    H11   S    
C60   C100  T    
Cr6   O43   S    
C14   C18   S    
C137  O32   A    
O80   S2    D    
C73   H37   S    
H51   O85   S    
Cr4   O31   S    
O95   S6    S    
C23   C131  T    
C9    C134  A    
Cr10  O21   S    
C113  C114  A    
Cr9   O25   S    
C84   C101  S    
Cr3   O12   S    
Cr7   O14   S    
C71   C85   A    
H40   O52   S    
C59   C139  S    
C12   C146  A    
O99   S8    D    
C136  C145  A    
C77   C81   A    
C58   C98   T    
C109  C128  T    
C30   O41   A    
C72   O21   A    
C139  O33   A    
C76   C80   A    
C52   C90   S    
Cr8   O45   S    
Cr2   O2    S    
C2    C94   S    
C40   O7    A    
C43   H14   S    
Cr10  O68   S    
C40   O38   A    
Cr3   O30   S    
Cr9   O57   S    
C41   O39   A    
C24   S3    S    
C48   S9    S    
Cr3   O8    S    
O89   S5    D    
C6    C148  A    
C107  C125  T    
Cr2   O11   S    
C61   O16   A    
C65   C69   A    
O66   S13   D    
C10   C23   S    
C2    C138  S    
O91   S5    D    
C47   H25   S    
C89   O28   A    
Cr10  O12   S    
Cr5   O38   S    
Cr12  O32   S    
O83   S3    D    
C56   C127  S    
C11   C25   S    
Cr12  O90   S    
C73   C86   A    
O72   S14   S    
C92   O31   A    
C59   C99   T    
C90   O29   A    
C39   O37   A    
C83   O18   A    
Cr4   O14   S    
C78   C82   A    
C26   C33   S    
C133  H45   S    
Cr1   O41   S    
C117  S13   S    
C73   C77   A    
C64   H32   S    
C138  S2    S    
C91   O30   A    
C88   C97   S    
O62   S11   S    
C115  C121  A    
Cr5   O13   S    
C51   C127  S    
C32   O43   A    
C50   H20   S    
H42   O59   S    
Cr8   O23   S    
C14   C147  A    
O85   S3    S    
H50   O82   S    
C11   C136  A    
Cr11  O49   S    
C37   O68   A    
C115  S12   S    
C1    O15   A    
O74   S15   D    
O71   S14   D    
O65   S12   S    
O93   S6    D    
C95   C103  T    
C17   C26   T    
C20   C29   T    
C19   C28   T    
Cr11  O27   S    
O82   S2    S    
C75   C79   A    
C69   S7    S    
Br4   C79   S    
O96   S7    D    
C120  C125  S    
C63   C67   A    
H54   O95   S    
C108  C124  T    
C25   C132  T    
Cr6   O39   S    
C62   C141  S    
H55   O98   S    
Br1   C76   S    
Cr11  O22   S    
C66   H35   S    
C50   C116  S    
O75   S15   S    
C4    C146  A    
C66   C84   A    
C118  S14   S    
O63   S12   D    
Cr9   O47   S    
C3    C7    A    
Cr10  O48   S    
O58   S10   D    
C146  H5    S    
C42   O40   A    
C15   C148  A    
C12   C142  A    
C50   S11   S    
C54   C92   S    
C117  C120  A    
C33   O49   A    
Cr4   O5    S    
C16   C20   S    
Cr9   O20   S    
C121  C124  S    
C30   O45   A    
C140  O34   A    
H47   O72   S    
C45   H16   S    
Cr11  O79   S    
O50   S1    D    
C44   C105  S    
C41   C131  S    
C134  H56   S    
C63   C80   A    
C31   O42   A    
C53   C89   S    
O70   S14   D    
C141  O36   A    
C65   H33   S    
C55   C91   S    
C63   H31   S    
C137  O1    A    
C36   O57   A    
C18   C27   T    
C112  H12   S    
C28   C31   S    
C69   C87   A    
C113  H23   S    
C148  H7    S    
C4    H9    S    
C60   C140  S    
C85   C93   S    
Cr6   O17   S    
C44   H22   S    
C143  H2    S    
O3    S8    S    
C34   O46   A    
C67   C85   A    
Cr4   O9    S    
Br3   C78   S    
C24   H29   S    
C5    H10   S    
C75   C88   A    
Cr11  O14   S    
C70   S8    S    
C135  H58   S    
C75   H39   S    
O81   S2    D    
C140  O24   A    
O51   S1    D    
C93   C102  T    
C58   C137  S    
C90   O25   A    
C83   O22   A    
C71   C76   A    
C13   C24   S    
C74   H38   S    
O54   S9    D    
C31   O47   A    
C136  H59   S    
C74   C87   A    
O100  S8    D    
Cr8   O46   S    
C8    C21   S    
C47   C50   S    
C43   H24   S    
C123  C126  S    
Cr10  O26   S    
C83   C102  S    
O98   S7    S    
C51   H21   S    
Cr8   O19   S    
H44   O65   S    
C42   C132  S    
C10   C135  A    
C118  C119  A    
C51   S10   S    
C8    C133  A    
O94   S6    D    
C34   C107  S    
C44   H15   S    
C65   C82   A    
Cr4   O36   S    
