data_mof_unit_10247.cif
_audit_creation_date              2012-12-11T16:26:31-0500
_audit_creation_method            fapswitch 2.2
_symmetry_space_group_name_H-M    P1
_symmetry_Int_Tables_number       1
_space_group_crystal_system       triclinic
_cell_length_a                    6.939453
_cell_length_b                    17.410592
_cell_length_c                    19.659913
_cell_angle_alpha                 108.470634
_cell_angle_beta                  89.760765
_cell_angle_gamma                 90.488478
_cell_volume                      2252.86443233

loop_
_atom_site_label
_atom_site_type_symbol
_atom_type_description
_atom_site_fract_x
_atom_site_fract_y
_atom_site_fract_z
_atom_type_partial_charge
O1    O     O_R   0.494330 0.415720 0.413720 -0.541314
O2    O     O_R   0.819330 0.430070 0.560210 -0.550719
O3    O     O_R   0.994320 0.584280 0.586280 -0.538683
C1    C     C_R   0.650523 0.414866 0.581802 0.701788
O4    O     O_R   0.823730 0.406300 0.412670 -0.532488
O5    O     O_R   0.998760 0.560340 0.437690 -0.515024
C2    C     C_R   0.654181 0.383300 0.385113 0.715992
O6    O     O_R   0.489890 0.439660 0.562310 -0.536358
O7    O     O_3   0.662340 0.550560 0.508380 -0.368656
V1    V     V_3+5 0.935370 0.490620 0.498450 1.429095
O8    O     O_R   0.328750 0.569930 0.439790 -0.559980
C3    C     C_R   0.161031 0.581602 0.415539 0.739058
O9    O     O_R   0.324340 0.593700 0.587330 -0.544451
C4    C     C_R   0.154881 0.618445 0.613909 0.705827
V2    V     V_3+5 0.435940 0.509380 0.501550 1.406496
O10   O     O_3   0.159100 0.449440 0.491620 -0.369991
H1    H     H_    0.411066 0.879358 0.588470 0.125075
C5    C     C_R   0.004219 0.594880 0.742655 -0.144053
C6    C     C_R   0.926856 0.580785 0.803129 -0.130792
C7    C     C_R   0.911048 0.643862 0.867110 -0.119450
C8    C     C_R   0.973901 0.721357 0.871224 -0.136441
C9    C     C_R   0.051528 0.737894 0.810487 0.071880
C10   C     C_R   0.065327 0.673503 0.744402 0.069039
C11   C     C_R   0.124001 0.815939 0.815888 -0.169733
C12   C     C_R   0.214253 0.829092 0.755430 0.030046
C13   C     C_R   0.207309 0.767855 0.686906 0.018895
C14   C     C_R   0.141343 0.688018 0.682089 -0.183293
C15   C     C_R   0.307160 0.903896 0.761357 -0.155316
C16   C     C_R   0.391052 0.918294 0.702407 -0.199291
C17   C     C_R   0.364174 0.863296 0.634874 -0.141077
C18   C     C_R   0.262543 0.791223 0.625902 0.288828
H2    H     H_    0.880384 0.520345 0.800406 0.117881
H3    H     H_    0.852475 0.632489 0.914186 0.126939
H4    H     H_    0.964142 0.767449 0.923033 0.105482
H5    H     H_    0.463633 0.975405 0.708451 0.139756
C19   C     C_R   0.018660 0.608589 0.307269 0.249978
C20   C     C_R   0.152870 0.628738 0.364361 -0.121574
C21   C     C_R   0.278602 0.694599 0.373205 -0.276459
C22   C     C_R   0.267825 0.742749 0.328214 0.114288
C23   C     C_R   0.133456 0.723894 0.271493 0.015445
C24   C     C_R   0.009327 0.656096 0.260252 -0.006347
C25   C     C_R   0.389029 0.810225 0.339827 -0.166088
C26   C     C_R   0.379110 0.858943 0.295753 -0.192764
C27   C     C_R   0.250160 0.840495 0.237382 0.042663
C28   C     C_R   0.125314 0.772515 0.225579 -0.032521
C29   C     C_R   0.992945 0.752964 0.167969 0.070736
C30   C     C_R   0.870301 0.684907 0.156497 0.296349
C31   C     C_R   0.881358 0.636915 0.201713 -0.260961
C32   C     C_R   0.241906 0.888376 0.190818 0.234194
C33   C     C_R   0.111989 0.867488 0.132541 -0.132247
C34   C     C_R   0.988382 0.800736 0.122107 -0.280283
H6    H     H_    0.382630 0.709677 0.416520 0.147300
H7    H     H_    0.890856 0.785392 0.076806 0.172263
C35   C     C_R   0.466013 0.183107 0.864238 -0.213759
C36   C     C_R   0.620502 0.132477 0.867264 -0.118999
C37   C     C_R   0.778151 0.126911 0.821110 -0.187677
C38   C     C_R   0.783075 0.170670 0.771678 0.015758
C39   C     C_R   0.631016 0.224017 0.771473 -0.018138
C40   C     C_R   0.471725 0.229884 0.817826 0.127575
C41   C     C_R   0.935824 0.160930 0.721948 0.218455
C42   C     C_R   0.944016 0.209336 0.675931 0.224914
C43   C     C_R   0.794181 0.264731 0.677549 0.012578
C44   C     C_R   0.636008 0.270664 0.724305 -0.020029
C45   C     C_R   0.481621 0.323159 0.723816 0.121688
C46   C     C_R   0.325070 0.328622 0.770460 -0.190967
C47   C     C_R   0.319884 0.282218 0.816848 -0.198902
C48   C     C_R   0.797435 0.313439 0.632214 -0.193503
C49   C     C_R   0.643077 0.364754 0.630552 -0.109522
C50   C     C_R   0.484964 0.368814 0.676327 -0.188325
H8    H     H_    0.342308 0.187375 0.899084 0.122198
H9    H     H_    0.895884 0.087380 0.823393 0.160818
H10   H     H_    0.365899 0.408607 0.675916 0.122968
H11   H     H_    0.847693 0.127230 0.419334 0.104551
C51   C     C_R   0.505271 0.407404 0.256128 -0.170661
C52   C     C_R   0.457266 0.424906 0.194197 -0.202575
C53   C     C_R   0.482688 0.367252 0.127799 -0.166106
C54   C     C_R   0.552776 0.290270 0.122279 0.283222
C55   C     C_R   0.581793 0.267844 0.185328 0.036250
C56   C     C_R   0.572409 0.329908 0.253245 0.024633
C57   C     C_R   0.627750 0.187154 0.182445 -0.201740
C58   C     C_R   0.690771 0.172233 0.245784 0.051402
C59   C     C_R   0.698113 0.236261 0.312314 0.073283
C60   C     C_R   0.640428 0.315342 0.316097 -0.181184
C61   C     C_R   0.744856 0.093519 0.244488 -0.168686
C62   C     C_R   0.799125 0.077858 0.306782 -0.147750
C63   C     C_R   0.805465 0.140153 0.371443 -0.114455
C64   C     C_R   0.756257 0.218599 0.374629 -0.132759
H12   H     H_    0.408639 0.484975 0.197659 0.132724
H13   H     H_    0.458693 0.384098 0.080005 0.114337
H14   H     H_    0.743029 0.042603 0.195728 0.117841
H15   H     H_    0.760792 0.264628 0.426670 0.096483
O11   O     O_R   0.775200 0.060470 0.937800 -0.539829
O12   O     O_R   0.441110 0.093720 0.087350 -0.531617
O13   O     O_R   0.266330 0.939630 0.062280 -0.516816
C65   C     C_R   0.611066 0.117856 0.114284 0.801002
O14   O     O_R   0.445750 0.069950 0.939820 -0.546609
O15   O     O_R   0.271000 0.915700 0.913700 -0.542303
C66   C     C_R   0.614047 0.083868 0.917220 0.734169
O16   O     O_R   0.770530 0.084400 0.086380 -0.539146
O17   O     O_3   0.602830 0.949510 0.991680 -0.369093
V3    V     V_3+5 0.329710 0.009370 0.001550 1.433922
O18   O     O_R   0.940990 0.906170 0.912570 -0.542087
C67   C     C_R   0.110453 0.883555 0.884930 0.684996
O19   O     O_R   0.936350 0.929940 0.060100 -0.555057
C68   C     C_R   0.104380 0.915369 0.082026 0.743227
V4    V     V_3+5 0.829160 0.990450 0.998310 1.413270
O20   O     O_3   0.105910 0.050480 0.008320 -0.374126
H16   H     H_    0.491399 0.825884 0.383677 0.119854
H17   H     H_    0.474071 0.911019 0.308448 0.130591
N1    N     N_2   0.357732 0.959368 0.203133 -0.522460
H18   H     H_    0.498563 0.954221 0.217126 0.243962
C69   C     C_3   0.263905 0.032764 0.245762 -0.515353
H19   H     H_    0.233142 0.030294 0.300548 0.189490
H20   H     H_    0.128320 0.041243 0.219511 0.197022
H21   H     H_    0.357005 0.085885 0.250032 0.203631
N2    N     N_2   0.735927 0.663468 0.098854 -0.538365
H22   H     H_    0.718539 0.601786 0.075439 0.251917
C70   C     C_3   0.552922 0.704226 0.116272 -0.546675
H23   H     H_    0.460343 0.687997 0.067783 0.198825
H24   H     H_    0.574168 0.770968 0.135085 0.210492
H25   H     H_    0.478377 0.685399 0.158645 0.201535
H26   H     H_    0.787252 0.584589 0.190024 0.138550
N3    N     N_2   0.070095 0.097117 0.714116 -0.523399
H27   H     H_    0.212071 0.108260 0.704789 0.261747
C71   C     C_3   0.000406 0.016686 0.674185 -0.542872
H28   H     H_    0.094250 0.989469 0.626951 0.191692
H29   H     H_    0.850185 0.017474 0.654810 0.188618
H30   H     H_    0.002583 0.977820 0.709218 0.213203
H31   H     H_    0.016766 0.542895 0.695015 0.112797
N4    N     N_2   0.097831 0.200360 0.625745 -0.516916
H32   H     H_    0.232813 0.193305 0.644301 0.266308
C72   C     C_3   0.058268 0.144251 0.555363 -0.569331
H33   H     H_    0.169693 0.151241 0.517020 0.199749
H34   H     H_    0.915013 0.156602 0.536525 0.196130
H35   H     H_    0.060409 0.081052 0.556659 0.204086
H36   H     H_    0.919148 0.310702 0.596903 0.170212
H37   H     H_    0.205357 0.368225 0.770520 0.127765
H38   H     H_    0.196380 0.287037 0.851840 0.124836
H39   H     H_    0.493001 0.456393 0.305953 0.133097
N5    N     N_2   0.622293 0.241817 0.054323 -0.539407
H40   H     H_    0.541279 0.247062 0.012238 0.242201
C73   C     C_3   0.825868 0.254290 0.044310 -0.529926
H41   H     H_    0.873060 0.214920 0.990785 0.198367
H42   H     H_    0.912360 0.239117 0.085693 0.205754
H43   H     H_    0.854443 0.318312 0.047622 0.179902
H44   H     H_    0.837066 0.016959 0.304739 0.116214
H45   H     H_    0.315837 0.953165 0.810950 0.140239
N6    N     N_2   0.190517 0.752436 0.556153 -0.552969
H46   H     H_    0.247924 0.697147 0.530297 0.254872
C74   C     C_3   0.986414 0.762088 0.546620 -0.527814
H47   H     H_    0.948822 0.736277 0.489023 0.195599
H48   H     H_    0.948998 0.827404 0.564640 0.195511
H49   H     H_    0.899956 0.730678 0.577556 0.200166
N7    N     N_2   0.900927 0.538288 0.296090 -0.518359
H50   H     H_    0.759469 0.544174 0.283154 0.251009
C75   C     C_3   0.991415 0.464427 0.252725 -0.524410
H51   H     H_    0.024083 0.467487 0.198256 0.188513
H52   H     H_    0.895491 0.412033 0.247495 0.207455
H53   H     H_    0.125086 0.454139 0.279040 0.197561

loop_
_geom_bond_atom_site_label_1
_geom_bond_atom_site_label_2
_ccdc_geom_bond_type
C27   C32   A    
V3    O20   S    
C2    C60   S    
C36   C37   A    
O13   C68   A    
C64   H15   S    
C50   H10   S    
C35   C36   A    
O2    C1    A    
C6    C7    A    
C54   N5    S    
C1    O6    A    
O19   V4    S    
C58   C59   A    
O11   C66   A    
N3    H27   S    
C54   C55   A    
N2    H22   S    
C12   C15   A    
C13   C14   A    
C16   C17   A    
C43   C48   A    
C9    C11   A    
C8    C9    A    
C15   C16   A    
N5    C73   S    
C40   C47   A    
C31   H26   S    
C17   C18   A    
C65   O16   A    
N3    C71   S    
C21   H6    S    
V4    O20   S    
V2    O10   S    
C37   C38   A    
C5    C6    A    
C3    C20   S    
C70   H23   S    
C69   H19   S    
N1    H18   S    
O8    V2    S    
C61   C62   A    
O13   V3    S    
C49   C50   A    
C56   C60   A    
C74   H49   S    
O14   C66   A    
C71   H30   S    
O1    V2    S    
C10   C14   A    
C4    C14   S    
O7    V1    S    
N7    C75   S    
C42   C43   A    
C53   H13   S    
C46   H37   S    
C13   C18   A    
O12   C65   A    
O1    C2    A    
O14   V3    S    
H1    C17   S    
C73   H43   S    
C19   C24   A    
C23   C28   A    
C61   H14   S    
C6    H2    S    
C69   H20   S    
O19   C68   A    
C22   C25   A    
C70   H24   S    
C35   C40   A    
N5    H40   S    
C30   N2    S    
C73   H41   S    
C51   C52   A    
C19   N7    S    
C48   C49   A    
C62   H44   S    
O12   V3    S    
C22   C23   A    
C1    C49   S    
C55   C56   A    
C72   H33   S    
C38   C41   A    
C8    H4    S    
C12   C13   A    
C62   C63   A    
C29   C34   A    
C59   C60   A    
C5    C10   A    
C41   C42   A    
C34   H7    S    
C70   H25   S    
C41   N3    S    
N4    C72   S    
C52   C53   A    
C20   C21   A    
C33   C68   S    
N4    H32   S    
C30   C31   A    
C35   H8    S    
C37   H9    S    
O15   V3    S    
C43   C44   A    
C33   C34   A    
C45   C50   A    
C11   C12   A    
C57   C65   S    
N7    H50   S    
O15   C67   A    
O3    C4    A    
C42   N4    S    
C18   N6    S    
O11   V4    S    
C23   C24   A    
C46   C47   A    
O6    V2    S    
C51   C56   A    
O9    V2    S    
C26   C27   A    
C71   H28   S    
C74   H48   S    
C25   C26   A    
C7    H3    S    
O2    V1    S    
C58   C61   A    
C27   C28   A    
O4    C2    A    
C39   C44   A    
O16   V4    S    
C29   C30   A    
C75   H51   S    
C15   H45   S    
C63   C64   A    
C75   H53   S    
N6    C74   S    
C57   C58   A    
O5    V1    S    
O8    C3    A    
C51   H39   S    
C16   H5    S    
O17   V4    S    
C74   H47   S    
C11   C67   S    
C45   C46   A    
C75   H52   S    
C48   H36   S    
C39   C40   A    
O4    V1    S    
O3    V1    S    
V1    O10   S    
O5    C3    A    
C53   C54   A    
C38   C39   A    
C21   C22   A    
C19   C20   A    
C72   H35   S    
C36   C66   S    
O17   V3    S    
C24   C31   A    
N2    C70   S    
O18   V4    S    
C55   C57   A    
N6    H46   S    
O7    V2    S    
O18   C67   A    
N1    C69   S    
H11   C63   S    
C47   H38   S    
C44   C45   A    
C28   C29   A    
C52   H12   S    
C7    C8    A    
C72   H34   S    
C32   C33   A    
C71   H29   S    
C9    C10   A    
C5    H31   S    
C26   H17   S    
O9    C4    A    
C25   H16   S    
C69   H21   S    
C73   H42   S    
C59   C64   A    
C32   N1    S    
