data_mof_unit_41373.cif
_audit_creation_date              2013-03-05T15:51:42-0500
_audit_creation_method            fapswitch 2.2
_symmetry_space_group_name_H-M    P1
_symmetry_Int_Tables_number       1
_space_group_crystal_system       triclinic
_cell_length_a                    30.145048
_cell_length_b                    22.601587
_cell_length_c                    18.468983
_cell_angle_alpha                 89.937015
_cell_angle_beta                  124.653508
_cell_angle_gamma                 90.111643
_cell_volume                      10351.1544563

loop_
_atom_site_label
_atom_site_type_symbol
_atom_site_description
_atom_site_fract_x
_atom_site_fract_y
_atom_site_fract_z
_atom_type_partial_charge
C1    C     C_R   0.545199 0.581096 0.742069 -0.208193
C2    C     C_R   0.466367 0.392910 0.291329 -0.169907
C3    C     C_R   0.453913 0.579426 0.256651 -0.197632
C4    C     C_R   0.542891 0.413685 0.737193 -0.166158
C5    C     C_R   0.045953 0.079503 0.743152 -0.192842
C6    C     C_R   0.969180 0.891066 0.298002 -0.159083
C7    C     C_R   0.957514 0.090304 0.265970 -0.191679
C8    C     C_R   0.033419 0.892802 0.708441 -0.161845
H1    H     H_    0.519479 0.577386 0.765271 0.121125
H2    H     H_    0.497977 0.381503 0.283070 0.122807
H3    H     H_    0.479582 0.574806 0.233514 0.120627
H4    H     H_    0.516470 0.415782 0.759143 0.116012
H5    H     H_    0.020118 0.074959 0.766012 0.121154
H6    H     H_    0.001512 0.879523 0.291658 0.124763
H7    H     H_    0.985040 0.095105 0.246708 0.114374
H8    H     H_    0.001670 0.881312 0.716424 0.124694
N1    N     N_R   0.532910 0.558440 0.665240 -0.060511
N2    N     N_R   0.467090 0.441560 0.334760 -0.063731
N3    N     N_R   0.467090 0.558440 0.334760 -0.061367
N4    N     N_R   0.532910 0.441560 0.665240 -0.061288
N5    N     N_R   0.032910 0.058440 0.665240 -0.060451
N6    N     N_R   0.967090 0.941560 0.334760 -0.064138
N7    N     N_R   0.967090 0.058440 0.334760 -0.059027
N8    N     N_R   0.032910 0.941560 0.665240 -0.065010
C9    C     C_R   0.628897 0.606711 0.571904 -0.083896
C10   C     C_R   0.352422 0.428908 0.427176 0.035403
C11   C     C_R   0.372323 0.607440 0.426275 -0.101977
C12   C     C_R   0.646571 0.423231 0.574204 -0.040704
C13   C     C_R   0.128448 0.106898 0.574351 -0.101516
C14   C     C_R   0.852206 0.930069 0.427040 0.037712
C15   C     C_R   0.872249 0.107404 0.425509 -0.056421
C16   C     C_R   0.147685 0.929239 0.573230 0.038562
H9    H     H_    0.659355 0.619765 0.637022 0.194164
H10   H     H_    0.317578 0.439978 0.362491 0.166006
H11   H     H_    0.343993 0.620567 0.359546 0.179382
H12   H     H_    0.681393 0.431911 0.639287 0.176183
H13   H     H_    0.156657 0.119878 0.641185 0.179666
H14   H     H_    0.817667 0.941670 0.362384 0.162978
H15   H     H_    0.843709 0.119842 0.357769 0.178889
H16   H     H_    0.182397 0.940260 0.638092 0.165019
N9    N     N_R   0.597030 0.558910 0.545540 -0.047990
N10   N     N_R   0.402970 0.441090 0.454460 -0.057833
N11   N     N_R   0.402970 0.558910 0.454460 -0.049080
N12   N     N_R   0.597030 0.441090 0.545540 -0.053352
N13   N     N_R   0.097030 0.058910 0.545540 -0.049893
N14   N     N_R   0.902970 0.941090 0.454460 -0.056852
N15   N     N_R   0.902970 0.058910 0.454460 -0.056171
N16   N     N_R   0.097030 0.941090 0.545540 -0.057114
C17   C     C_R   0.577479 0.607461 0.425491 -0.107799
C18   C     C_R   0.402606 0.422797 0.571885 -0.085813
C19   C     C_R   0.422706 0.608309 0.573196 -0.108947
C20   C     C_R   0.597215 0.421458 0.428689 -0.116809
C21   C     C_R   0.079112 0.107569 0.427731 -0.108193
C22   C     C_R   0.902024 0.923981 0.571447 -0.104718
C23   C     C_R   0.922748 0.108292 0.573009 -0.135594
C24   C     C_R   0.098020 0.923875 0.428741 -0.113532
H17   H     H_    0.559423 0.619139 0.357464 0.109690
H18   H     H_    0.414554 0.424343 0.639240 0.090778
H19   H     H_    0.440381 0.620541 0.640893 0.108969
H20   H     H_    0.586070 0.424801 0.361940 0.090900
H21   H     H_    0.063713 0.119425 0.360928 0.103881
H22   H     H_    0.913623 0.926264 0.638562 0.091915
H23   H     H_    0.940191 0.120427 0.640698 0.117602
H24   H     H_    0.086692 0.926413 0.361788 0.094353
N17   N     N_R   0.566200 0.559270 0.454460 -0.047555
N18   N     N_R   0.433800 0.440730 0.545540 -0.049275
N19   N     N_R   0.433800 0.559270 0.545540 -0.049953
N20   N     N_R   0.566200 0.440730 0.454460 -0.044838
N21   N     N_R   0.066200 0.059270 0.454460 -0.049395
N22   N     N_R   0.933800 0.940730 0.545540 -0.049069
N23   N     N_R   0.933800 0.059270 0.545540 -0.049382
N24   N     N_R   0.066200 0.940730 0.454460 -0.049669
C25   C     C_R   0.380476 0.581528 0.256845 0.308408
C26   C     C_R   0.616247 0.409288 0.736267 0.338909
C27   C     C_R   0.618247 0.584062 0.741854 0.307530
C28   C     C_R   0.392128 0.392323 0.290067 0.371446
C29   C     C_R   0.882319 0.087331 0.261590 0.259065
C30   C     C_R   0.107694 0.892271 0.709810 0.372079
C31   C     C_R   0.119520 0.081509 0.743280 0.308285
C32   C     C_R   0.895173 0.889307 0.297394 0.373850
N25   N     N_R   0.421050 0.559750 0.334770 -0.091711
N26   N     N_R   0.578950 0.440250 0.665230 -0.096530
N27   N     N_R   0.578950 0.559750 0.665230 -0.094798
N28   N     N_R   0.421050 0.440250 0.334770 -0.092900
N29   N     N_R   0.921050 0.059750 0.334770 -0.086002
N30   N     N_R   0.078950 0.940250 0.665230 -0.093586
N31   N     N_R   0.078950 0.059750 0.665230 -0.091929
N32   N     N_R   0.921050 0.940250 0.334770 -0.088492
C33   C     C_R   0.598980 0.598273 0.792198 -0.056984
C34   C     C_R   0.419680 0.359386 0.263004 -0.076109
C35   C     C_R   0.399409 0.594561 0.204821 -0.059266
C36   C     C_R   0.595491 0.392365 0.784719 -0.059914
C37   C     C_R   0.100480 0.094591 0.795124 -0.059827
C38   C     C_R   0.924891 0.855738 0.275267 -0.083286
C39   C     C_R   0.905573 0.112898 0.221904 -0.012620
C40   C     C_R   0.080026 0.859280 0.736775 -0.074996
C41   C     C_R   0.616397 0.638286 0.498954 -0.006163
C42   C     C_R   0.350863 0.415444 0.497899 0.002743
C43   C     C_R   0.384574 0.639495 0.498791 0.006082
C44   C     C_R   0.648319 0.410721 0.503041 0.011088
C45   C     C_R   0.117102 0.138615 0.502297 0.006438
C46   C     C_R   0.850236 0.917188 0.497412 0.009165
C47   C     C_R   0.884786 0.139352 0.498414 -0.001198
C48   C     C_R   0.149612 0.916252 0.502857 0.010267
Ni1   Ni    Ni4+2 0.483090 0.500000 0.604440 0.198212
Ni2   Ni    Ni4+2 0.516910 0.500000 0.395560 0.203979
Ni3   Ni    Ni4+2 0.983090 0.000000 0.604440 0.201854
Ni4   Ni    Ni4+2 0.016910 0.000000 0.395560 0.208513
Ni5   Ni    Ni4+2 0.586780 0.500000 0.604440 0.300994
Ni6   Ni    Ni4+2 0.413220 0.500000 0.395560 0.306282
Ni7   Ni    Ni4+2 0.086780 0.000000 0.604440 0.305309
Ni8   Ni    Ni4+2 0.913220 0.000000 0.395560 0.310018
C49   C     C_R   0.276332 0.749272 0.435651 -0.050140
C50   C     C_R   0.784393 0.347982 0.588705 -0.059424
C51   C     C_R   0.724465 0.747936 0.559126 -0.052772
C52   C     C_R   0.219617 0.342533 0.415191 -0.066499
C53   C     C_R   0.775525 0.240873 0.454338 -0.047663
C54   C     C_R   0.280345 0.842013 0.586392 -0.067049
C55   C     C_R   0.224714 0.249722 0.566428 -0.050541
C56   C     C_R   0.718148 0.845493 0.412065 -0.062609
C57   C     C_R   0.303330 0.699717 0.434999 -0.175856
C58   C     C_R   0.742946 0.376377 0.587285 -0.132819
C59   C     C_R   0.697896 0.697611 0.559008 -0.161637
C60   C     C_R   0.259864 0.372695 0.415364 -0.105927
C61   C     C_R   0.802635 0.191369 0.454047 -0.089336
C62   C     C_R   0.240253 0.872679 0.585889 -0.106729
C63   C     C_R   0.198065 0.199556 0.566588 -0.174158
C64   C     C_R   0.758438 0.876305 0.413158 -0.109855
H25   H     H_    0.280328 0.662659 0.392616 0.160906
H26   H     H_    0.743651 0.375470 0.646493 0.164600
H27   H     H_    0.721155 0.659815 0.598860 0.162936
H28   H     H_    0.261915 0.367812 0.358986 0.187458
H29   H     H_    0.780809 0.150379 0.424746 0.150287
H30   H     H_    0.237965 0.868028 0.642068 0.188103
H31   H     H_    0.221259 0.162469 0.608580 0.160421
H32   H     H_    0.760103 0.872842 0.356254 0.179992
C65   C     C_R   0.359127 0.694864 0.494706 0.127029
C66   C     C_R   0.697573 0.397672 0.507962 0.138067
C67   C     C_R   0.641890 0.693390 0.502078 0.126334
C68   C     C_R   0.301736 0.400766 0.491923 0.114870
C69   C     C_R   0.858220 0.193017 0.495570 0.136172
C70   C     C_R   0.198798 0.901069 0.509282 0.112246
C71   C     C_R   0.142339 0.194247 0.506785 0.127906
C72   C     C_R   0.800849 0.902822 0.490919 0.116711
C73   C     C_R   0.389457 0.742026 0.549955 -0.118732
C74   C     C_R   0.698173 0.400199 0.432762 -0.121121
C75   C     C_R   0.611119 0.741476 0.450196 -0.114940
C76   C     C_R   0.298333 0.407930 0.563803 -0.112559
C77   C     C_R   0.887541 0.244982 0.534024 -0.071321
C78   C     C_R   0.202480 0.907777 0.437598 -0.111871
C79   C     C_R   0.111650 0.241490 0.452322 -0.117062
C80   C     C_R   0.797876 0.907954 0.563482 -0.117144
H33   H     H_    0.432882 0.738730 0.595138 0.119478
H34   H     H_    0.664827 0.418677 0.371651 0.106488
H35   H     H_    0.567544 0.738583 0.407373 0.119622
H36   H     H_    0.329427 0.431217 0.622353 0.108952
H37   H     H_    0.930741 0.246084 0.565491 0.117219
H38   H     H_    0.171714 0.931181 0.378949 0.110873
H39   H     H_    0.068227 0.237816 0.407254 0.119945
H40   H     H_    0.829365 0.929960 0.623088 0.110383
C81   C     C_R   0.363445 0.793288 0.548152 -0.119854
C82   C     C_R   0.739709 0.373186 0.433442 -0.126503
C83   C     C_R   0.636813 0.793341 0.452820 -0.120130
C84   C     C_R   0.256859 0.380375 0.563192 -0.123613
C85   C     C_R   0.860939 0.295560 0.532634 -0.077799
C86   C     C_R   0.243821 0.879734 0.438560 -0.122618
C87   C     C_R   0.137301 0.293314 0.454696 -0.120915
C88   C     C_R   0.756457 0.879619 0.562164 -0.129307
H41   H     H_    0.883811 0.335500 0.564465 0.122033
H42   H     H_    0.243785 0.880895 0.379871 0.126089
H43   H     H_    0.113621 0.329014 0.409917 0.122185
H44   H     H_    0.757193 0.879089 0.621509 0.127357
H45   H     H_    0.386887 0.828953 0.593318 0.123578
H46   H     H_    0.736759 0.369613 0.372314 0.130211
H47   H     H_    0.612986 0.829902 0.410368 0.123280
H48   H     H_    0.257148 0.381671 0.622107 0.126247
C89   C     C_R   0.306952 0.796169 0.494240 0.049604
C90   C     C_R   0.780000 0.342652 0.508607 0.025030
C91   C     C_R   0.693305 0.796019 0.504228 0.049837
C92   C     C_R   0.220382 0.343664 0.492438 0.022601
C93   C     C_R   0.805491 0.293242 0.495509 0.047603
C94   C     C_R   0.279947 0.842978 0.509474 0.024206
C95   C     C_R   0.193770 0.296655 0.508312 0.049342
C96   C     C_R   0.719509 0.844287 0.489818 0.022821
C97   C     C_R   0.368388 0.611298 0.109795 0.106033
C98   C     C_R   0.625232 0.369418 0.876427 0.106901
C99   C     C_R   0.630833 0.619136 0.884730 0.108495
C100  C     C_R   0.405602 0.298875 0.221254 0.120972
C101  C     C_R   0.888632 0.169651 0.173987 0.121107
C102  C     C_R   0.094041 0.798780 0.778629 0.119618
C103  C     C_R   0.131369 0.111251 0.890146 0.105172
C104  C     C_R   0.914358 0.793913 0.240868 0.121136
C105  C     C_R   0.367139 0.657011 0.989689 -0.154428
C106  C     C_R   0.625884 0.324883 0.996853 -0.156128
C107  C     C_R   0.634997 0.669908 0.003223 -0.156267
C108  C     C_R   0.426697 0.212233 0.167045 -0.142407
C109  C     C_R   0.905596 0.252658 0.109963 -0.149957
C110  C     C_R   0.072964 0.712159 0.833272 -0.137177
C111  C     C_R   0.132439 0.156836 0.010051 -0.153178
C112  C     C_R   0.938481 0.707733 0.191287 -0.138500
C113  C     C_R   0.395659 0.635675 0.075549 -0.156646
C114  C     C_R   0.597522 0.348052 0.911719 -0.148830
C115  C     C_R   0.605000 0.647795 0.917995 -0.158185
C116  C     C_R   0.440669 0.268232 0.207089 -0.147600
C117  C     C_R   0.917772 0.195566 0.144174 -0.165996
C118  C     C_R   0.058978 0.768075 0.792940 -0.137062
C119  C     C_R   0.104016 0.135611 0.924145 -0.154397
C120  C     C_R   0.952198 0.762562 0.234169 -0.131161
C121  C     C_R   0.311881 0.605256 0.053421 -0.103674
C122  C     C_R   0.681689 0.370112 0.930260 -0.112647
C123  C     C_R   0.687319 0.612005 0.939489 -0.108191
C124  C     C_R   0.357409 0.270090 0.196845 -0.092218
C125  C     C_R   0.847656 0.202140 0.169782 -0.118665
C126  C     C_R   0.142240 0.770114 0.803183 -0.091830
C127  C     C_R   0.187824 0.105104 0.946788 -0.103603
C128  C     C_R   0.865385 0.765831 0.211911 -0.090026
C129  C     C_R   0.281733 0.630900 0.968924 0.094507
C130  C     C_R   0.711202 0.345818 0.015078 0.097026
C131  C     C_R   0.719307 0.642101 0.020134 0.084952
C132  C     C_R   0.345774 0.211618 0.165964 0.097369
C133  C     C_R   0.835208 0.259977 0.137063 0.104930
C134  C     C_R   0.153886 0.711712 0.834353 0.097956
C135  C     C_R   0.217893 0.130654 0.031339 0.094825
C136  C     C_R   0.853632 0.708533 0.177871 0.102590
C137  C     C_R   0.310666 0.657702 0.938163 0.119108
C138  C     C_R   0.682308 0.321001 0.046896 0.118711
C139  C     C_R   0.691534 0.668203 0.053728 0.125446
C140  C     C_R   0.378424 0.184604 0.143753 0.115091
C141  C     C_R   0.863754 0.284288 0.104226 0.114753
C142  C     C_R   0.121245 0.684665 0.856707 0.112568
C143  C     C_R   0.188911 0.157456 0.061863 0.118535
C144  C     C_R   0.887567 0.682838 0.157820 0.105858
C145  C     C_R   0.224409 0.638415 0.919596 -0.099254
C146  C     C_R   0.767904 0.337062 0.062501 -0.106212
C147  C     C_R   0.777067 0.648803 0.068111 -0.112949
C148  C     C_R   0.298255 0.182738 0.146348 -0.117173
C149  C     C_R   0.790639 0.291135 0.125688 -0.102449
C150  C     C_R   0.201392 0.682941 0.854038 -0.116397
C151  C     C_R   0.275232 0.138152 0.080900 -0.098923
C152  C     C_R   0.803065 0.682693 0.147031 -0.113193
C153  C     C_R   0.801543 0.366353 0.042414 0.339418
C154  C     C_R   0.189409 0.607785 0.935886 0.354173
C155  C     C_R   0.271659 0.198136 0.187104 0.345975
C156  C     C_R   0.810672 0.628964 0.040376 0.363385
C157  C     C_R   0.227915 0.698322 0.813083 0.346031
C158  C     C_R   0.764105 0.274670 0.166487 0.370353
C159  C     C_R   0.775970 0.695696 0.187670 0.341120
C160  C     C_R   0.310232 0.107530 0.064811 0.354517
C161  C     C_R   0.849181 0.339317 0.063735 -0.277441
C162  C     C_R   0.137972 0.631218 0.903250 -0.269052
C163  C     C_R   0.216623 0.186125 0.142993 -0.286997
C164  C     C_R   0.866574 0.639240 0.093581 -0.250878
C165  C     C_R   0.282915 0.686372 0.857033 -0.286940
C166  C     C_R   0.709994 0.290156 0.126323 -0.303317
C167  C     C_R   0.720122 0.691110 0.138510 -0.291443
C168  C     C_R   0.361699 0.131062 0.097448 -0.272530
H49   H     H_    0.873825 0.360212 0.045349 0.188071
H50   H     H_    0.111421 0.608230 0.915846 0.184490
H51   H     H_    0.194940 0.200915 0.170475 0.186346
H52   H     H_    0.891230 0.622208 0.072683 0.177182
H53   H     H_    0.304537 0.701147 0.829360 0.186537
H54   H     H_    0.688821 0.275413 0.154796 0.187330
H55   H     H_    0.698660 0.705173 0.166722 0.186514
H56   H     H_    0.388256 0.108106 0.084985 0.184065
H57   H     H_    0.702920 0.386303 0.904291 0.196371
H58   H     H_    0.291305 0.583052 0.076796 0.200197
H59   H     H_    0.325899 0.293316 0.194535 0.178537
H60   H     H_    0.705282 0.581460 0.919617 0.195488
H61   H     H_    0.173766 0.793386 0.805401 0.178641
H62   H     H_    0.824569 0.181330 0.190310 0.167531
H63   H     H_    0.832646 0.789701 0.204918 0.172710
H64   H     H_    0.208445 0.082928 0.923586 0.200219
H65   H     H_    0.553922 0.347539 0.872961 0.128127
H66   H     H_    0.439095 0.640238 0.115867 0.124015
H67   H     H_    0.478307 0.287838 0.224668 0.125037
H68   H     H_    0.561614 0.653041 0.878327 0.125927
H69   H     H_    0.021348 0.787589 0.775283 0.127393
H70   H     H_    0.950155 0.172096 0.147615 0.123288
H71   H     H_    0.991021 0.781533 0.257013 0.127105
H72   H     H_    0.060603 0.140255 0.883607 0.125266
H73   H     H_    0.389289 0.676750 0.965728 0.136505
H74   H     H_    0.603540 0.306867 0.021519 0.138901
H75   H     H_    0.613992 0.690422 0.028621 0.138454
H76   H     H_    0.453238 0.190973 0.153080 0.143867
H77   H     H_    0.928043 0.271559 0.086014 0.143288
H78   H     H_    0.046428 0.690859 0.847345 0.145697
H79   H     H_    0.110239 0.176578 0.033812 0.136867
H80   H     H_    0.965953 0.687106 0.178846 0.143901
N33   N     N_R   0.790222 0.424775 0.005931 0.244778
O1    O     O_R   0.766936 0.463382 0.026152 -0.395099
O2    O     O_R   0.808049 0.441139 0.959302 -0.277127
N34   N     N_R   0.201909 0.549629 0.974102 0.238382
O3    O     O_R   0.183261 0.531932 0.019040 -0.311310
O4    O     O_R   0.225985 0.511628 0.954602 -0.372646
N35   N     N_R   0.301056 0.219427 0.276395 0.264487
O5    O     O_R   0.275385 0.241627 0.307693 -0.341770
O6    O     O_R   0.351910 0.206587 0.331123 -0.343295
N36   N     N_R   0.790171 0.610138 0.953163 0.242005
O7    O     O_R   0.796669 0.645692 0.904396 -0.302269
O8    O     O_R   0.787821 0.553846 0.937990 -0.254852
N37   N     N_R   0.198449 0.719470 0.723713 0.264294
O9    O     O_R   0.224055 0.741761 0.692245 -0.343050
O10   O     O_R   0.147604 0.706375 0.669101 -0.339968
N38   N     N_R   0.792026 0.246049 0.250794 0.215388
O11   O     O_R   0.842036 0.259277 0.311300 -0.433035
O12   O     O_R   0.766495 0.209285 0.269157 -0.411552
N39   N     N_R   0.805071 0.710792 0.279741 0.262900
O13   O     O_R   0.779940 0.733935 0.311410 -0.333778
O14   O     O_R   0.854462 0.692794 0.334590 -0.339589
N40   N     N_R   0.297658 0.049330 0.026733 0.238142
O15   O     O_R   0.316445 0.031548 0.982113 -0.311625
O16   O     O_R   0.273303 0.011395 0.045995 -0.373489
N41   N     N_R   0.325221 0.577210 0.226986 0.206007
O17   O     O_R   0.308595 0.530640 0.246466 -0.367620
O18   O     O_R   0.294950 0.624236 0.197615 -0.416704
N42   N     N_R   0.667698 0.394423 0.754990 0.193565
O19   O     O_R   0.679928 0.339146 0.755901 -0.399170
O20   O     O_R   0.705464 0.434256 0.787161 -0.331954
N43   N     N_R   0.672165 0.592198 0.768187 0.206588
O21   O     O_R   0.697048 0.550426 0.756460 -0.328685
O22   O     O_R   0.692204 0.645402 0.787706 -0.379349
N44   N     N_R   0.342271 0.377587 0.276959 0.189225
O23   O     O_R   0.340597 0.335819 0.323779 -0.387667
O24   O     O_R   0.297824 0.401803 0.213029 -0.345258
N45   N     N_R   0.826628 0.070043 0.214910 0.231450
O25   O     O_R   0.811288 0.034056 0.251705 -0.390927
O26   O     O_R   0.793902 0.080000 0.130813 -0.363315
N46   N     N_R   0.157316 0.877313 0.722405 0.188819
O27   O     O_R   0.158496 0.835525 0.675239 -0.387189
O28   O     O_R   0.202046 0.901080 0.786501 -0.346479
N47   N     N_R   0.174819 0.076985 0.773533 0.205810
O29   O     O_R   0.191333 0.030253 0.754425 -0.368032
O30   O     O_R   0.205337 0.123925 0.803024 -0.416123
N48   N     N_R   0.847679 0.871296 0.290258 0.188213
O31   O     O_R   0.850145 0.828877 0.340113 -0.376433
O32   O     O_R   0.801108 0.892227 0.227241 -0.376710
C169  C     C_2   0.216401 0.747672 0.380235 1.005877
O33   O     O_2   0.192266 0.727889 0.305399 -0.616842
O34   O     O_R   0.187534 0.766207 0.414348 -0.767320
H81   H     H_    0.147081 0.762602 0.370151 0.331120
C170  C     C_2   0.827386 0.318853 0.672187 1.015934
O35   O     O_2   0.843892 0.342879 0.742557 -0.599093
O36   O     O_R   0.847738 0.263489 0.671503 -0.806079
H82   H     H_    0.876440 0.248709 0.732783 0.328961
C171  C     C_2   0.784342 0.746257 0.611555 1.010870
O37   O     O_2   0.809733 0.724566 0.685313 -0.602384
O38   O     O_R   0.811687 0.766932 0.575703 -0.764396
H83   H     H_    0.852270 0.763054 0.617904 0.334344
C172  C     C_2   0.182698 0.304450 0.337919 1.049437
O39   O     O_2   0.162341 0.323928 0.263607 -0.614491
O40   O     O_R   0.173248 0.245729 0.349458 -0.778657
H84   H     H_    0.147992 0.224464 0.291566 0.320415
C173  C     C_2   0.716881 0.234880 0.415233 0.996976
O41   O     O_2   0.688367 0.206053 0.347807 -0.606833
O42   O     O_R   0.694449 0.259941 0.456631 -0.793948
H85   H     H_    0.654234 0.252508 0.423381 0.330667
C174  C     C_2   0.316802 0.803798 0.663727 1.052794
O43   O     O_2   0.336504 0.822984 0.737994 -0.612453
O44   O     O_R   0.326582 0.745271 0.652241 -0.779183
H86   H     H_    0.351434 0.723886 0.710149 0.320786
C175  C     C_2   0.284628 0.248691 0.621619 1.007138
O45   O     O_2   0.308960 0.229280 0.696685 -0.614631
O46   O     O_R   0.313256 0.267271 0.587012 -0.765652
H87   H     H_    0.353738 0.264077 0.631100 0.336023
C176  C     C_2   0.680599 0.809060 0.333019 1.044483
O47   O     O_2   0.660575 0.830117 0.259665 -0.616921
O48   O     O_R   0.670114 0.750136 0.341717 -0.777948
H88   H     H_    0.644526 0.730135 0.282834 0.322317

loop_
_geom_bond_atom_site_label_1
_geom_bond_atom_site_label_2
_geom_bond_distance
_ccdc_geom_bond_type
N44   O24   1.300474 A    
C108  C140  1.406326 A    
C174  O43   1.223129 D    
N14   Ni8   1.851775 S    
C110  C118  1.404499 A    
C49   C89   1.417480 A    
C21   N21   1.342579 A    
C31   N31   1.345304 A    
C169  O33   1.223155 D    
N37   O9    1.302106 A    
C11   C43   1.376084 A    
C26   N42   1.424716 S    
N22   Ni3   1.828368 S    
C107  C115  1.387977 A    
C89   C94   1.457969 S    
C105  C113  1.391342 A    
C14   H14   1.079447 S    
C26   C36   1.404878 A    
C2    C34   1.409932 A    
C111  C143  1.400470 A    
C126  C134  1.402616 A    
C140  C168  1.399833 A    
C102  C118  1.408209 A    
C116  H67   1.080973 S    
C30   C40   1.403134 A    
C24   N24   1.345661 A    
C32   N48   1.419900 S    
C16   C48   1.365844 A    
C3    N3    1.345893 A    
C144  C164  1.387575 A    
N11   Ni6   1.854357 S    
C108  C116  1.404296 A    
C75   H35   1.083314 S    
C5    H5    1.081111 S    
C57   H25   1.084871 S    
C7    H7    1.078032 S    
C8    H8    1.079164 S    
C25   N25   1.344801 A    
C173  O42   1.397523 S    
C60   C68   1.401513 A    
C54   C94   1.413950 A    
C85   H41   1.083361 S    
C121  H58   1.061040 S    
N40   O16   1.301746 A    
C51   C59   1.389126 A    
C54   C174  1.486504 S    
N13   N21   1.384041 A    
C153  C161  1.396599 A    
C129  C145  1.433680 A    
N19   Ni1   1.830855 S    
C87   H43   1.083509 S    
C124  C132  1.402551 A    
C11   H11   1.067453 S    
C157  C165  1.396952 A    
C12   N12   1.332758 A    
C118  H69   1.081020 S    
C13   N13   1.334412 A    
C151  C160  1.428393 A    
C146  C149  1.414091 A    
C128  C136  1.394472 A    
C74   C82   1.387718 A    
C114  H65   1.081668 S    
O42   H85   1.013796 S    
C22   N22   1.345074 A    
C14   C46   1.365445 A    
N8    Ni3   1.829662 S    
C63   C71   1.394913 A    
C64   C72   1.402556 A    
N15   N23   1.384042 A    
C34   C100  1.507658 S    
C167  H55   1.084260 S    
C168  H56   1.083746 S    
C97   C121  1.409538 A    
N36   O7    1.301449 A    
C81   C89   1.402772 A    
C164  H52   1.085010 S    
C53   C61   1.388633 A    
C165  H53   1.084055 S    
C105  H73   1.084016 S    
C108  H76   1.083475 S    
C139  C167  1.388532 A    
N13   Ni7   1.851775 S    
C107  C139  1.403031 A    
C121  C129  1.408703 A    
N34   O4    1.301740 A    
C105  C137  1.400612 A    
C32   N32   1.340372 A    
C135  C151  1.433230 A    
C176  O47   1.223112 D    
C100  C124  1.410419 A    
C70   C78   1.398093 A    
C73   C81   1.389988 A    
C79   C87   1.389184 A    
C150  C157  1.420702 A    
C20   C44   1.383036 A    
N14   N22   1.384041 A    
C3    H3    1.081075 S    
C153  N33   1.432588 S    
C4    N4    1.340744 A    
N3    Ni2   1.829660 S    
C5    N5    1.345057 A    
N25   Ni6   1.853840 S    
C62   H30   1.083284 S    
C137  C165  1.392624 A    
O44   H86   1.013804 S    
C112  C144  1.404550 A    
N39   O14   1.301791 A    
C130  C138  1.413518 A    
C141  C161  1.387670 A    
C110  H78   1.083471 S    
C6    N6    1.348298 A    
N43   O22   1.300505 A    
C172  O39   1.223091 D    
N4    N26   1.388359 A    
C147  C152  1.423542 A    
O40   H84   1.013800 S    
C86   C94   1.403761 A    
C56   C176  1.486728 S    
N29   Ni8   1.853842 S    
C143  C163  1.392629 A    
C49   C169  1.486524 S    
N35   O6    1.301879 A    
C98   C114  1.404542 A    
C30   N46   1.418491 S    
N42   O20   1.299067 A    
C36   C98   1.488130 S    
N41   O18   1.302372 A    
C78   C86   1.390328 A    
C59   C67   1.394940 A    
C17   H17   1.080083 S    
C60   H28   1.083360 S    
C57   C65   1.395817 A    
N45   O26   1.301472 A    
C20   H20   1.080394 S    
C21   H21   1.076087 S    
C78   H38   1.082335 S    
N24   Ni4   1.830858 S    
C61   C69   1.391282 A    
C50   C90   1.413536 A    
C23   H23   1.080372 S    
C152  C159  1.419670 A    
C24   H24   1.081060 S    
C163  H51   1.084046 S    
N38   O12   1.300586 A    
C29   N29   1.336010 A    
N9    Ni5   1.851775 S    
C53   C173  1.487451 S    
C46   C72   1.459933 S    
N16   N24   1.384042 A    
C47   C69   1.439121 S    
C170  O36   1.397915 S    
C18   C42   1.379643 A    
C155  C163  1.396970 A    
C76   C84   1.389976 A    
N26   Ni5   1.853842 S    
C131  C147  1.443795 A    
C77   C85   1.389450 A    
C21   C45   1.380539 A    
N48   O31   1.301154 A    
C55   C95   1.417789 A    
C6    C38   1.398361 A    
C17   C41   1.375260 A    
C100  C116  1.408305 A    
C79   H39   1.083435 S    
N2    Ni2   1.827218 S    
C6    H6    1.078283 S    
C56   C96   1.413328 A    
C154  N34   1.437109 S    
N33   O1    1.301841 A    
C103  C119  1.403072 A    
C136  C152  1.413848 A    
C155  N35   1.440330 S    
C101  C125  1.401903 A    
C9    C41   1.374097 A    
C86   H42   1.083603 S    
C83   C91   1.402193 A    
C4    H4    1.080900 S    
N18   Ni1   1.828368 S    
C133  C141  1.414596 A    
C10   N10   1.333068 A    
C91   C96   1.456032 S    
C157  N37   1.440300 S    
C51   C171  1.486485 S    
C14   N14   1.333313 A    
N46   O27   1.299715 A    
C109  C141  1.401646 A    
C115  H68   1.082631 S    
C123  C131  1.406173 A    
C1    N1    1.347571 A    
C148  C151  1.415696 A    
N30   Ni7   1.853843 S    
N10   Ni6   1.851775 S    
N2    N28   1.388241 A    
C72   C80   1.398027 A    
C75   C83   1.389358 A    
C19   N19   1.340952 A    
C66   C74   1.400327 A    
C7    N7    1.340832 A    
C71   C79   1.396779 A    
C8    N8    1.354795 A    
C23   N23   1.338233 A    
C82   C90   1.400829 A    
C27   C33   1.385858 A    
C145  C154  1.428512 A    
C49   C57   1.389838 A    
C166  H54   1.084163 S    
C112  C120  1.400582 A    
C52   C172  1.486231 S    
C106  H74   1.083766 S    
C43   C65   1.448440 S    
N3    N25   1.388356 A    
N8    N30   1.388359 A    
C55   C175  1.485964 S    
C129  C137  1.418122 A    
C119  H72   1.081835 S    
C55   C63   1.389252 A    
C120  H71   1.080940 S    
N23   Ni3   1.830855 S    
C33   C99   1.482834 S    
C109  C117  1.391159 A    
C28   N28   1.339713 A    
C80   H40   1.082270 S    
C173  O41   1.223284 D    
C175  O46   1.398160 S    
C148  C155  1.420723 A    
C65   C73   1.396774 A    
C63   H31   1.084969 S    
C64   H32   1.083206 S    
N31   Ni7   1.856308 S    
C106  C114  1.395931 A    
C99   C115  1.396551 A    
C132  C140  1.404222 A    
C3    C35   1.394885 A    
C97   C113  1.402919 A    
C103  C127  1.409215 A    
C125  C133  1.398940 A    
C101  C117  1.401858 A    
C125  H62   1.071319 S    
O46   H87   1.013736 S    
N6    N32   1.388241 A    
C127  H64   1.061065 S    
C171  O38   1.398159 S    
C128  H63   1.067124 S    
C84   C92   1.403535 A    
N12   Ni5   1.854360 S    
C37   C103  1.493468 S    
N44   O23   1.299669 A    
C35   C97   1.493724 S    
C158  N38   1.435555 S    
C174  O44   1.398213 S    
C15   N15   1.335819 A    
C16   N16   1.333488 A    
N36   O8    1.296183 A    
C26   N26   1.341131 A    
C169  O34   1.398273 S    
C135  C143  1.418107 A    
N37   O10   1.301893 A    
C156  N36   1.423342 S    
N39   O13   1.302204 A    
C18   H18   1.081193 S    
C1    H1    1.081342 S    
C24   C48   1.379018 A    
N35   O5    1.302139 A    
C22   H22   1.081008 S    
N47   O30   1.302372 A    
C62   C70   1.401999 A    
C154  C162  1.409858 A    
C104  C128  1.402678 A    
C145  C150  1.415928 A    
C81   H45   1.083468 S    
C109  H77   1.083914 S    
O34   H81   1.013788 S    
C110  C142  1.406525 A    
C13   C45   1.372241 A    
C50   C170  1.489626 S    
C58   C66   1.403904 A    
C44   C66   1.465587 S    
C122  H57   1.058948 S    
C98   C122  1.400296 A    
C48   C70   1.460185 S    
C80   C88   1.389987 A    
C9    N9    1.338769 A    
O38   H83   1.013773 S    
C111  H79   1.084013 S    
N4    Ni1   1.829662 S    
N40   O15   1.301449 A    
C52   C60   1.388915 A    
C59   H27   1.084961 S    
C22   C46   1.379263 A    
C161  H49   1.084147 S    
C112  H80   1.083584 S    
C56   C64   1.389005 A    
C158  C166  1.399693 A    
C106  C138  1.402709 A    
C136  C144  1.398035 A    
C27   N27   1.341887 A    
N41   O17   1.300256 A    
C159  N39   1.442637 S    
N6    Ni4   1.827218 S    
N7    Ni4   1.829660 S    
C149  C158  1.424682 A    
C84   H48   1.083609 S    
C31   N47   1.429254 S    
N45   O25   1.300723 A    
C147  C156  1.442930 A    
C90   C93   1.453062 S    
N43   O21   1.299572 A    
N32   Ni8   1.856310 S    
C11   N11   1.335427 A    
C88   H44   1.083621 S    
C12   H12   1.072381 S    
C133  C149  1.423914 A    
N42   O19   1.300694 A    
C76   H36   1.082390 S    
C131  C139  1.423849 A    
C77   H37   1.083278 S    
C28   C34   1.403269 A    
C4    C36   1.391449 A    
C159  C167  1.389466 A    
O36   H82   1.013811 S    
N5    N31   1.388244 A    
C2    N2    1.354576 A    
O48   H88   1.013794 S    
C8    C40   1.410312 A    
N47   O29   1.300255 A    
C68   C76   1.398037 A    
C69   C77   1.396053 A    
C170  O35   1.223386 D    
C67   C75   1.396634 A    
C17   N17   1.338781 A    
N34   O3    1.301452 A    
C31   C37   1.399977 A    
C176  O48   1.398190 S    
N48   O32   1.300950 A    
C40   C102  1.508094 S    
N15   Ni8   1.854357 S    
C23   C47   1.381479 A    
C107  H75   1.084139 S    
C134  C150  1.420144 A    
C10   H10   1.080023 S    
C87   C95   1.402386 A    
C124  H59   1.065583 S    
C15   H15   1.077280 S    
C88   C96   1.403567 A    
C74   H34   1.081250 S    
C117  H70   1.081554 S    
N27   Ni5   1.856308 S    
C20   N20   1.341088 A    
C92   C95   1.456651 S    
C113  H66   1.081861 S    
C73   H33   1.083275 S    
C5    C37   1.394187 A    
C30   N30   1.339785 A    
C25   C35   1.399338 A    
C172  O40   1.398198 S    
C104  C120  1.407985 A    
N20   Ni2   1.830858 S    
N21   Ni4   1.828368 S    
C83   H47   1.083478 S    
C19   C43   1.382450 A    
C130  C146  1.423517 A    
N46   O28   1.300531 A    
N9    N17   1.384041 A    
C160  N40   1.437173 S    
C29   C39   1.394405 A    
N28   Ni6   1.856310 S    
C126  H61   1.065500 S    
C42   C68   1.458657 S    
N1    N27   1.388244 A    
C15   C47   1.378260 A    
C25   N41   1.429321 S    
N1    Ni1   1.827216 S    
C111  C119  1.391281 A    
C18   N18   1.343003 A    
C134  C142  1.404057 A    
N5    Ni3   1.827216 S    
C10   C42   1.367406 A    
N11   N19   1.384042 A    
N38   O11   1.301543 A    
C102  C126  1.410757 A    
C13   H13   1.067225 S    
N12   N20   1.384042 A    
C19   H19   1.079894 S    
C2    H2    1.078924 S    
N17   Ni2   1.828368 S    
C61   H29   1.085285 S    
C1    C33   1.388394 A    
C156  C164  1.405396 A    
C29   N45   1.437553 S    
C132  C148  1.419865 A    
C99   C123  1.410852 A    
C41   C67   1.446024 S    
C127  C135  1.408476 A    
C27   N43   1.418519 S    
C160  C168  1.409721 A    
C82   H46   1.083957 S    
C7    C39   1.388443 A    
C175  O45   1.223125 D    
C122  C130  1.400725 A    
C85   C93   1.401138 A    
C52   C92   1.413962 A    
C45   C71   1.446167 S    
C12   C44   1.374707 A    
C28   N44   1.418729 S    
C123  H60   1.064208 S    
N33   O2    1.300803 A    
C58   H26   1.081726 S    
C53   C93   1.418378 A    
C16   H16   1.079889 S    
C38   C104  1.492580 S    
C39   C101  1.474936 S    
C146  C153  1.424393 A    
C50   C58   1.392639 A    
C138  C166  1.393630 A    
N16   Ni7   1.854360 S    
N7    N29   1.388356 A    
C9    H9    1.058498 S    
N10   N18   1.384041 A    
C54   C62   1.389818 A    
C171  O37   1.223174 D    
C142  C162  1.399864 A    
C32   C38   1.401750 A    
C162  H50   1.083746 S    
C51   C91   1.417697 A    
