data_mof_unit_14229.cif
_audit_creation_date              2012-12-10T18:07:34-0500
_audit_creation_method            fapswitch 2.2
_symmetry_space_group_name_H-M    P1
_symmetry_Int_Tables_number       1
_space_group_crystal_system       triclinic
_cell_length_a                    11.55099
_cell_length_b                    12.673956
_cell_length_c                    13.13022
_cell_angle_alpha                 82.558696
_cell_angle_beta                  90.807888
_cell_angle_gamma                 102.959197
_cell_volume                      1857.26380701

loop_
_atom_site_label
_atom_site_type_symbol
_atom_type_description
_atom_site_fract_x
_atom_site_fract_y
_atom_site_fract_z
_atom_type_partial_charge
C1    C     C_R   0.490855 0.439152 0.691079 0.948255
C2    C     C_R   0.697344 0.622386 0.910290 -0.355455
C3    C     C_R   0.652546 0.545484 0.843686 0.436505
C4    C     C_R   0.717889 0.501323 0.500197 0.932451
C5    C     C_R   0.490959 0.526695 0.131947 -0.206997
C6    C     C_R   0.638273 0.684318 0.169240 -0.188004
C7    C     C_R   0.484730 0.399591 0.800444 -0.100143
C8    C     C_R   0.302200 0.073336 0.381931 -0.143104
C9    C     C_R   0.637768 0.798299 0.630948 -0.018698
C10   C     C_R   0.662986 0.899761 0.665217 -0.340634
C11   C     C_R   0.608343 0.982344 0.619812 0.472981
C12   C     C_R   0.542926 0.596923 0.200716 -0.053887
C13   C     C_R   0.532699 0.962510 0.534222 -0.013943
C14   C     C_R   0.506854 0.855114 0.506011 0.131162
C15   C     C_R   0.475334 0.041136 0.479561 -0.005277
C16   C     C_R   0.514749 0.560868 0.308818 0.872565
C17   C     C_R   0.381186 0.005438 0.412021 0.008980
C18   C     C_R   0.367850 0.902180 0.377877 -0.051709
C19   C     C_R   0.428391 0.828559 0.427337 -0.214912
C20   C     C_R   0.507506 0.153960 0.487824 0.018976
C21   C     C_R   0.337147 0.184106 0.394939 0.005377
C22   C     C_R   0.282149 0.498785 0.499599 0.902956
C23   C     C_R   0.400552 0.303840 0.834515 -0.247639
C24   C     C_1   0.839132 0.503449 0.500416 -0.149563
C25   C     C_1   0.941075 0.501988 0.499932 0.026233
C26   C     C_1   0.059111 0.498654 0.499167 0.035870
C27   C     C_1   0.160995 0.496981 0.498951 -0.121573
C28   C     C_R   0.686259 0.695655 0.070498 -0.149513
C29   C     C_2   0.303107 0.871844 0.283434 0.932836
C30   C     C_2   0.177394 0.025252 0.353644 0.970179
C31   C     C_2   0.282787 0.173272 0.974370 0.946229
C32   C     C_2   0.258414 0.257228 0.358699 1.047079
C33   C     C_R   0.370187 0.276031 0.938412 0.002220
C34   C     C_R   0.418797 0.349562 0.006834 -0.200788
C35   C     C_R   0.502525 0.447994 0.972856 -0.013273
C36   C     C_R   0.547282 0.464718 0.871366 0.055100
C37   C     C_R   0.544358 0.529555 0.036851 0.078395
C38   C     C_R   0.642047 0.617067 0.004981 0.127529
H1    H     H_    0.679916 0.739326 0.222523 0.162511
H2    H     H_    0.393101 0.326589 0.086618 0.208288
H3    H     H_    0.203449 0.752949 0.210666 0.350115
H4    H     H_    0.032560 0.901989 0.382418 0.347811
H5    H     H_    0.675254 0.076150 0.722897 0.348232
H6    H     H_    0.183721 0.078640 0.090797 0.392415
H7    H     H_    0.788624 0.600972 0.750037 0.330510
H8    H     H_    0.101122 0.297855 0.374871 0.345558
H9    H     H_    0.586720 0.190442 0.525628 0.209562
H10   H     H_    0.678657 0.734788 0.667316 0.176724
H11   H     H_    0.722084 0.912652 0.729433 0.157864
H12   H     H_    0.413697 0.750075 0.402203 0.234989
H13   H     H_    0.776042 0.685876 0.888436 0.149937
H14   H     H_    0.761651 0.762256 0.047380 0.150610
H15   H     H_    0.411305 0.467143 0.156714 0.197569
H16   H     H_    0.354984 0.253018 0.779325 0.205147
N1    N     N_R   0.440320 0.222190 0.444690 -0.164730
N2    N     N_R   0.559060 0.776980 0.554780 -0.124075
O1    O     O_R   0.471500 0.366730 0.627160 -0.614282
O2    O     O_R   0.242601 0.763755 0.279286 -0.802983
O3    O     O_2   0.128483 0.070887 0.283582 -0.589013
O4    O     O_R   0.115989 0.927029 0.408455 -0.788790
O5    O     O_3   0.620766 0.077345 0.663900 -0.785744
O6    O     O_2   0.243893 0.108015 0.914421 -0.610221
O7    O     O_R   0.244246 0.150538 0.076873 -0.746448
O8    O     O_3   0.714721 0.542777 0.755175 -0.778258
O9    O     O_2   0.285758 0.323994 0.282471 -0.636131
O10   O     O_R   0.149020 0.245201 0.408404 -0.788717
O11   O     O_R   0.509620 0.544830 0.662520 -0.589596
O12   O     O_R   0.646490 0.410960 0.482310 -0.619886
O13   O     O_R   0.684610 0.589050 0.517670 -0.599038
O14   O     O_R   0.490380 0.455170 0.337480 -0.583490
O15   O     O_R   0.528500 0.633270 0.372840 -0.647790
O16   O     O_R   0.315390 0.410950 0.482330 -0.608302
O17   O     O_R   0.353510 0.589040 0.517690 -0.617685
O18   O     O_2   0.306351 0.940274 0.208135 -0.611301
Zn1   Zn    Zn3+2 0.474550 0.381080 0.476390 0.997165
Zn2   Zn    Zn3+2 0.525450 0.618920 0.523610 0.964712

loop_
_geom_bond_atom_site_label_1
_geom_bond_atom_site_label_2
_ccdc_geom_bond_type
C14   N2    A    
N2    Zn2   S    
C5    C37   A    
C11   C13   A    
C7    C36   A    
C35   C36   A    
C21   N1    A    
C3    O8    S    
O12   Zn1   S    
C26   C27   T    
C34   H2    S    
C5    H15   S    
C35   C37   A    
H3    O2    S    
H8    O10   S    
O16   Zn1   S    
C6    C12   A    
O15   Zn2   S    
C4    C24   S    
O13   Zn2   S    
C34   C35   A    
C6    C28   A    
C12   C16   S    
C23   C33   A    
C30   O4    S    
C31   C33   S    
C9    C10   A    
N1    Zn1   S    
C13   C14   A    
C31   O6    D    
C16   O15   A    
C20   N1    A    
C22   O16   A    
C4    O13   A    
C33   C34   A    
H6    O7    S    
C15   C20   A    
C21   C32   S    
C31   O7    S    
C16   O14   A    
C24   C25   T    
C5    C12   A    
C2    H13   S    
H4    O4    S    
C18   C29   S    
C18   C19   A    
C29   O18   D    
C25   C26   S    
C4    O12   A    
C37   C38   A    
C1    O1    A    
C2    C38   A    
C28   C38   A    
C30   O3    D    
C17   C18   A    
C9    N2    A    
C22   C27   S    
C13   C15   A    
O17   Zn2   S    
H5    O5    S    
C23   H16   S    
C32   O10   S    
C15   C17   A    
C1    C7    S    
C14   C19   A    
C11   O5    S    
C8    C21   A    
H7    O8    S    
C8    C17   A    
C8    C30   S    
O1    Zn1   S    
C2    C3    A    
C28   H14   S    
C19   H12   S    
C3    C36   A    
C7    C23   A    
C1    O11   A    
C20   H9    S    
C10   C11   A    
C29   O2    S    
C9    H10   S    
O14   Zn1   S    
C6    H1    S    
O11   Zn2   S    
C22   O17   A    
C10   H11   S    
C32   O9    D    
