data_mof_unit_48638.cif
_audit_creation_date              2013-03-05T16:03:26-0500
_audit_creation_method            fapswitch 2.2
_symmetry_space_group_name_H-M    P1
_symmetry_Int_Tables_number       1
_space_group_crystal_system       triclinic
_cell_length_a                    6.969226
_cell_length_b                    18.342593
_cell_length_c                    20.135434
_cell_angle_alpha                 68.544374
_cell_angle_beta                  89.453386
_cell_angle_gamma                 90.067251
_cell_volume                      2395.47310665

loop_
_atom_site_label
_atom_site_type_symbol
_atom_site_description
_atom_site_fract_x
_atom_site_fract_y
_atom_site_fract_z
_atom_type_partial_charge
O1    O     O_R   0.488960 0.443750 0.941980 -0.592927
O2    O     O_R   0.823890 0.406510 0.087590 -0.581385
O3    O     O_R   0.999680 0.556250 0.058020 -0.557248
C1    C     C_R   0.655558 0.386711 0.116878 1.005124
O4    O     O_R   0.818360 0.434410 0.944340 -0.588038
O5    O     O_R   0.994110 0.584350 0.913750 -0.591621
C2    C     C_R   0.651256 0.420557 0.923733 0.956685
O6    O     O_R   0.494530 0.415650 0.086250 -0.582186
O7    O     O_3   0.662590 0.549160 0.990130 -0.258606
V1    V     V_3+5 0.935320 0.490880 0.001830 1.245049
O8    O     O_R   0.324180 0.593490 0.912410 -0.603528
C3    C     C_R   0.156335 0.617305 0.885695 0.916829
O9    O     O_R   0.329720 0.565590 0.055660 -0.554834
C4    C     C_R   0.160450 0.579442 0.076124 1.000242
V2    V     V_3+5 0.435990 0.509120 0.998170 1.238689
O10   O     O_3   0.158850 0.450840 0.009870 -0.274834
C5    C     C_3   0.999303 0.720601 0.301828 -0.133316
C6    C     C_3   0.173381 0.672938 0.290996 -0.138044
H1    H     H_    0.204191 0.611171 0.324666 0.226048
H2    H     H_    0.892500 0.696926 0.345509 0.244263
C7    C     C_1   0.150046 0.623476 0.122839 -0.152897
C8    C     C_1   0.116489 0.875556 0.377322 -0.128919
C9    C     C_3   0.960678 0.752008 0.220006 -0.156918
C10   C     C_3   0.135746 0.705418 0.209744 -0.045750
C11   C     C_3   0.096198 0.821496 0.210941 0.308050
C12   C     C_3   0.132382 0.791591 0.291728 -0.162542
C13   C     C_3   0.270432 0.775949 0.198904 0.048434
C14   C     C_3   0.303091 0.744600 0.280231 0.294084
C15   C     C_1   0.141501 0.659699 0.162533 0.221209
C16   C     C_1   0.125181 0.837842 0.338751 0.266554
H3    H     H_    0.818750 0.754494 0.195274 0.204894
H4    H     H_    0.293863 0.526347 0.691193 0.172238
C17   C     C_R   0.094192 0.776971 0.877782 -0.169566
C18   C     C_R   0.064573 0.852862 0.875795 -0.059933
C19   C     C_R   0.053428 0.915006 0.810691 -0.011289
C20   C     C_R   0.070577 0.901737 0.747007 -0.181327
C21   C     C_R   0.099343 0.825267 0.747133 0.103534
C22   C     C_R   0.113080 0.761716 0.814097 0.111565
C23   C     C_R   0.110375 0.811443 0.682104 -0.262840
C24   C     C_R   0.132544 0.732714 0.685196 0.053585
C25   C     C_R   0.175572 0.672144 0.751750 0.096586
C26   C     C_R   0.150846 0.685025 0.816368 -0.267238
C27   C     C_R   0.109341 0.710110 0.625216 0.084145
C28   C     C_R   0.176841 0.637655 0.627052 -0.052876
C29   C     C_R   0.246328 0.583065 0.689839 -0.044988
C30   C     C_R   0.237111 0.598397 0.752415 -0.179074
H5    H     H_    0.104100 0.730595 0.929681 0.092866
H6    H     H_    0.051114 0.863546 0.925073 0.167596
H7    H     H_    0.030729 0.973863 0.809486 0.186583
H8    H     H_    0.059350 0.952045 0.697850 0.132380
H9    H     H_    0.161459 0.620941 0.581056 0.176230
H10   H     H_    0.279283 0.551906 0.801152 0.133491
H11   H     H_    0.612947 0.356389 0.436574 0.222324
C31   C     C_R   0.602203 0.101784 0.243610 0.175592
C32   C     C_R   0.630754 0.092832 0.177759 0.203150
C33   C     C_R   0.681276 0.157203 0.117163 0.189127
C34   C     C_R   0.688313 0.231041 0.120898 -0.309265
C35   C     C_R   0.656632 0.242626 0.185785 0.089084
C36   C     C_R   0.627891 0.176339 0.249825 -0.057162
C37   C     C_R   0.648497 0.319540 0.186351 -0.198642
C38   C     C_R   0.634275 0.331043 0.252622 -0.087418
C39   C     C_R   0.638738 0.264307 0.317610 0.052626
C40   C     C_R   0.625564 0.186930 0.316865 -0.215290
C41   C     C_R   0.626724 0.407282 0.257031 0.177397
C42   C     C_R   0.591490 0.415143 0.323290 0.286531
C43   C     C_R   0.608654 0.349386 0.385483 -0.237876
C44   C     C_R   0.659895 0.277857 0.382023 0.059914
H12   H     H_    0.718345 0.279362 0.071558 0.144444
O11   O     O_R   0.770540 0.084530 0.414050 -0.573039
O12   O     O_R   0.445710 0.065660 0.555720 -0.589844
O13   O     O_R   0.270420 0.915650 0.586190 -0.596608
C45   C     C_R   0.612289 0.078709 0.577167 0.964878
O14   O     O_R   0.441140 0.093540 0.412470 -0.563361
O15   O     O_R   0.265820 0.943740 0.441930 -0.547257
C46   C     C_R   0.611363 0.118105 0.385900 1.010900
O16   O     O_R   0.775150 0.056440 0.558310 -0.581995
O17   O     O_3   0.602370 0.950960 0.510050 -0.249365
V3    V     V_3+5 0.329450 0.009140 0.498150 1.281215
O18   O     O_R   0.935790 0.934280 0.444060 -0.557611
C47   C     C_R   0.105309 0.920999 0.423119 1.034775
O19   O     O_R   0.940370 0.906390 0.587310 -0.587346
C48   C     C_R   0.108250 0.880021 0.612530 0.937095
V4    V     V_3+5 0.828810 0.990710 0.501460 1.275223
O20   O     O_3   0.105780 0.049100 0.489960 -0.261004
C49   C     C_3   0.719645 0.317975 0.713553 0.206219
C50   C     C_3   0.526845 0.294090 0.690335 0.107108
C51   C     C_1   0.612709 0.124865 0.622126 -0.222252
C52   C     C_1   0.649882 0.375455 0.877819 -0.255244
C53   C     C_3   0.797596 0.235450 0.728857 0.249794
C54   C     C_3   0.607174 0.210265 0.706212 -0.241783
C55   C     C_3   0.730138 0.208807 0.807824 -0.321447
C56   C     C_3   0.648453 0.292545 0.791460 -0.153528
C57   C     C_3   0.537244 0.185275 0.784345 0.332009
C58   C     C_3   0.453773 0.267884 0.769369 0.123476
C59   C     C_1   0.606990 0.163475 0.659813 0.299954
C60   C     C_1   0.653426 0.338091 0.838980 0.275567
H13   H     H_    0.815433 0.173202 0.854641 0.240415
I1    I     I_    0.894959 0.756143 0.547589 -0.321531
N1    N     N_R   0.513878 0.038281 0.299532 0.228969
O21   O     O_R   0.614277 0.977070 0.335615 -0.352150
O22   O     O_R   0.327716 0.033572 0.301033 -0.399175
I2    I     I_    0.577034 0.982646 0.169460 -0.005338
I3    I     I_    0.735070 0.149216 0.016108 -0.191709
N2    N     N_R   0.703723 0.473930 0.200831 0.233404
O23   O     O_R   0.590552 0.525714 0.157918 -0.356646
O24   O     O_R   0.883589 0.491268 0.203380 -0.410293
N3    N     N_R   0.567941 0.491009 0.328483 0.262516
O25   O     O_R   0.606381 0.501240 0.387625 -0.318907
O26   O     O_R   0.492190 0.548577 0.276596 -0.359387
I4    I     I_    0.885918 0.227115 0.453389 -0.252992
I5    I     I_    0.381440 0.365870 0.596186 -0.080191
N4    N     N_R   0.823769 0.390060 0.673929 0.271035
O27   O     O_R   0.875909 0.404810 0.608103 -0.291965
O28   O     O_R   0.858161 0.441405 0.702954 -0.388740
I6    I     I_    0.194755 0.298630 0.810524 -0.258897
N5    N     N_R   0.438363 0.112275 0.824943 0.284508
O29   O     O_R   0.381544 0.099065 0.890030 -0.299494
O30   O     O_R   0.417700 0.057991 0.798323 -0.377986
N6    N     N_R   0.980290 0.215896 0.704118 0.261497
O31   O     O_R   0.078534 0.157564 0.746511 -0.365322
O32   O     O_R   0.018624 0.242016 0.636103 -0.332904
N7    N     N_R   0.486710 0.740002 0.315113 0.244458
O33   O     O_R   0.586422 0.803322 0.304275 -0.367611
O34   O     O_R   0.537784 0.674684 0.364642 -0.339943
I7    I     I_    0.468446 0.814240 0.110725 -0.216631
N8    N     N_R   0.055061 0.902234 0.165867 0.272489
O35   O     O_R   0.017738 0.919605 0.098683 -0.317289
O36   O     O_R   0.063749 0.957710 0.191518 -0.339480

loop_
_geom_bond_atom_site_label_1
_geom_bond_atom_site_label_2
_geom_bond_distance
_ccdc_geom_bond_type
C32   C33   1.394174 A    
C52   C60   1.213953 T    
C57   C58   1.548061 S    
O12   V3    1.992524 S    
O14   C46   1.306483 A    
H4    C29   1.083069 S    
C19   C20   1.394025 A    
C27   I1    2.114327 S    
C1    O6    1.302548 A    
C49   N4    1.458217 S    
N2    O24   1.298980 A    
O19   C48   1.301415 A    
C54   C59   1.481903 S    
O17   V3    2.154165 S    
C33   C34   1.384495 A    
C32   I2    2.121181 S    
C21   C22   1.427914 A    
C39   C44   1.416003 A    
C6    C10   1.547865 S    
C5    C12   1.548208 S    
C4    C7    1.448122 S    
C20   C21   1.416239 A    
C22   C26   1.415724 A    
O5    C3    1.303508 A    
C58   I6    2.139878 S    
C14   N7    1.453308 S    
O17   V4    1.718081 S    
C35   C37   1.416210 A    
V2    O10   2.175090 S    
C30   H10   1.081897 S    
C56   C60   1.483260 S    
C5    H2    1.106131 S    
N5    O29   1.300244 A    
C18   C19   1.390249 A    
C25   C26   1.413895 A    
C2    C52   1.448734 S    
C10   C15   1.480239 S    
N4    O27   1.300095 A    
C3    C26   1.491862 S    
C50   C58   1.564377 S    
O8    V2    2.014338 S    
C24   C27   1.423567 A    
C53   N6    1.455188 S    
C51   C59   1.213126 T    
C19   H7    1.082787 S    
C25   C30   1.414990 A    
C10   C13   1.545669 S    
O1    V2    1.959494 S    
C53   C55   1.550735 S    
O7    V1    2.154084 S    
C45   O16   1.305983 A    
O13   C48   1.311109 A    
C43   C44   1.386106 A    
O15   C47   1.300538 A    
O9    C4    1.301541 A    
N3    O26   1.300004 A    
O16   V4    1.976444 S    
N4    O28   1.300311 A    
N2    O23   1.298167 A    
O19   V4    2.014285 S    
C49   C56   1.540722 S    
C17   C18   1.393574 A    
C31   C36   1.429309 A    
N6    O32   1.299691 A    
C6    C14   1.541758 S    
C23   C48   1.502112 S    
C50   C54   1.557427 S    
C53   C54   1.531889 S    
C23   C24   1.431110 A    
O4    C2    1.295628 A    
C49   C53   1.531444 S    
C6    H1    1.109402 S    
C35   C36   1.424344 A    
C49   C50   1.541554 S    
O14   V3    1.999143 S    
C7    C15   1.213043 T    
C37   C38   1.427744 A    
C57   N5    1.456859 S    
C9    H3    1.105140 S    
C38   C41   1.434278 A    
O2    C1    1.298095 A    
C11   N8    1.456618 S    
C39   C40   1.427699 A    
O11   V4    2.005900 S    
V3    O20   1.706892 S    
C55   C57   1.541768 S    
C44   I4    2.116755 S    
V4    O20   2.175275 S    
N3    O25   1.301768 A    
C1    C37   1.488279 S    
C56   C58   1.549377 S    
C5    C6    1.555852 S    
C5    C9    1.559850 S    
C55   H13   1.108949 S    
H11   C43   1.083039 S    
O3    C4    1.299751 A    
C28   H9    1.082952 S    
C24   C25   1.428069 A    
N1    O22   1.299502 A    
C12   C16   1.485113 S    
O6    V2    2.010548 S    
O9    V2    1.955512 S    
C27   C28   1.398141 A    
C17   H5    1.082424 S    
C31   N1    1.424486 S    
C18   H6    1.082713 S    
C34   H12   1.080643 S    
N7    O34   1.300142 A    
O2    V1    1.999131 S    
C55   C56   1.557955 S    
C45   C51   1.448102 S    
C20   H8    1.082028 S    
C28   C29   1.386434 A    
C54   C57   1.542725 S    
C41   N2    1.427517 S    
C31   C32   1.406764 A    
N8    O36   1.300322 A    
C8    C16   1.215576 T    
O1    C2    1.304935 A    
C12   C14   1.534616 S    
C33   I3    2.122739 S    
O5    V1    2.003189 S    
N6    O31   1.298833 A    
C11   C13   1.541453 S    
C36   C40   1.432341 A    
C17   C22   1.413970 A    
N1    O21   1.301098 A    
C41   C42   1.412676 A    
C50   I5    2.137288 S    
C11   C12   1.538167 S    
C8    C47   1.453374 S    
O4    V1    1.992615 S    
C21   C23   1.423287 A    
O3    V1    1.979868 S    
V1    O10   1.706741 S    
O18   V4    1.955403 S    
C13   I7    2.142178 S    
C34   C35   1.413746 A    
C40   C46   1.499696 S    
N8    O35   1.300296 A    
N5    O30   1.300400 A    
O11   C46   1.299775 A    
C9    C11   1.540666 S    
O7    V2    1.721912 S    
C38   C39   1.428557 A    
C9    C10   1.545456 S    
O18   C47   1.303534 A    
C29   C30   1.388708 A    
C42   C43   1.391231 A    
O15   V3    1.979627 S    
C13   C14   1.543556 S    
O12   C45   1.294627 A    
N7    O33   1.299728 A    
C42   N3    1.442569 S    
O13   V3    2.003252 S    
O8    C3    1.299925 A    
