data_mof_unit_66975.cif
_audit_creation_date              2012-12-11T17:40:58-0500
_audit_creation_method            fapswitch 2.2
_symmetry_space_group_name_H-M    P1
_symmetry_Int_Tables_number       1
_space_group_crystal_system       triclinic
_cell_length_a                    8.265738
_cell_length_b                    12.687899
_cell_length_c                    14.239837
_cell_angle_alpha                 93.462818
_cell_angle_beta                  90.837943
_cell_angle_gamma                 98.041665
_cell_volume                      1475.61343068

loop_
_atom_site_label
_atom_site_type_symbol
_atom_type_description
_atom_site_fract_x
_atom_site_fract_y
_atom_site_fract_z
_atom_type_partial_charge
Ba1   Ba    Ba6+2 0.855630 0.555280 0.454520 1.622188
Ba2   Ba    Ba6+2 0.334200 0.444810 0.545490 1.650114
C1    C     C_3   0.762088 0.965498 0.226220 -0.365340
C2    C     C_R   0.192840 0.485932 0.193567 -0.024192
C3    C     C_R   0.356485 0.524851 0.220890 -0.119189
C4    C     C_3   0.149881 0.798053 0.192287 0.418693
C5    C     C_R   0.463079 0.578188 0.158654 0.085850
C6    C     C_R   0.412484 0.588802 0.066226 -0.134277
C7    C     C_R   0.254888 0.544379 0.033957 0.009790
C8    C     C_R   0.144013 0.490675 0.096782 -0.037286
C9    C     C_R   0.056753 0.502509 0.901646 -0.027111
C10   C     C_R   0.946841 0.447781 0.964063 0.005947
C11   C     C_R   0.010475 0.501815 0.803877 0.032674
C12   C     C_3   0.717318 0.851701 0.253728 0.349054
C13   C     C_R   0.858354 0.448351 0.772795 -0.285667
C14   C     C_R   0.747759 0.401529 0.835667 0.017578
C15   C     C_R   0.792653 0.398960 0.930024 -0.170843
C16   C     C_3   0.088967 0.816644 0.093747 -0.322268
C17   C     C_R   0.208240 0.553633 0.939221 -0.035218
C18   C     C_R   0.793753 0.169680 0.504011 -0.075001
C19   C     C_R   0.428680 0.814036 0.463837 -0.279243
C20   C     C_R   0.408575 0.994177 0.425726 -0.095358
C21   C     C_R   0.342093 0.887395 0.424227 0.006898
C22   C     C_R   0.576098 0.847054 0.513251 0.064698
C23   C     C_3   0.635512 0.238615 0.250942 0.214437
C24   C     C_R   0.644051 0.957341 0.518342 -0.052585
C25   C     C_R   0.560578 0.030828 0.470952 -0.067270
C26   C     C_R   0.632212 0.138720 0.468658 -0.001267
C27   C     C_R   0.867326 0.102035 0.560582 0.021993
C28   C     C_3   0.212916 0.759879 0.650711 0.288853
C29   C     C_R   0.791850 0.996848 0.568487 -0.120853
C30   C     C_3   0.205827 0.878665 0.664338 -0.351102
C31   C     C_3   0.124766 0.234811 0.252874 0.267131
C32   C     C_3   0.100513 0.187090 0.152016 -0.156637
C33   C     C_3   0.715429 0.674253 0.737348 0.308190
C34   C     C_3   0.609281 0.223484 0.144218 -0.077473
C35   C     C_3   0.732578 0.698586 0.843341 -0.387780
C36   C     C_3   0.048382 0.204430 0.800724 0.340068
C37   C     C_3   0.071799 0.178011 0.902479 -0.394525
C38   C     C_3   0.522436 0.143358 0.778460 0.405568
C39   C     C_3   0.527330 0.045510 0.837373 0.155049
C40   C     C_R   0.990318 0.442758 0.059872 -0.048836
H1    H     H_    0.318841 0.918547 0.700233 0.071837
H2    H     H_    0.752775 0.626229 0.879143 0.063384
H3    H     H_    0.619384 0.726126 0.870624 0.125889
H4    H     H_    0.654201 0.993632 0.193708 0.095153
H5    H     H_    0.689358 0.321537 0.268406 0.108556
H6    H     H_    0.717588 0.182055 0.273463 0.003572
H7    H     H_    0.537930 0.144237 0.124730 0.150663
H8    H     H_    0.729863 0.225323 0.110590 0.045504
H9    H     H_    0.862698 0.969862 0.175178 0.137246
H10   H     H_    0.150378 0.893342 0.069738 0.098046
H11   H     H_    0.132032 0.279159 0.790405 0.095362
H12   H     H_    0.125161 0.169210 0.301293 0.068253
H13   H     H_    0.201200 0.201024 0.925685 0.178090
H14   H     H_    0.994740 0.222950 0.948561 0.060562
H15   H     H_    0.037583 0.091474 0.911022 0.127473
H16   H     H_    0.646122 0.167023 0.750210 -0.149720
H17   H     H_    0.436217 0.120691 0.717693 0.045657
H18   H     H_    0.541859 0.975477 0.788830 0.036382
H19   H     H_    0.496207 0.632422 0.019722 0.075754
H20   H     H_    0.706777 0.358617 0.976288 0.107314
H21   H     H_    0.821706 0.448157 0.699495 0.075510
H22   H     H_    0.293197 0.599296 0.895041 0.099767
H23   H     H_    0.244141 0.285374 0.260979 0.042732
H24   H     H_    0.339925 0.046948 0.390239 0.098925
H25   H     H_    0.852201 0.946542 0.611798 0.099008
H26   H     H_    0.376442 0.730815 0.460194 0.054914
H27   H     H_    0.955292 0.817402 0.092503 0.144257
H28   H     H_    0.337372 0.746243 0.631026 -0.004007
H29   H     H_    0.819916 0.830193 0.295101 0.125802
H30   H     H_    0.196308 0.912873 0.595207 0.106864
H31   H     H_    0.097749 0.893813 0.705886 0.137783
H32   H     H_    0.198544 0.083310 0.062125 0.194256
H33   H     H_    0.199145 0.051721 0.174783 0.209355
H34   H     H_    0.116819 0.252675 0.103474 0.086046
H35   H     H_    0.609240 0.848188 0.298972 -0.024391
H36   H     H_    0.413522 0.307180 0.139110 0.201505
H37   H     H_    0.595480 0.381478 0.126365 0.159696
H38   H     H_    0.920037 0.218044 0.789364 -0.044123
H39   H     H_    0.674522 0.138159 0.938203 0.197192
H40   H     H_    0.771646 0.059333 0.864828 0.160176
H41   H     H_    0.089499 0.717636 0.208619 0.094798
H42   H     H_    0.277609 0.007396 0.841955 0.185120
H43   H     H_    0.380871 0.951638 0.923070 0.186970
H44   H     H_    0.400525 0.430031 0.327172 0.187436
H45   H     H_    0.974972 0.143423 0.141232 0.092172
H46   H     H_    0.371935 0.559772 0.362439 0.200686
H47   H     H_    0.904438 0.398728 0.104478 0.080380
H48   H     H_    0.002031 0.250534 0.458011 0.200025
H49   H     H_    0.842953 0.293508 0.418571 0.184070
H50   H     H_    0.382734 0.878569 0.195055 0.185464
H51   H     H_    0.361699 0.762276 0.248809 0.111067
H52   H     H_    0.115700 0.751438 0.043268 0.085297
H53   H     H_    0.125370 0.729541 0.592432 0.090734
H54   H     H_    0.831412 0.651477 0.710672 0.005723
H55   H     H_    0.614701 0.607298 0.723027 0.068430
H56   H     H_    0.803700 0.017658 0.290142 0.072983
H57   H     H_    0.837872 0.761891 0.859973 0.125213
N1    N     N_3   0.219988 0.115239 0.131222 -0.503680
N2    N     N_3   0.526268 0.307461 0.107626 -0.488129
N3    N     N_3   0.666395 0.062385 0.903736 -0.482097
N4    N     N_3   0.376629 0.022391 0.889595 -0.459324
N5    N     N_3   0.420000 0.510086 0.312339 -0.450208
N6    N     N_3   0.888249 0.268149 0.480135 -0.432397
N7    N     N_3   0.326300 0.799290 0.189911 -0.501665
O1    O     O_2   0.887370 0.460630 0.272300 -0.462169
O2    O     O_2   0.210013 0.114476 0.573017 -0.485850
O3    O     O_3   0.083707 0.119803 0.739449 -0.620290
O4    O     O_3   0.129410 0.451380 0.388510 -0.471594
O5    O     O_3   0.575400 0.626570 0.547370 -0.489802
O6    O     O_2   0.344320 0.238700 0.455090 -0.452820
O7    O     O_3   0.486150 0.220873 0.295871 -0.662315
O8    O     O_2   0.421606 0.422586 0.835439 -0.489589
O9    O     O_3   0.466431 0.225332 0.834542 -0.590243
O10   O     O_3   0.670210 0.653170 0.329170 -0.473727
O11   O     O_2   0.808407 0.603209 0.166194 -0.504276
O12   O     O_3   0.681213 0.765931 0.695667 -0.639840
O13   O     O_3   0.993854 0.289274 0.276803 -0.679465
O14   O     O_3   0.685499 0.782741 0.172558 -0.616108
O15   O     O_2   0.845380 0.761330 0.544970 -0.478397
O16   O     O_3   0.088930 0.704860 0.376040 -0.497715
O17   O     O_2   0.007106 0.892166 0.431670 -0.503137
O18   O     O_3   0.109267 0.878435 0.257491 -0.637467
O19   O     O_2   0.302330 0.539400 0.727760 -0.463469
O20   O     O_3   0.060300 0.548700 0.611500 -0.491566
O21   O     O_3   0.519500 0.346920 0.670840 -0.467247
O22   O     O_3   0.174184 0.711582 0.735079 -0.640027
O23   O     O_3   0.614310 0.373510 0.452640 -0.456661
O24   O     O_3   0.100780 0.295230 0.623970 -0.466738
P1    P     P_3+3 0.054400 0.427280 0.286870 0.952038
P2    P     P_3+3 0.668300 0.742890 0.573060 0.969216
P3    P     P_3+3 0.137124 0.842323 0.373477 0.901845
P4    P     P_3+3 0.135310 0.572810 0.713130 0.970525
P5    P     P_3+3 0.064272 0.155561 0.623188 0.956198
P6    P     P_3+3 0.659194 0.650747 0.205839 0.960163
P7    P     P_3+3 0.523149 0.241430 0.417207 0.927972
P8    P     P_3+3 0.540107 0.349679 0.793430 0.961789

loop_
_geom_bond_atom_site_label_1
_geom_bond_atom_site_label_2
_ccdc_geom_bond_type
O19   P4    D    
O3    P5    S    
C12   H29   S    
H49   N6    S    
O24   P5    S    
C4    O18   S    
Ba1   P2    S    
H44   N5    S    
C16   H10   S    
C5    C6    A    
C30   H30   S    
C33   H54   S    
C29   H25   S    
Ba2   O6    S    
C24   C25   A    
Ba2   P4    S    
O18   P3    S    
O17   P3    D    
C33   C35   S    
C22   C24   A    
Ba1   O23   S    
C36   C37   S    
H51   N7    S    
C38   O9    S    
C8    C40   A    
C13   C14   A    
C37   H15   S    
Ba2   O23   S    
C39   N3    S    
Ba1   Ba2   S    
C11   P4    S    
C12   H35   S    
Ba1   O16   S    
C20   H24   S    
C10   C40   A    
H46   N5    S    
C7    C17   A    
C37   H13   S    
C6    C7    A    
C10   C15   A    
C32   N1    S    
Ba1   O10   S    
C7    C8    A    
C23   H5    S    
H43   N4    S    
C6    H19   S    
H39   N3    S    
Ba2   O21   S    
C16   H27   S    
C3    N5    S    
C24   C29   A    
C38   H17   S    
H36   N2    S    
C28   H28   S    
C2    P1    S    
C18   C27   A    
C4    N7    S    
C4    C16   S    
C28   O22   S    
Ba2   O5    S    
C38   H16   S    
C21   P3    S    
C31   H23   S    
C15   H20   S    
Ba1   O20   S    
C39   H18   S    
O2    P5    D    
O1    P1    D    
C30   H31   S    
C3    C5    A    
C1    H9    S    
C14   C15   A    
H32   N1    S    
C18   C26   A    
C39   N4    S    
C34   N2    S    
O14   P6    S    
O16   P3    S    
C28   H53   S    
O22   P4    S    
Ba1   O4    S    
C22   P2    S    
O13   P1    S    
C37   H14   S    
O9    P8    S    
C17   H22   S    
C9    C17   A    
C31   C32   S    
H40   N3    S    
O4    P1    S    
C36   O3    S    
C23   H6    S    
C1    C12   S    
Ba1   O1    S    
C23   O7    S    
Ba2   O20   S    
H50   N7    S    
C38   C39   S    
C27   P5    S    
C31   O13   S    
C12   O14   S    
C20   C25   A    
C11   C13   A    
C19   H26   S    
C16   H52   S    
O7    P7    S    
O15   P2    D    
C35   H3    S    
C35   H57   S    
C34   H8    S    
C18   N6    S    
C31   H12   S    
Ba2   O4    S    
C4    H41   S    
O6    P7    D    
C14   P8    S    
C26   P7    S    
H48   N6    S    
C2    C3    A    
Ba1   P1    S    
C9    C10   A    
O10   P6    S    
C1    H4    S    
O21   P8    S    
C40   H47   S    
C35   H2    S    
C19   C21   A    
C5    P6    S    
C27   C29   A    
Ba1   O5    S    
C28   C30   S    
C9    C11   A    
C1    H56   S    
C36   H11   S    
C36   H38   S    
H33   N1    S    
Ba2   O24   S    
C30   H1    S    
C32   H45   S    
O8    P8    D    
Ba1   O15   S    
O12   P2    S    
C23   C34   S    
Ba2   O19   S    
O5    P2    S    
O23   P7    S    
O20   P4    S    
C19   C22   A    
C25   C26   A    
H42   N4    S    
C13   H21   S    
C20   C21   A    
H37   N2    S    
C33   O12   S    
C33   H55   S    
O11   P6    D    
C2    C8    A    
C34   H7    S    
C32   H34   S    
