data_mof_unit_68585.cif
_audit_creation_date              2012-12-10T19:42:32-0500
_audit_creation_method            fapswitch 2.2
_symmetry_space_group_name_H-M    P1
_symmetry_Int_Tables_number       1
_space_group_crystal_system       triclinic
_cell_length_a                    11.080961
_cell_length_b                    11.199754
_cell_length_c                    9.998771
_cell_angle_alpha                 98.290464
_cell_angle_beta                  99.243156
_cell_angle_gamma                 90.068029
_cell_volume                      1211.59981815

loop_
_atom_site_label
_atom_site_type_symbol
_atom_type_description
_atom_site_fract_x
_atom_site_fract_y
_atom_site_fract_z
_atom_type_partial_charge
C1    C     C_R   0.504687 0.262530 0.500750 0.768804
C2    C     C_R   0.714881 0.869609 0.784361 -0.219287
C3    C     C_R   0.458076 0.085466 0.244203 0.156588
C4    C     C_R   0.597307 0.912574 0.752293 0.113257
C5    C     C_R   0.562563 0.115937 0.194773 -0.308837
C6    C     C_R   0.512387 0.902146 0.838911 -0.204324
C7    C     C_R   0.555208 0.144803 0.061073 0.461625
C8    C     C_R   0.544854 0.852653 0.960401 0.390349
C9    C     C_R   0.438730 0.149553 0.980368 0.456912
C10   C     C_R   0.665908 0.816110 0.996989 0.377939
C11   C     C_R   0.467235 0.920897 0.381465 -0.269657
C12   C     C_R   0.501961 0.737692 0.499548 0.769889
C13   C     C_R   0.559170 0.079519 0.617410 -0.186977
C14   C     C_R   0.507757 0.872344 0.501270 -0.135153
C15   C     C_R   0.511153 0.128079 0.499410 -0.133674
C16   C     C_R   0.262333 0.500844 0.499846 0.769788
C17   C     C_R   0.737491 0.498604 0.500078 0.769409
C18   C     C_R   0.556438 0.954218 0.620320 0.045560
C19   C     C_R   0.471967 0.045918 0.378690 0.035584
C20   C     C_2   0.512609 0.503670 0.078900 -0.085427
C21   C     C_2   0.488951 0.494516 0.921409 -0.087248
C22   C     C_R   0.157405 0.533674 0.053842 -0.143500
C23   C     C_R   0.871991 0.496478 0.501466 -0.082333
C24   C     C_R   0.784458 0.360357 0.856302 -0.094267
C25   C     C_R   0.123357 0.559006 0.182868 -0.096257
C26   C     C_R   0.849732 0.369085 0.750581 -0.149668
C27   C     C_R   0.078706 0.465555 0.240918 0.137385
C28   C     C_R   0.916588 0.475440 0.750611 0.143901
C29   C     C_R   0.070832 0.347652 0.171426 -0.126303
C30   C     C_R   0.926364 0.566854 0.862874 -0.136106
C31   C     C_R   0.103659 0.324584 0.041514 -0.141441
C32   C     C_R   0.872192 0.550526 0.976146 -0.122716
C33   C     C_R   0.144618 0.418008 0.982338 -0.149912
C34   C     C_R   0.127650 0.501767 0.498571 -0.082746
C35   C     C_R   0.801255 0.446907 0.972955 -0.107728
C36   C     C_R   0.916577 0.492278 0.378521 -0.251407
C37   C     C_R   0.082747 0.508980 0.622314 -0.260572
C38   C     C_3   0.767821 0.123527 0.070119 0.026453
C39   C     C_3   0.863117 0.113224 0.975500 -0.327367
C40   C     C_3   0.970828 0.037993 0.025018 -0.981457
C41   C     C_3   0.364060 0.757542 0.971668 0.060966
C42   C     C_3   0.239853 0.818624 0.955923 -0.354146
C43   C     C_3   0.183397 0.833014 0.087416 -0.832437
C44   C     C_3   0.322266 0.202212 0.776701 0.040541
C45   C     C_R   0.957129 0.497662 0.623734 0.018826
C46   C     C_3   0.248235 0.096263 0.686430 -0.371886
C47   C     C_3   0.131196 0.140359 0.607543 -0.932126
C48   C     C_3   0.709355 0.817208 0.231702 0.077107
C49   C     C_3   0.844397 0.828466 0.296711 -0.390803
C50   C     C_3   0.859023 0.868905 0.450673 -0.925211
C51   C     C_R   0.041992 0.489647 0.375561 -0.003907
C52   C     C_R   0.333774 0.124790 0.036858 -0.349857
C53   C     C_R   0.748079 0.821352 0.905345 -0.244370
C54   C     C_R   0.343736 0.099167 0.169884 -0.124432
Cu1   Cu    Cu3+1 0.521120 0.521140 0.639640 0.949587
Cu2   Cu    Cu3+1 0.478880 0.478860 0.360360 0.960142
H1    H     H_    0.160984 0.402965 0.878526 0.106779
H2    H     H_    0.378379 0.389823 0.095719 0.214495
H3    H     H_    0.183258 0.603180 0.001736 0.136647
H4    H     H_    0.721942 0.285492 0.847481 0.191284
H5    H     H_    0.129141 0.650055 0.237088 0.107159
H6    H     H_    0.837708 0.299147 0.662187 0.101260
H7    H     H_    0.037302 0.275574 0.217693 0.115153
H8    H     H_    0.977131 0.649377 0.862812 0.103219
H9    H     H_    0.093176 0.236088 0.983282 0.136412
H10   H     H_    0.883800 0.618923 0.065178 0.152835
H11   H     H_    0.853553 0.487421 0.283222 0.155170
H12   H     H_    0.755535 0.435559 0.057993 0.143867
H13   H     H_    0.145969 0.517458 0.717449 0.140251
H14   H     H_    0.244018 0.118072 0.977307 0.142161
H15   H     H_    0.838244 0.786732 0.927656 0.155463
H16   H     H_    0.262995 0.089486 0.215462 0.130591
H17   H     H_    0.780738 0.873292 0.716267 0.149248
H18   H     H_    0.803485 0.187598 0.164058 0.142225
H19   H     H_    0.754262 0.032868 0.097666 0.147747
H20   H     H_    0.821872 0.075750 0.869599 0.232064
H21   H     H_    0.897599 0.203950 0.972546 0.217851
H22   H     H_    0.022426 0.082960 0.123351 0.245290
H23   H     H_    0.649044 0.116342 0.262755 0.109418
H24   H     H_    0.032315 0.024914 0.946994 0.260061
H25   H     H_    0.940434 0.948779 0.042400 0.262869
H26   H     H_    0.362154 0.683239 0.032569 0.172509
H27   H     H_    0.378460 0.714670 0.867655 0.127810
H28   H     H_    0.249052 0.906949 0.921768 0.214804
H29   H     H_    0.176079 0.763493 0.872598 0.157998
H30   H     H_    0.242811 0.798765 0.172977 0.254118
H31   H     H_    0.092773 0.785945 0.068361 0.215399
H32   H     H_    0.166821 0.927793 0.121171 0.251034
H33   H     H_    0.341542 0.267227 0.709043 0.191366
H34   H     H_    0.419141 0.927815 0.809002 0.148438
H35   H     H_    0.268122 0.251763 0.847511 0.111697
H36   H     H_    0.303497 0.050171 0.612111 0.240478
H37   H     H_    0.223323 0.029592 0.749672 0.193937
H38   H     H_    0.071933 0.183018 0.679820 0.256080
H39   H     H_    0.080241 0.062927 0.540520 0.257400
H40   H     H_    0.153305 0.206942 0.542138 0.255138
H41   H     H_    0.659438 0.767698 0.294950 0.195911
H42   H     H_    0.669409 0.907818 0.232755 0.140423
H43   H     H_    0.888273 0.739719 0.279019 0.230559
H44   H     H_    0.892059 0.894466 0.249259 0.205528
H45   H     H_    0.436342 0.860584 0.287930 0.215921
H46   H     H_    0.815677 0.957406 0.473109 0.255257
H47   H     H_    0.957648 0.877274 0.494876 0.255676
H48   H     H_    0.816127 0.800144 0.498976 0.252037
H49   H     H_    0.598947 0.139299 0.708263 0.208593
H50   H     H_    0.411545 0.439229 0.866977 0.155798
H51   H     H_    0.585987 0.563503 0.134795 0.210284
H52   H     H_    0.630324 0.597344 0.901579 0.253270
N1    N     N_2   0.447120 0.447110 0.150550 -0.297430
N2    N     N_2   0.552880 0.552890 0.849450 -0.304397
O1    O     O_R   0.517830 0.337490 0.617920 -0.576609
O2    O     O_3   0.458411 0.839116 0.042669 -0.612953
O3    O     O_3   0.435553 0.165839 0.843948 -0.616290
O4    O     O_3   0.696822 0.747401 0.101126 -0.667766
O5    O     O_R   0.482170 0.662510 0.382080 -0.587782
O6    O     O_R   0.482150 0.301790 0.382070 -0.566284
O7    O     O_R   0.517850 0.698210 0.617930 -0.570728
O8    O     O_R   0.337480 0.517860 0.617920 -0.607021
O9    O     O_R   0.662520 0.482140 0.382080 -0.590348
O10   O     O_R   0.301810 0.482160 0.382070 -0.558623
O11   O     O_R   0.698190 0.517840 0.617930 -0.558817
O12   O     O_3   0.657708 0.166667 0.002629 -0.629008

loop_
_geom_bond_atom_site_label_1
_geom_bond_atom_site_label_2
_ccdc_geom_bond_type
Cu1   Cu2   S    
C29   H7    S    
C50   H48   S    
C23   C45   A    
C37   H13   S    
C27   C29   A    
H2    N1    S    
C41   C42   S    
C14   C18   A    
Cu1   O11   S    
C21   N2    D    
C36   H11   S    
C15   C19   A    
C48   H41   S    
C11   C19   A    
C34   C51   A    
C17   C23   S    
C13   C18   A    
C43   H32   S    
C39   H21   S    
C32   H10   S    
C24   C26   A    
C30   H8    S    
C16   O10   A    
C38   H18   S    
C38   C39   S    
C3    C54   A    
C46   H36   S    
C34   C37   A    
C31   H9    S    
C10   C53   A    
C16   C34   S    
Cu2   O5    S    
C44   C46   S    
C41   O2    S    
C47   H40   S    
C40   H24   S    
C3    C19   S    
C1    C15   S    
C1    O6    A    
C5    H23   S    
C21   H50   S    
C10   O4    S    
C20   H51   S    
C4    C18   S    
C50   H47   S    
Cu2   O10   S    
C9    C52   A    
C52   C54   A    
C38   H19   S    
C2    H17   S    
C28   C45   S    
C24   C35   A    
C32   C35   A    
C42   H28   S    
C13   H49   S    
C22   H3    S    
C5    C7    A    
C6    C8    A    
C6    H34   S    
C22   C25   A    
C20   N1    D    
C2    C4    A    
C16   O8    A    
C49   H43   S    
C24   H4    S    
C31   C33   A    
Cu2   O6    S    
C11   H45   S    
C42   H29   S    
C25   H5    S    
C39   H20   S    
C36   C51   A    
C38   O12   S    
C44   H35   S    
C4    C6    A    
C48   C49   S    
C12   C14   S    
C44   O3    S    
C50   H46   S    
C13   C15   A    
Cu1   N2    S    
Cu2   O9    S    
C40   H22   S    
C42   C43   S    
C7    O12   S    
C37   C45   A    
C53   H15   S    
Cu2   N1    S    
C39   C40   S    
C48   O4    S    
Cu1   O7    S    
C17   O11   A    
C7    C9    A    
C22   C33   A    
C46   C47   S    
C33   H1    S    
Cu1   O1    S    
C43   H30   S    
C40   H25   S    
C3    C5    A    
C2    C53   A    
C23   C36   A    
C25   C27   A    
C48   H42   S    
C26   C28   A    
C43   H31   S    
C12   O5    A    
C8    O2    S    
C26   H6    S    
C9    O3    S    
C11   C14   A    
C29   C31   A    
C1    O1    A    
C49   H44   S    
C30   C32   A    
C46   H37   S    
C35   H12   S    
C41   H26   S    
C28   C30   A    
C27   C51   S    
C47   H38   S    
H52   N2    S    
C52   H14   S    
C17   O9    A    
C12   O7    A    
C54   H16   S    
C20   C21   S    
C8    C10   A    
C49   C50   S    
C47   H39   S    
C44   H33   S    
Cu1   O8    S    
C41   H27   S    
