data_mof_unit_17961.cif
_audit_creation_date              2012-12-11T14:51:47-0500
_audit_creation_method            fapswitch 2.2
_symmetry_space_group_name_H-M    P1
_symmetry_Int_Tables_number       1
_space_group_crystal_system       triclinic
_cell_length_a                    6.938939
_cell_length_b                    16.65449
_cell_length_c                    16.947233
_cell_angle_alpha                 101.32431
_cell_angle_beta                  90.058094
_cell_angle_gamma                 90.501556
_cell_volume                      1920.28814786

loop_
_atom_site_label
_atom_site_type_symbol
_atom_type_description
_atom_site_fract_x
_atom_site_fract_y
_atom_site_fract_z
_atom_type_partial_charge
O1    O     O_R   0.506340 0.439070 0.579550 -0.543771
O2    O     O_R   0.170010 0.404890 0.412100 -0.540707
O3    O     O_R   0.005010 0.560930 0.420450 -0.535796
C1    C     C_R   0.339562 0.381616 0.383295 0.755204
O4    O     O_R   0.176280 0.429360 0.578400 -0.548183
O5    O     O_R   0.011320 0.585570 0.587940 -0.543357
C2    C     C_R   0.343256 0.413703 0.605325 0.680727
O6    O     O_R   0.500030 0.414430 0.412060 -0.534924
O7    O     O_3   0.340950 0.551220 0.502940 -0.361094
V1    V     V_3+5 0.064020 0.490500 0.499460 1.442721
O8    O     O_R   0.681910 0.595110 0.587900 -0.547061
C3    C     C_R   0.851490 0.618414 0.616696 0.663201
O9    O     O_R   0.675640 0.570640 0.421600 -0.504081
C4    C     C_R   0.842903 0.585420 0.393977 0.790679
V2    V     V_3+5 0.564670 0.509500 0.500540 1.489310
O10   O     O_3   0.837610 0.448780 0.497060 -0.379928
C5    C     C_R   0.924300 0.862894 0.168686 -0.301433
C6    C     C_R   0.840498 0.636404 0.330790 -0.275690
C7    C     C_R   0.661417 0.684321 0.224244 0.396247
C8    C     C_R   0.682339 0.630095 0.277336 0.589968
C9    C     C_R   0.981342 0.696774 0.328332 -0.174407
C10   C     C_R   0.961648 0.752226 0.275533 -0.105967
C11   C     C_R   0.799932 0.746610 0.223186 -0.084226
C12   C     C_R   0.782315 0.802718 0.170599 -0.189892
C13   C     C_R   0.081854 0.868494 0.222305 0.562448
C14   C     C_R   0.100075 0.814056 0.274986 0.631682
H1    H     H_    0.662757 0.798295 0.128877 0.208291
H2    H     H_    0.102231 0.702353 0.369659 0.207489
C15   C     C_3   0.809164 0.817992 0.731296 -0.138080
C16   C     C_3   0.978868 0.768533 0.687154 -0.137621
H3    H     H_    0.057500 0.783472 0.634794 0.115633
H4    H     H_    0.748531 0.874634 0.716294 0.106708
C17   C     C_3   0.865622 0.688679 0.687499 -0.007613
C18   C     C_3   0.695779 0.737323 0.730838 -0.118397
C19   C     C_3   0.787213 0.731369 0.812938 -0.135604
C20   C     C_3   0.956917 0.681909 0.768795 -0.135183
C21   C     C_3   0.070301 0.762578 0.769253 -0.116788
C22   C     C_3   0.900460 0.811223 0.812590 -0.002528
H5    H     H_    0.541458 0.726585 0.714512 0.108999
H6    H     H_    0.708587 0.716433 0.865303 0.118648
H7    H     H_    0.017550 0.625266 0.783798 0.109758
H8    H     H_    0.224622 0.773316 0.785582 0.108171
C23   C     C_3   0.554587 0.281849 0.275593 -0.038800
C24   C     C_3   0.490756 0.191855 0.272630 -0.124550
H9    H     H_    0.581525 0.144024 0.290882 0.172672
H10   H     H_    0.697518 0.308176 0.296612 0.157806
C25   C     C_3   0.407220 0.188802 0.187783 -0.087824
C26   C     C_3   0.470384 0.278178 0.190180 -0.158644
C27   C     C_3   0.273721 0.308717 0.228021 -0.166004
C28   C     C_3   0.212024 0.219102 0.225509 0.431135
C29   C     C_3   0.294223 0.222274 0.310608 -0.196193
C30   C     C_3   0.357511 0.311381 0.312583 -0.114532
H11   H     H_    0.544596 0.301101 0.140869 0.152349
H12   H     H_    0.182175 0.356359 0.209848 0.156026
H13   H     H_    0.219522 0.199349 0.359811 0.147597
C31   C     C_R   0.428085 0.139430 0.833264 -0.060867
C32   C     C_R   0.338470 0.360717 0.666760 -0.064417
C33   C     C_R   0.148144 0.302410 0.763797 -0.190028
C34   C     C_R   0.168569 0.357544 0.711902 -0.158692
C35   C     C_R   0.490342 0.308135 0.676268 -0.235569
C36   C     C_R   0.469758 0.251707 0.728101 0.160233
C37   C     C_R   0.296856 0.248475 0.771960 0.158581
C38   C     C_R   0.276243 0.192030 0.823772 -0.233888
C39   C     C_R   0.598028 0.142628 0.788156 -0.158955
C40   C     C_R   0.618479 0.197778 0.736276 -0.192352
H14   H     H_    0.145321 0.190948 0.858421 0.125494
H15   H     H_    0.717725 0.102756 0.793701 0.124401
H16   H     H_    0.014950 0.301496 0.796966 0.125915
H17   H     H_    0.751686 0.198699 0.703117 0.123823
H18   H     H_    0.048864 0.397413 0.706360 0.126561
H19   H     H_    0.621246 0.309207 0.641606 0.122634
O11   O     O_R   0.266070 0.085680 0.087850 -0.508477
O12   O     O_R   0.590090 0.070660 0.921580 -0.550957
O13   O     O_R   0.754780 0.914400 0.912080 -0.549132
C41   C     C_R   0.423169 0.086386 0.894644 0.667643
O14   O     O_R   0.596110 0.095130 0.087880 -0.514916
O15   O     O_R   0.760850 0.939050 0.079570 -0.536005
C42   C     C_R   0.426322 0.118477 0.116800 0.778422
O16   O     O_R   0.260010 0.061030 0.920360 -0.546952
O17   O     O_3   0.425070 0.948840 0.997010 -0.372747
V3    V     V_3+5 0.702100 0.009490 0.000550 1.511243
O18   O     O_R   0.090200 0.929250 0.078500 -0.504923
C43   C     C_R   0.922795 0.914412 0.105983 0.830030
O19   O     O_R   0.084180 0.904770 0.912200 -0.551917
C44   C     C_R   0.914602 0.881503 0.883375 0.644350
V4    V     V_3+5 0.201420 0.990350 0.999580 1.539522
O20   O     O_3   0.928580 0.051150 0.002990 -0.354639
Cl1   Cl    Cl    0.977290 0.180364 0.195965 -0.678942
F1    F     F_    0.220072 0.927045 0.223695 -0.641023
Cl2   Cl    Cl    0.456740 0.672609 0.160845 -0.592342
F2    F     F_    0.255264 0.821382 0.324919 -0.646769
F3    F     F_    0.546183 0.570784 0.276778 -0.648933

loop_
_geom_bond_atom_site_label_1
_geom_bond_atom_site_label_2
_ccdc_geom_bond_type
C33   C37   A    
C6    C9    A    
C4    C6    S    
O2    C1    A    
C7    C8    A    
C12   H1    S    
C1    O6    A    
C8    F3    S    
C37   C38   A    
C1    C30   S    
C20   C21   S    
C21   C22   S    
O14   C42   A    
C15   H4    S    
O5    C3    A    
C16   H3    S    
C23   C30   S    
C32   C34   A    
O15   C43   A    
C27   H12   S    
C17   C20   S    
C18   C19   S    
C21   H8    S    
O11   C42   A    
O8    V2    S    
C19   C20   S    
C15   C22   S    
O17   V4    S    
C11   C12   A    
C31   C39   A    
O1    V2    S    
C23   C26   S    
C29   H13   S    
C24   C25   S    
C28   Cl1   S    
C38   H14   S    
C31   C41   S    
O9    C4    A    
O12   C41   A    
C20   H7    S    
O12   V3    S    
C13   C14   A    
C17   C18   S    
C25   C28   S    
C26   H11   S    
C5    C12   A    
C22   C44   S    
C29   C30   S    
C39   H15   S    
C19   C22   S    
O19   C44   A    
O4    C2    A    
V4    O20   S    
C32   C35   A    
C35   H19   S    
C14   F2    S    
O18   V4    S    
C15   C18   S    
C18   H5    S    
C16   C21   S    
C35   C36   A    
C5    C43   S    
C7    C11   A    
C23   C24   S    
C15   C16   S    
C25   C26   S    
O15   V3    S    
C27   C30   S    
C28   C29   S    
C31   C38   A    
V3    O20   S    
O3    C4    A    
C24   C29   S    
C33   H16   S    
C26   C27   S    
C9    H2    S    
O18   C43   A    
O6    V2    S    
O9    V2    S    
O13   V3    S    
O2    V1    S    
C24   H9    S    
O7    V1    S    
C16   C17   S    
O1    C2    A    
O19   V4    S    
O17   V3    S    
O14   V3    S    
O5    V1    S    
O11   V4    S    
O8    C3    A    
C13   F1    S    
C5    C13   A    
C39   C40   A    
C19   H6    S    
C33   C34   A    
O4    V1    S    
O3    V1    S    
V1    O10   S    
C40   H17   S    
C6    C8    A    
O13   C44   A    
O7    V2    S    
C36   C37   A    
C23   H10   S    
C34   H18   S    
C36   C40   A    
C27   C28   S    
C10   C14   A    
C7    Cl2   S    
C10   C11   A    
C25   C42   S    
C3    C17   S    
C9    C10   A    
C41   O16   A    
C2    C32   S    
O16   V4    S    
V2    O10   S    
