data_mof_unit_38416.cif
_audit_creation_date              2012-12-10T17:13:09-0500
_audit_creation_method            fapswitch 2.2
_symmetry_space_group_name_H-M    P1
_symmetry_Int_Tables_number       1
_space_group_crystal_system       triclinic
_cell_length_a                    18.269356
_cell_length_b                    18.263748
_cell_length_c                    18.279008
_cell_angle_alpha                 119.756237
_cell_angle_beta                  90.263861
_cell_angle_gamma                 120.150579
_cell_volume                      4308.74000685

loop_
_atom_site_label
_atom_site_type_symbol
_atom_type_description
_atom_site_fract_x
_atom_site_fract_y
_atom_site_fract_z
_atom_type_partial_charge
C1    C     C_R   0.640074 0.779616 0.642377 0.844017
C2    C     C_R   0.065676 0.887279 0.138359 -0.197516
C3    C     C_R   0.154541 0.943462 0.193690 0.061189
C4    C     C_R   0.358949 0.220045 0.360216 0.920489
C5    C     C_R   0.207147 0.053383 0.250818 0.001702
C6    C     C_R   0.297287 0.107639 0.304855 -0.188061
C7    C     C_R   0.330991 0.053877 0.306144 0.505843
C8    C     C_R   0.276677 0.946447 0.253135 -0.313455
C9    C     C_R   0.190822 0.891691 0.195559 -0.102730
C10   C     C_R   0.774477 0.703618 0.370175 -0.058818
C11   C     C_R   0.830014 0.786443 0.363030 0.562186
C12   C     C_3   0.812477 0.596072 0.817984 -0.020387
C13   C     C_R   0.869443 0.772848 0.296393 0.011114
C14   C     C_R   0.860683 0.680607 0.242483 -0.233769
C15   C     C_R   0.808967 0.597363 0.250088 0.035714
C16   C     C_R   0.355885 0.495860 0.635704 0.875099
C17   C     C_R   0.760106 0.604597 0.310931 -0.061310
C18   C     C_R   0.698912 0.511687 0.306316 -0.034769
C19   C     C_R   0.691432 0.419550 0.246432 0.098817
C20   C     C_R   0.744160 0.417651 0.192272 -0.265463
C21   C     C_R   0.803300 0.505421 0.194928 -0.030946
C22   C     C_R   0.698633 0.897160 0.844572 -0.024310
C23   C     C_3   0.710547 0.545207 0.799049 -0.415348
C24   C     C_R   0.725429 0.957541 0.938718 0.570863
C25   C     C_R   0.781087 0.065768 0.988349 0.006493
C26   C     C_R   0.805783 0.114022 0.944559 -0.233287
C27   C     C_R   0.777135 0.056289 0.850215 0.013620
C28   C     C_R   0.640666 0.504990 0.360674 0.813118
C29   C     C_R   0.722853 0.946101 0.798100 -0.072980
C30   C     C_R   0.696729 0.891590 0.702793 -0.060075
C31   C     C_R   0.724310 0.944364 0.661941 0.062616
C32   C     C_R   0.776964 0.051988 0.713917 0.021657
C33   C     C_R   0.803272 0.107677 0.807417 -0.063597
C34   C     C_3   0.698114 0.446368 0.780613 0.473543
C35   C     C_R   0.428009 0.697487 0.374399 0.387078
C36   C     C_R   0.448832 0.791195 0.392060 0.512842
C37   C     C_R   0.390387 0.790022 0.341487 -0.017502
C38   C     C_R   0.309944 0.696133 0.275982 -0.323706
C39   C     C_R   0.283390 0.602054 0.263362 -0.018293
C40   C     C_R   0.362189 0.503134 0.358820 0.884023
C41   C     C_R   0.341623 0.603101 0.315266 -0.103788
C42   C     C_R   0.313008 0.508386 0.302489 -0.051490
C43   C     C_R   0.233463 0.414831 0.235970 -0.284849
C44   C     C_R   0.177125 0.412476 0.183084 0.099032
C45   C     C_3   0.685646 0.401463 0.681049 0.336886
C46   C     C_R   0.201775 0.505912 0.197335 -0.016791
C47   C     C_R   0.179775 0.460947 0.574506 0.567144
C48   C     C_R   0.105891 0.464602 0.559890 -0.362926
C49   C     C_R   0.053720 0.463177 0.613919 -0.290318
C50   C     C_R   0.073036 0.459499 0.684948 0.547886
C51   C     C_R   0.156210 0.475909 0.713004 -0.144507
C52   C     C_R   0.641730 0.499890 0.641411 0.902308
C53   C     C_R   0.210238 0.475819 0.656482 -0.067441
C54   C     C_R   0.291300 0.487338 0.683253 -0.053254
C55   C     C_R   0.315104 0.494622 0.760247 -0.276861
C56   C     C_3   0.698989 0.500213 0.698510 -0.234810
C57   C     C_R   0.264253 0.497022 0.815955 0.081310
C58   C     C_R   0.186160 0.489892 0.794170 -0.056842
C59   C     C_R   0.859739 0.499494 0.139636 0.783471
C60   C     C_R   0.138091 0.498179 0.858155 0.889027
C61   C     C_R   0.139445 0.779717 0.139770 0.797932
C62   C     C_R   0.859851 0.220142 0.859827 0.771724
C63   C     C_R   0.142120 0.501157 0.141235 0.802081
C64   C     C_3   0.801534 0.553681 0.719203 0.482576
C65   C     C_R   0.858160 0.499614 0.858184 0.915678
C66   C     C_3   0.787553 0.454692 0.700423 0.298158
C67   C     C_R   0.166356 0.103746 0.253659 0.068509
C68   C     C_3   0.800439 0.498545 0.800716 -0.233352
C69   C     C_3   0.807909 0.377559 0.565021 -0.314837
C70   C     C_3   0.913804 0.943496 0.497356 -0.338275
C71   C     C_3   0.943281 0.658243 0.720655 -0.258461
C72   C     C_3   0.616640 0.880710 0.987171 -0.330544
C73   C     C_3   0.539837 0.677953 0.342831 -0.280823
C74   C     C_3   0.523677 0.930794 0.536190 -0.316712
C75   C     C_3   0.177035 0.407181 0.426531 -0.332035
C76   C     C_3   0.949617 0.333308 0.683706 -0.258517
C77   C     C_3   0.562507 0.369286 0.801381 -0.276652
C78   C     C_R   0.077602 0.044983 0.196132 0.128612
C79   C     C_3   0.615268 0.225598 0.608572 -0.250795
C80   C     C_3   0.475225 0.108603 0.314720 -0.317775
C81   C     C_R   0.028673 0.937754 0.138932 -0.141322
H1    H     H_    0.960376 0.892770 0.095707 0.155273
H2    H     H_    0.084366 0.463527 0.504010 0.166565
H3    H     H_    0.994514 0.459587 0.597685 0.192979
H4    H     H_    0.679608 0.583728 0.838345 0.181598
H5    H     H_    0.843285 0.445998 0.562377 0.195639
H6    H     H_    0.734353 0.330395 0.530814 0.196927
H7    H     H_    0.830817 0.328409 0.526506 0.169212
H8    H     H_    0.669672 0.306223 0.258053 0.169371
H9    H     H_    0.586902 0.268166 0.177136 0.191731
H10   H     H_    0.771270 0.731795 0.492195 0.238012
H11   H     H_    0.669212 0.676436 0.418609 0.183137
H12   H     H_    0.023145 0.803503 0.094722 0.145896
H13   H     H_    0.899822 0.910360 0.536930 0.175935
H14   H     H_    0.977129 0.957412 0.483594 0.156705
H15   H     H_    0.924643 0.019825 0.539362 0.197301
H16   H     H_    0.974111 0.918096 0.340396 0.203160
H17   H     H_    0.877426 0.872006 0.270890 0.217097
H18   H     H_    0.757352 0.910654 0.549688 0.238212
H19   H     H_    0.663215 0.906656 0.544055 0.262267
H20   H     H_    0.958108 0.606450 0.721425 0.199130
H21   H     H_    0.971845 0.729674 0.789156 0.188474
H22   H     H_    0.978047 0.681873 0.678850 0.175272
H23   H     H_    0.302463 0.905358 0.255462 0.145882
H24   H     H_    0.685356 0.760730 0.765212 0.201561
H25   H     H_    0.584924 0.749436 0.760073 0.169745
H26   H     H_    0.564518 0.819637 0.919379 0.174355
H27   H     H_    0.612715 0.948187 0.021186 0.142189
H28   H     H_    0.600988 0.847788 0.026823 0.193869
H29   H     H_    0.759680 0.112401 0.107064 0.191925
H30   H     H_    0.849726 0.107340 0.104643 0.218085
H31   H     H_    0.780162 0.149916 0.689139 0.177052
H32   H     H_    0.873956 0.151255 0.691848 0.176324
H33   H     H_    0.511837 0.665147 0.279819 0.137128
H34   H     H_    0.893526 0.674214 0.192681 0.166244
H35   H     H_    0.535286 0.607386 0.323186 0.159890
H36   H     H_    0.611666 0.744603 0.373455 0.217217
H37   H     H_    0.505166 0.882162 0.561960 0.181929
H38   H     H_    0.474078 0.948910 0.534886 0.164929
H39   H     H_    0.589780 0.005300 0.583763 0.186691
H40   H     H_    0.364934 0.895225 0.371115 0.201125
H41   H     H_    0.416435 0.876097 0.293691 0.180208
H42   H     H_    0.871144 0.750828 0.891605 0.209215
H43   H     H_    0.871856 0.705722 0.952047 0.179309
H44   H     H_    0.041380 0.318410 0.138844 0.168872
H45   H     H_    0.739670 0.347116 0.148430 0.145118
H46   H     H_    0.088169 0.253643 0.110999 0.182204
H47   H     H_    0.181365 0.471129 0.428595 0.181063
H48   H     H_    0.106329 0.338319 0.399188 0.147184
H49   H     H_    0.210756 0.382659 0.379793 0.164063
H50   H     H_    0.985451 0.300577 0.688577 0.120852
H51   H     H_    0.912197 0.292601 0.612394 0.177207
H52   H     H_    0.899653 0.319100 0.718257 0.175301
H53   H     H_    0.358712 0.580165 0.935443 0.169863
H54   H     H_    0.298995 0.450137 0.880847 0.198724
H55   H     H_    0.527652 0.331804 0.730153 0.196370
H56   H     H_    0.848398 0.197942 0.985846 0.161033
H57   H     H_    0.566514 0.441216 0.845857 0.160114
H58   H     H_    0.520997 0.314741 0.818903 0.184753
H59   H     H_    0.592990 0.221058 0.663439 0.191611
H60   H     H_    0.681936 0.238555 0.614531 0.181529
H61   H     H_    0.566380 0.149116 0.544667 0.203788
H62   H     H_    0.477350 0.145227 0.280180 0.152396
H63   H     H_    0.457062 0.029294 0.265625 0.151413
H64   H     H_    0.544013 0.155825 0.361980 0.203973
H65   H     H_    0.217847 0.245998 0.282778 0.175152
H66   H     H_    0.175324 0.226077 0.359354 0.185249
H67   H     H_    0.213901 0.343397 0.226998 0.130648
H68   H     H_    0.073951 0.145348 0.180018 0.169318
H69   H     H_    0.032776 0.133672 0.259628 0.175211
H70   H     H_    0.270034 0.698931 0.235022 0.186505
H71   H     H_    0.376441 0.502837 0.779593 0.149349
N1    N     N_3   0.631640 0.327657 0.242794 -0.456205
N2    N     N_3   0.093247 0.315976 0.116571 -0.423422
N3    N     N_3   0.294250 0.510881 0.897397 -0.450373
N4    N     N_3   0.212470 0.213093 0.317392 -0.462324
N5    N     N_3   0.035239 0.092963 0.195705 -0.468668
N6    N     N_3   0.738893 0.727480 0.441550 -0.430883
N7    N     N_3   0.919064 0.852535 0.282341 -0.449182
N8    N     N_3   0.698792 0.887102 0.566177 -0.423941
N9    N     N_3   0.649745 0.787443 0.800601 -0.444406
N10   N     N_3   0.814440 0.128443 0.084232 -0.467753
N11   N     N_3   0.803733 0.103743 0.670219 -0.474837
N12   N     N_3   0.415079 0.884544 0.354483 -0.408981
N13   N     N_3   0.882184 0.701155 0.894172 -0.438615
O1    O     O_3   0.500000 0.500000 0.500000 -0.505511
O2    O     O_R   0.945270 0.268330 0.884560 -0.635187
O3    O     O_R   0.117250 0.560610 0.177960 -0.656560
O4    O     O_R   0.676930 0.731590 0.616180 -0.659140
O5    O     O_R   0.821970 0.439270 0.882700 -0.617712
O6    O     O_R   0.117250 0.439170 0.056520 -0.615614
O7    O     O_R   0.943420 0.560710 0.882700 -0.609293
O8    O     O_R   0.115410 0.731560 0.054670 -0.648609
O9    O     O_R   0.823040 0.268350 0.883790 -0.642218
O10   O     O_R   0.945270 0.560650 0.176870 -0.637661
O11   O     O_R   0.116170 0.439210 0.884560 -0.637475
O12   O     O_R   0.384570 0.439270 0.616180 -0.659129
O13   O     O_R   0.384570 0.268390 0.445310 -0.600740
O14   O     O_R   0.383800 0.560730 0.615410 -0.607425
O15   O     O_R   0.554710 0.439290 0.323100 -0.627422
O16   O     O_R   0.382720 0.560770 0.443450 -0.587873
O17   O     O_R   0.678010 0.560670 0.617270 -0.614170
O18   O     O_R   0.382720 0.439330 0.322010 -0.661756
O19   O     O_R   0.556550 0.439230 0.617270 -0.625290
O20   O     O_3   0.829680 0.407850 0.653986 -0.598335
O21   O     O_3   0.840574 0.879680 0.417897 -0.611099
O22   O     O_3   0.850648 0.609129 0.683781 -0.593033
O23   O     O_R   0.676930 0.560710 0.445310 -0.655131
O24   O     O_3   0.703443 0.910356 0.983174 -0.598536
O25   O     O_3   0.496601 0.697967 0.407074 -0.597188
O26   O     O_3   0.531877 0.882656 0.451188 -0.583864
O27   O     O_3   0.223093 0.442304 0.511582 -0.606164
O28   O     O_3   0.009348 0.441060 0.726254 -0.575000
O29   O     O_3   0.648687 0.390255 0.815368 -0.585677
O30   O     O_3   0.615280 0.301722 0.606475 -0.593722
O31   O     O_3   0.415914 0.107171 0.363928 -0.580718
O32   O     O_R   0.554710 0.731610 0.615410 -0.629914
O33   O     O_R   0.383800 0.268410 0.323100 -0.644081
O34   O     O_3   0.999970 0.499940 0.999970 -0.501812
O35   O     O_R   0.823040 0.439240 0.054670 -0.631670
O36   O     O_R   0.115410 0.560680 0.883790 -0.600748
O37   O     O_R   0.116170 0.731530 0.176870 -0.640738
Zn1   Zn    Zn3+2 0.457160 0.413230 0.543930 1.010355
Zn2   Zn    Zn3+2 0.456070 0.586770 0.542830 1.019726
Zn3   Zn    Zn3+2 0.456070 0.413260 0.369320 0.983875
Zn4   Zn    Zn3+2 0.630700 0.586740 0.543930 0.976534
Zn5   Zn    Zn3+2 0.042810 0.586720 0.956040 0.999841
Zn6   Zn    Zn3+2 0.043900 0.586680 0.130650 0.952618
Zn7   Zn    Zn3+2 0.043900 0.413170 0.957150 0.978985
Zn8   Zn    Zn3+2 0.869280 0.413210 0.956040 0.986180

loop_
_geom_bond_atom_site_label_1
_geom_bond_atom_site_label_2
_ccdc_geom_bond_type
C45   O30   S    
C66   C68   S    
C71   O22   S    
H69   N5    S    
C27   C29   A    
C11   O21   S    
C76   H51   S    
C41   C42   A    
C38   H70   S    
C35   C36   A    
C5    C67   A    
C26   H56   S    
C81   H1    S    
H29   N10   S    
H41   N12   S    
C23   C56   S    
C39   C41   A    
C79   H60   S    
C53   C54   A    
C27   C33   A    
C74   H38   S    
C57   N3    S    
C12   C23   S    
O23   Zn4   S    
C26   C27   A    
C29   C30   A    
C73   H35   S    
C9    C61   S    
H16   N7    S    
C49   H3    S    
C36   C37   A    
C22   C29   A    
C52   O17   A    
C21   C59   S    
C59   O10   A    
C28   O23   A    
C30   C31   A    
C12   C64   S    
C76   H50   S    
C79   H61   S    
C10   C17   A    
C58   C60   S    
C14   H34   S    
C62   O9    A    
C32   N11   S    
H54   N3    S    
O11   Zn7   S    
O32   Zn2   S    
H11   N6    S    
C75   H47   S    
H25   N9    S    
C47   O27   S    
H31   N11   S    
C1    C30   S    
H10   N6    S    
C43   H67   S    
C72   H28   S    
C63   O6    A    
C80   H64   S    
C31   C32   A    
C45   C56   S    
C8    C9    A    
C80   H63   S    
O3    Zn6   S    
C24   O24   S    
C77   H55   S    
C13   C14   A    
C10   N6    S    
C31   N8    S    
C69   H6    S    
C75   H49   S    
C47   C53   A    
C40   O18   A    
C65   C68   S    
C60   O11   A    
C40   C42   S    
C62   O2    A    
C71   H20   S    
O19   Zn1   S    
O37   Zn6   S    
O13   Zn1   S    
O33   Zn3   S    
C67   C78   A    
O10   Zn6   S    
C80   O31   S    
H46   N2    S    
O34   Zn5   S    
C44   C46   A    
C50   C51   A    
C57   C58   A    
C2    H12   S    
C38   C39   A    
C74   H37   S    
C73   H36   S    
C65   O7    A    
C64   O22   S    
C72   H27   S    
C7    C8    A    
C18   C28   S    
C24   C25   A    
O2    Zn7   S    
C4    C6    S    
C76   O28   S    
C34   C68   S    
C12   N13   S    
C34   C45   S    
C22   N9    S    
C33   C62   S    
C25   C26   A    
H40   N12   S    
O35   Zn8   S    
C73   H33   S    
H43   N13   S    
C52   O19   A    
O17   Zn4   S    
C64   C66   S    
C70   H15   S    
C43   C44   A    
C20   H45   S    
C37   C38   A    
C3    C9    A    
C61   O37   A    
H32   N11   S    
C28   O15   A    
H19   N8    S    
C78   N5    S    
H8    N1    S    
C47   C48   A    
O5    Zn8   S    
C72   H26   S    
C59   O35   A    
C55   H71   S    
C80   H62   S    
O12   Zn1   S    
C17   C18   A    
O36   Zn5   S    
C61   O8    A    
O8    Zn5   S    
C51   C58   A    
O1    Zn2   S    
C77   H57   S    
H9    N1    S    
H66   N4    S    
C8    H23   S    
C69   H7    S    
C39   C46   A    
H42   N13   S    
C48   C49   A    
O1    Zn3   S    
C71   H21   S    
C79   O30   S    
C37   N12   S    
H30   N10   S    
O18   Zn3   S    
H24   N9    S    
H17   N7    S    
O16   Zn2   S    
C42   C43   A    
O15   Zn3   S    
C69   O20   S    
C72   O24   S    
O4    Zn4   S    
H44   N2    S    
C40   O16   A    
C15   C17   A    
H53   N3    S    
C71   H22   S    
C54   C55   A    
C63   O3    A    
C23   C34   S    
C79   H59   S    
C70   H13   S    
O9    Zn8   S    
O7    Zn5   S    
C1    O32   A    
C73   O25   S    
C4    O13   A    
C4    O33   A    
C3    C5    A    
C76   H52   S    
C16   O14   A    
C6    C7    A    
C35   O25   S    
C74   H39   S    
C65   O5    A    
C48   H2    S    
C46   C63   S    
O34   Zn8   S    
C44   N2    S    
C32   C33   A    
C12   C68   S    
C19   C20   A    
C55   C57   A    
C70   H14   S    
C77   O29   S    
C11   C13   A    
C78   C81   A    
C34   O29   S    
C56   C64   S    
C5    C6    A    
O6    Zn7   S    
C1    O4    A    
O34   Zn6   S    
C50   O28   S    
C75   O27   S    
C22   C24   A    
O1    Zn1   S    
C16   O12   A    
C35   C41   A    
C16   C54   S    
O14   Zn2   S    
C25   N10   S    
C10   C11   A    
C70   O21   S    
C51   C53   A    
C74   O26   S    
C19   N1    S    
C52   C56   S    
C60   O36   A    
C15   C21   A    
H65   N4    S    
C20   C21   A    
C49   C50   A    
C23   H4    S    
C66   O20   S    
C45   C66   S    
C18   C19   A    
C14   C15   A    
C67   N4    S    
C2    C81   A    
C2    C3    A    
O1    Zn4   S    
O34   Zn7   S    
C7    O31   S    
H18   N8    S    
H68   N5    S    
C13   N7    S    
C77   H58   S    
C69   H5    S    
C75   H48   S    
C36   O26   S    
