data_mof_unit_15260.cif
_audit_creation_date              2012-12-10T16:59:19-0500
_audit_creation_method            fapswitch 2.2
_symmetry_space_group_name_H-M    P1
_symmetry_Int_Tables_number       1
_space_group_crystal_system       triclinic
_cell_length_a                    7.744134
_cell_length_b                    8.560217
_cell_length_c                    27.682409
_cell_angle_alpha                 90.817171
_cell_angle_beta                  86.284792
_cell_angle_gamma                 93.673887
_cell_volume                      1827.39342321

loop_
_atom_site_label
_atom_site_type_symbol
_atom_type_description
_atom_site_fract_x
_atom_site_fract_y
_atom_site_fract_z
_atom_type_partial_charge
C1    C     C_R   0.545873 0.794811 0.498730 0.975399
C2    C     C_R   0.500239 0.647830 0.127561 -0.021219
C3    C     C_R   0.510977 0.497260 0.646487 -0.038718
C4    C     C_R   0.489023 0.502740 0.353513 -0.038720
C5    C     C_R   0.529354 0.643800 0.025377 0.052624
C6    C     C_R   0.470645 0.356202 0.974623 0.052624
C7    C     C_R   0.440765 0.360143 0.025832 0.000041
C8    C     C_R   0.559233 0.639859 0.974168 0.000041
C9    C     C_R   0.480951 0.502900 0.050860 0.066645
C10   C     C_R   0.519048 0.497102 0.949140 0.066645
C11   C     C_R   0.533940 0.785761 0.052114 -0.188207
C12   C     C_R   0.454127 0.205189 0.501270 0.975399
C13   C     C_R   0.466059 0.214241 0.947886 -0.188207
C14   C     C_R   0.526380 0.787520 0.102211 -0.134351
C15   C     C_R   0.473619 0.212482 0.897790 -0.134351
C16   C     C_R   0.503084 0.499577 0.593938 0.873727
C17   C     C_R   0.496916 0.500423 0.406062 0.873728
C18   C     C_R   0.634829 0.769701 0.946395 -0.029994
C19   C     C_R   0.365169 0.230301 0.053606 -0.029994
C20   C     C_2   0.570102 0.958287 0.498001 -0.371460
C21   C     C_2   0.429898 0.041712 0.501999 -0.371461
C22   C     C_R   0.576838 0.627904 0.821252 0.518269
C23   C     C_R   0.531667 0.493743 0.897841 -0.051079
C24   C     C_R   0.423162 0.372099 0.178748 0.518270
C25   C     C_R   0.501007 0.353428 0.821930 0.510231
C26   C     C_R   0.498994 0.646574 0.178070 0.510232
C27   C     C_R   0.366213 0.491734 0.726553 -0.099959
C28   C     C_R   0.633787 0.508230 0.273447 -0.099964
C29   C     C_R   0.357843 0.494995 0.676607 -0.204385
C30   C     C_R   0.642155 0.504969 0.323393 -0.204380
C31   C     C_R   0.672291 0.496332 0.666972 -0.209367
C32   C     C_R   0.327711 0.503707 0.333028 -0.209366
C33   C     C_R   0.680160 0.493646 0.716913 -0.092225
C34   C     C_R   0.468332 0.506260 0.102159 -0.051078
C35   C     C_R   0.319842 0.506393 0.283087 -0.092230
C36   C     C_R   0.527229 0.491311 0.746583 0.320333
C37   C     C_R   0.472772 0.508690 0.253417 0.320343
C38   C     C_1   0.738492 0.898813 0.966112 0.144073
C39   C     C_1   0.261506 0.101190 0.033888 0.144074
C40   C     C_R   0.577872 0.631394 0.871759 -0.038891
C41   C     C_R   0.422127 0.368608 0.128241 -0.038892
C42   C     C_R   0.632546 0.767002 0.896194 -0.181187
C43   C     C_R   0.367452 0.233001 0.103806 -0.181187
C44   C     C_R   0.499761 0.352172 0.872439 -0.021218
H1    H     H_    0.792254 0.498270 0.644517 0.159579
H2    H     H_    0.232016 0.495274 0.661664 0.160893
H3    H     H_    0.751951 0.509641 0.250234 0.137122
H4    H     H_    0.248047 0.490292 0.749765 0.137125
H5    H     H_    0.538010 0.899300 0.120971 0.195485
H6    H     H_    0.461990 0.100702 0.879029 0.195485
H7    H     H_    0.536540 0.898309 0.035315 0.153946
H8    H     H_    0.463458 0.101693 0.964685 0.153946
H9    H     H_    0.702483 0.009430 0.494190 0.180915
H10   H     H_    0.297517 0.990570 0.505810 0.180915
H11   H     H_    0.207748 0.501799 0.355483 0.159582
H12   H     H_    0.014013 0.383330 0.463443 0.191482
H13   H     H_    0.985987 0.616670 0.536557 0.191481
H14   H     H_    0.804642 0.493544 0.732632 0.134887
H15   H     H_    0.195361 0.506525 0.267369 0.134882
H16   H     H_    0.683279 0.869401 0.875940 0.195333
H17   H     H_    0.316720 0.130601 0.124060 0.195333
H18   H     H_    0.767982 0.504658 0.338335 0.160893
N1    N     N_R   0.535280 0.490794 0.797746 -0.362389
N2    N     N_R   0.464720 0.509208 0.202254 -0.362390
N3    N     N_2   0.950320 0.457960 0.486880 -0.175854
N4    N     N_2   0.049680 0.542040 0.513120 -0.175853
N5    N     N_1   0.821441 0.002944 0.981478 -0.171303
N6    N     N_1   0.178557 0.997059 0.018522 -0.171303
O1    O     O_R   0.389250 0.738570 0.503220 -0.610919
O2    O     O_2   0.384346 0.239759 0.204232 -0.531618
O3    O     O_2   0.532256 0.780877 0.202891 -0.528026
O4    O     O_2   0.467746 0.219125 0.797110 -0.528027
O5    O     O_R   0.610750 0.261430 0.496780 -0.610918
O6    O     O_R   0.678390 0.711630 0.494810 -0.629275
O7    O     O_R   0.321610 0.288370 0.505190 -0.629275
O8    O     O_R   0.355440 0.513440 0.575450 -0.620646
O9    O     O_R   0.644560 0.486560 0.424550 -0.620647
O10   O     O_R   0.644590 0.486500 0.567040 -0.630337
O11   O     O_R   0.355410 0.513500 0.432960 -0.630339
O12   O     O_2   0.615651 0.760243 0.795768 -0.531619
Zn1   Zn    Zn3+2 0.306940 0.517990 0.505620 0.950425
Zn2   Zn    Zn3+2 0.693060 0.482010 0.494380 0.950425

loop_
_geom_bond_atom_site_label_1
_geom_bond_atom_site_label_2
_ccdc_geom_bond_type
C27   H4    S    
C28   H3    S    
C33   H14   S    
C24   C41   A    
C27   C29   A    
C39   N6    T    
H13   N4    S    
C24   O2    S    
C1    O6    A    
O9    Zn2   S    
C35   C37   A    
C15   C44   A    
C5    C11   A    
C18   C42   A    
C21   H10   S    
C11   C14   A    
C14   H5    S    
H12   N3    S    
C17   O11   A    
C33   C36   A    
C35   H15   S    
C25   N1    A    
C15   H6    S    
C3    C29   A    
C26   N2    A    
C22   N1    A    
C31   C33   A    
C36   N1    S    
C32   H11   S    
C2    C34   A    
C40   C42   A    
C24   N2    A    
C12   O5    A    
C26   O3    S    
C41   C43   A    
C34   C41   A    
O6    Zn2   S    
C25   C44   A    
C19   C43   A    
C32   C35   A    
C11   H7    S    
C42   H16   S    
O11   Zn1   S    
O7    Zn1   S    
C12   C21   S    
C8    C18   A    
C23   C44   A    
C5    C9    A    
C13   H8    S    
O10   Zn2   S    
C22   C40   A    
C17   O9    A    
C2    C26   A    
C25   O4    S    
C38   N5    T    
C3    C31   A    
C4    C32   A    
C19   C39   S    
C4    C17   S    
C7    C19   A    
C13   C15   A    
C9    C34   A    
C10   C23   A    
O5    Zn2   S    
C37   N2    S    
C43   H17   S    
C7    C9    A    
C1    C20   S    
C16   O8    A    
C20   H9    S    
O8    Zn1   S    
C6    C10   A    
C5    C8    A    
C6    C7    A    
C27   C36   A    
C29   H2    S    
C30   H18   S    
C18   C38   S    
C22   O12   S    
N4    Zn1   S    
N3    Zn2   S    
C28   C37   A    
C28   C30   A    
C16   O10   A    
C2    C14   A    
C1    O1    A    
O1    Zn1   S    
C20   C21   D    
C8    C10   A    
N3    N4    D    
C31   H1    S    
C12   O7    A    
C4    C30   A    
C3    C16   S    
C23   C40   A    
C6    C13   A    
