data_mof_unit_45377.cif
_audit_creation_date              2012-12-10T19:01:53-0500
_audit_creation_method            fapswitch 2.2
_symmetry_space_group_name_H-M    P1
_symmetry_Int_Tables_number       1
_space_group_crystal_system       triclinic
_cell_length_a                    11.739708
_cell_length_b                    10.848065
_cell_length_c                    9.652035
_cell_angle_alpha                 88.750992
_cell_angle_beta                  89.915956
_cell_angle_gamma                 90.279656
_cell_volume                      1228.90851151

loop_
_atom_site_label
_atom_site_type_symbol
_atom_type_description
_atom_site_fract_x
_atom_site_fract_y
_atom_site_fract_z
_atom_type_partial_charge
C1    C     C_R   0.502915 0.263332 0.501425 0.812508
C2    C     C_R   0.513203 0.131242 0.505464 -0.055404
C3    C     C_R   0.558994 0.069583 0.392928 -0.229537
C4    C     C_R   0.555156 0.941627 0.391261 -0.060835
C5    C     C_R   0.505810 0.872730 0.500776 -0.039112
C6    C     C_R   0.472067 0.935969 0.618422 -0.117102
C7    C     C_3   0.361243 0.932509 0.694756 0.278026
C8    C     C_3   0.366422 0.072760 0.697936 0.283843
C9    C     C_R   0.576946 0.569534 0.069496 0.018346
C10   C     C_R   0.429062 0.423594 0.076867 0.515972
C11   C     C_R   0.427344 0.427239 0.927377 -0.168496
C12   C     C_R   0.284247 0.499515 0.500056 0.825433
C13   C     C_R   0.581896 0.562158 0.923561 0.146382
C14   C     C_3   0.609043 0.693687 0.900478 0.166462
C15   C     C_3   0.592428 0.708506 0.057022 0.554262
C16   C     C_R   0.499650 0.737984 0.499283 0.842622
C17   C     C_R   0.715769 0.499839 0.499989 0.833571
C18   C     C_1   0.162432 0.499760 0.500050 -0.179356
C19   C     C_1   0.059967 0.500348 0.500052 -0.003399
C20   C     C_1   0.940074 0.500557 0.500034 0.018618
C21   C     C_1   0.837612 0.500320 0.499970 -0.124376
C22   C     C_R   0.475920 0.063188 0.620735 -0.004821
Cu1   Cu    Cu3+1 0.499990 0.499980 0.640670 0.967949
Cu2   Cu    Cu3+1 0.500010 0.500020 0.359330 1.067633
H1    H     H_    0.592796 0.119893 0.303668 0.180055
H2    H     H_    0.543494 0.740434 0.836131 0.141082
H3    H     H_    0.585262 0.898935 0.300417 0.264467
H4    H     H_    0.370383 0.890359 0.799082 0.156511
H5    H     H_    0.380018 0.112027 0.802503 0.024639
H6    H     H_    0.365104 0.374055 0.871770 0.138026
N1    N     N_R   0.500710 0.500930 0.147930 -0.224918
N2    N     N_R   0.500710 0.500890 0.852020 -0.211169
O1    O     O_R   0.500000 0.319640 0.618810 -0.585917
O2    O     O_R   0.500010 0.319680 0.381230 -0.570529
O3    O     O_R   0.337190 0.499990 0.618790 -0.601703
O4    O     O_R   0.337200 0.500030 0.381210 -0.509308
O5    O     O_R   0.499990 0.680320 0.618770 -0.629771
O6    O     O_R   0.500000 0.680360 0.381190 -0.491202
O7    O     O_R   0.662800 0.499970 0.618790 -0.561169
O8    O     O_R   0.662810 0.500010 0.381210 -0.531845
S1    S     S_3+6 0.721028 0.763206 0.141573 0.021427
O9    O     O_2   0.823280 0.695953 0.088175 -0.246270
O10   O     O_2   0.735934 0.898771 0.110725 -0.315794
O11   O     O_3   0.718116 0.738185 0.313671 -0.583539
H7    H     H_    0.788412 0.777495 0.348773 0.355550
S2    S     S_3+6 0.461937 0.799782 0.071803 -0.070515
O12   O     O_2   0.409582 0.813622 0.211587 -0.292018
O13   O     O_2   0.485834 0.926888 0.013502 -0.361658
O14   O     O_3   0.361631 0.732101 0.974568 -0.628042
H8    H     H_    0.326189 0.668123 0.035591 0.367013
O15   O     O_3   0.271146 0.889382 0.610846 -0.530485
C23   C     C_3   0.215728 0.787564 0.675332 0.080018
H9    H     H_    0.277085 0.717163 0.714354 0.190199
H10   H     H_    0.162495 0.742815 0.595879 0.169760
C24   C     C_3   0.137010 0.828387 0.791391 -0.813346
H11   H     H_    0.080850 0.902763 0.751574 0.247621
H12   H     H_    0.084743 0.748839 0.828832 0.241555
H13   H     H_    0.186008 0.864053 0.880194 0.270911
O16   O     O_3   0.281612 0.129854 0.615098 -0.541277
C25   C     C_3   0.190781 0.168944 0.699099 0.097419
H14   H     H_    0.210647 0.261927 0.739044 0.137281
H15   H     H_    0.173490 0.104761 0.788611 0.133568
C26   C     C_3   0.083189 0.176493 0.611817 -0.742196
H16   H     H_    0.058502 0.083048 0.577487 0.255170
H17   H     H_    0.012530 0.215099 0.673701 0.197467
H18   H     H_    0.098067 0.236430 0.518854 0.250670
O17   O     O_3   0.349889 0.354010 0.151829 -0.552249
C27   C     C_3   0.352401 0.229178 0.112750 0.027799
H19   H     H_    0.441224 0.193302 0.110538 0.171485
H20   H     H_    0.311806 0.217508 0.010032 0.112507
C28   C     C_3   0.284131 0.151687 0.217059 -0.622396
H21   H     H_    0.287717 0.053012 0.189113 0.248172
H22   H     H_    0.319331 0.161847 0.322703 0.270814
H23   H     H_    0.193828 0.181738 0.217051 0.226553
O18   O     O_3   0.721622 0.708550 0.850491 -0.520235
C29   C     C_3   0.729960 0.819123 0.771034 0.146050
H24   H     H_    0.687965 0.897760 0.823063 0.172458
H25   H     H_    0.691342 0.805954 0.667604 0.129051
C30   C     C_3   0.854127 0.852110 0.749814 -0.755789
H26   H     H_    0.898126 0.776361 0.695963 0.245453
H27   H     H_    0.861563 0.938077 0.685739 0.187218
H28   H     H_    0.894546 0.867019 0.852061 0.286176

loop_
_geom_bond_atom_site_label_1
_geom_bond_atom_site_label_2
_ccdc_geom_bond_type
C24   H11   S    
C26   H17   S    
S1    O9    D    
C13   N2    A    
C19   C20   S    
C29   C30   S    
C1    O1    A    
C7    C8    S    
C10   O17   S    
C23   H9    S    
S2    O14   S    
Cu2   O4    S    
C25   C26   S    
C8    H5    S    
C29   H25   S    
C1    C2    S    
C8    O16   S    
C5    C6    A    
C6    C22   A    
C25   H15   S    
C18   C19   T    
C17   O7    A    
C9    C13   A    
C5    C16   S    
C10   N1    A    
C11   H6    S    
C27   H19   S    
Cu1   O1    S    
C2    C22   A    
Cu2   O6    S    
Cu1   Cu2   S    
C12   O4    A    
C23   C24   S    
C16   O5    A    
C26   H18   S    
O16   C25   S    
C13   C14   S    
S1    O10   D    
O17   C27   S    
C23   H10   S    
C1    O2    A    
S2    O13   D    
O15   C23   S    
C3    H1    S    
C29   H24   S    
C15   S1    S    
C30   H27   S    
Cu1   O5    S    
Cu2   O2    S    
C7    H4    S    
C26   H16   S    
C25   H14   S    
C17   O8    A    
O18   C29   S    
C30   H28   S    
C8    C22   S    
C14   H2    S    
C12   O3    A    
C11   N2    A    
Cu1   O3    S    
C24   H12   S    
S1    O11   S    
C3    C4    A    
C4    H3    S    
O11   H7    S    
C28   H22   S    
S2    O12   D    
C4    C5    A    
C28   H23   S    
C6    C7    S    
C14   O18   S    
C2    C3    A    
C9    C15   S    
Cu2   N1    S    
C7    O15   S    
C28   H21   S    
Cu1   N2    S    
C27   C28   S    
Cu1   O7    S    
Cu2   O8    S    
C17   C21   S    
C10   C11   A    
C9    N1    A    
C30   H26   S    
C20   C21   T    
C27   H20   S    
O14   H8    S    
C24   H13   S    
C12   C18   S    
C14   C15   S    
C15   S2    S    
C16   O6    A    
