data_mof_unit_16305.cif
_audit_creation_date              2012-12-10T18:06:50-0500
_audit_creation_method            fapswitch 2.2
_symmetry_space_group_name_H-M    P1
_symmetry_Int_Tables_number       1
_space_group_crystal_system       triclinic
_cell_length_a                    12.61587
_cell_length_b                    13.126362
_cell_length_c                    15.437642
_cell_angle_alpha                 83.28291
_cell_angle_beta                  98.787893
_cell_angle_gamma                 96.901473
_cell_volume                      2495.46253472

loop_
_atom_site_label
_atom_site_type_symbol
_atom_type_description
_atom_site_fract_x
_atom_site_fract_y
_atom_site_fract_z
_atom_type_partial_charge
Br1   Br    Br    0.847247 0.261048 0.286152 -0.546654
C1    C     C_R   0.444511 0.308096 0.512776 0.849980
C2    C     C_R   0.636294 0.389082 0.938014 0.100184
C3    C     C_R   0.536569 0.427614 0.902531 0.089673
C4    C     C_R   0.434518 0.510099 0.336201 0.875567
C5    C     C_R   0.713531 0.382539 0.881729 0.003702
C6    C     C_R   0.691882 0.416415 0.792073 -0.240563
C7    C     C_R   0.521249 0.467390 0.814436 -0.242131
C8    C     C_R   0.724113 0.921189 0.576410 -0.177632
C9    C     C_R   0.596166 0.798681 0.499776 -0.084956
C10   C     C_R   0.300424 0.163313 0.501490 -0.177749
C11   C     C_R   0.268330 0.058757 0.497752 -0.134461
C12   C     C_R   0.417658 0.450401 0.102841 0.080216
C13   C     C_R   0.345833 0.989732 0.507633 -0.165784
C14   C     C_R   0.456915 0.024756 0.523765 0.082133
C15   C     C_R   0.486764 0.126419 0.545028 0.087480
C16   C     C_R   0.557116 0.691360 0.491439 0.876896
C17   C     C_R   0.539328 0.960951 0.523256 0.036895
C18   C     C_R   0.644646 0.989065 0.566914 0.163026
C19   C     C_R   0.668896 0.084262 0.600856 -0.222702
C20   C     C_R   0.591696 0.153430 0.588113 -0.187368
C21   C     C_R   0.521899 0.871369 0.479202 -0.062888
C22   C     C_R   0.698453 0.824396 0.546158 -0.204837
C23   C     C_R   0.311900 0.474472 0.066943 0.112235
C24   C     C_R   0.410029 0.197943 0.523022 -0.115125
C25   C     C_R   0.137301 0.640898 0.622632 -0.334016
C26   C     C_R   0.756795 0.380752 0.395206 -0.039008
C27   C     C_R   0.851737 0.355489 0.372220 0.240637
C28   C     C_R   0.563882 0.484879 0.664147 0.863201
C29   C     C_R   0.949846 0.400291 0.412249 -0.241468
C30   C     C_R   0.952561 0.470974 0.475377 -0.030373
C31   C     C_R   0.853453 0.494122 0.495970 0.220443
C32   C     C_R   0.048826 0.520022 0.518302 0.015869
C33   C     C_R   0.043608 0.590971 0.580175 0.185090
C34   C     C_R   0.486128 0.418736 0.048877 0.061851
C35   C     C_R   0.944892 0.611963 0.598987 -0.274022
C36   C     C_R   0.851064 0.564003 0.557213 -0.197478
C37   C     C_R   0.150775 0.501995 0.502397 -0.073980
C38   C     C_R   0.235704 0.620434 0.603699 0.128348
C39   C     C_R   0.390867 0.500896 0.243800 -0.062067
C40   C     C_R   0.595609 0.459153 0.758555 -0.076370
C41   C     C_R   0.245316 0.505992 0.122199 -0.172017
C42   C     C_R   0.284494 0.518603 0.210087 -0.178486
C43   C     C_R   0.455936 0.467030 0.190229 -0.239935
C44   C     C_1   0.168908 0.488003 0.936243 0.166593
C45   C     C_R   0.456951 0.431921 0.956977 0.063603
C46   C     C_1   0.814863 0.340858 0.913695 0.162005
C47   C     C_1   0.436136 0.857215 0.405851 0.168633
C48   C     C_1   0.332762 0.672647 0.646874 0.215738
C49   C     C_R   0.349551 0.449733 0.922341 -0.266782
C50   C     C_R   0.276883 0.468789 0.976524 -0.018189
C51   C     C_R   0.583673 0.376376 0.083510 -0.201521
C52   C     C_R   0.656273 0.359701 0.028691 -0.193666
H1    H     H_    0.756815 0.768605 0.561906 0.150973
H2    H     H_    0.133792 0.695300 0.669693 0.152761
H3    H     H_    0.163190 0.449374 0.457313 0.132353
H4    H     H_    0.679814 0.346697 0.364676 0.164312
H5    H     H_    0.021507 0.378649 0.392329 0.166474
H6    H     H_    0.777581 0.583513 0.573721 0.209079
H7    H     H_    0.749656 0.408720 0.748552 0.168845
H8    H     H_    0.729941 0.327457 0.058453 0.190054
H9    H     H_    0.163608 0.522926 0.097592 0.157661
H10   H     H_    0.232012 0.543206 0.251195 0.166719
H11   H     H_    0.538728 0.457884 0.216768 0.162423
H12   H     H_    0.748412 0.106379 0.635183 0.151720
H13   H     H_    0.319740 0.446667 0.853087 0.154822
H14   H     H_    0.604457 0.352940 0.152869 0.168980
H15   H     H_    0.803979 0.940819 0.611197 0.142106
H16   H     H_    0.239822 0.217083 0.486383 0.161638
H17   H     H_    0.317749 0.908886 0.505230 0.149330
H18   H     H_    0.183594 0.031591 0.483941 0.156777
H19   H     H_    0.613850 0.226704 0.615135 0.168150
H20   H     H_    0.451606 0.507373 0.788390 0.169385
H21   H     H_    0.940074 0.665963 0.645972 0.155484
N1    N     N_R   0.239390 0.551900 0.544730 -0.123177
N2    N     N_R   0.759950 0.448600 0.455730 -0.150367
N3    N     N_1   0.082634 0.503511 0.903834 -0.192902
N4    N     N_1   0.895954 0.307401 0.939271 -0.169490
N5    N     N_1   0.368161 0.845669 0.347275 -0.187715
N6    N     N_1   0.410386 0.715158 0.681889 -0.213276
O1    O     O_R   0.374950 0.371210 0.521360 -0.615180
O2    O     O_R   0.542050 0.338030 0.492790 -0.612533
O3    O     O_R   0.368720 0.526070 0.390200 -0.613688
O4    O     O_R   0.535820 0.492890 0.361630 -0.615461
O5    O     O_R   0.457950 0.661970 0.507210 -0.598346
O6    O     O_R   0.625050 0.628790 0.478640 -0.627589
O7    O     O_R   0.464180 0.507110 0.638370 -0.610733
O8    O     O_R   0.631280 0.473930 0.609800 -0.644749
Zn1   Zn    Zn3+2 0.388420 0.522150 0.519080 0.955618
Zn2   Zn    Zn3+2 0.611580 0.477850 0.480920 0.931770

loop_
_geom_bond_atom_site_label_1
_geom_bond_atom_site_label_2
_ccdc_geom_bond_type
C14   C17   A    
C21   C47   S    
C15   C20   A    
C23   C41   A    
C18   C19   A    
C3    C7    A    
C2    C5    A    
C25   H2    S    
C42   H10   S    
C3    C45   A    
C9    C21   A    
C16   O5    A    
C47   N5    T    
C35   C36   A    
C12   C34   A    
C29   C30   A    
C4    O3    A    
C25   C38   A    
C10   C24   A    
C9    C16   S    
C14   C15   A    
C17   C18   A    
C28   O8    A    
C52   H8    S    
C8    C18   A    
C39   C42   A    
Br1   C27   S    
C30   C32   A    
C38   N1    A    
C41   H9    S    
O1    Zn1   S    
C23   C50   A    
C13   H17   S    
O4    Zn2   S    
C25   C33   A    
C49   C50   A    
C37   N1    A    
O3    Zn1   S    
C5    C46   S    
C20   H19   S    
C16   O6    A    
C19   H12   S    
C7    C40   A    
O6    Zn2   S    
C4    O4    A    
O5    Zn1   S    
C8    C22   A    
C43   H11   S    
C12   C23   A    
C30   C31   A    
C32   C33   A    
C31   C36   A    
C49   H13   S    
C36   H6    S    
C51   H14   S    
C35   H21   S    
C38   C48   S    
C11   H18   S    
O8    Zn2   S    
O7    Zn1   S    
C26   H4    S    
C1    O2    A    
C41   C42   A    
C26   N2    A    
C6    H7    S    
C26   C27   A    
C51   C52   A    
C22   H1    S    
C15   C24   A    
C28   C40   S    
C17   C21   A    
C11   C13   A    
C31   N2    A    
C10   C11   A    
C10   H16   S    
C5    C6    A    
C9    C22   A    
C45   C49   A    
C32   C37   A    
O2    Zn2   S    
C48   N6    T    
C27   C29   A    
C8    H15   S    
C2    C52   A    
C29   H5    S    
C7    H20   S    
C1    C24   S    
C33   C35   A    
C6    C40   A    
C28   O7    A    
N1    Zn1   S    
C39   C43   A    
C37   H3    S    
C19   C20   A    
C4    C39   S    
C34   C51   A    
C44   C50   S    
C13   C14   A    
C1    O1    A    
C44   N3    T    
C46   N4    T    
C34   C45   A    
C12   C43   A    
C2    C3    A    
N2    Zn2   S    
