data_mof_unit_56765.cif
_audit_creation_date              2012-12-10T20:50:10-0500
_audit_creation_method            fapswitch 2.2
_symmetry_space_group_name_H-M    P1
_symmetry_Int_Tables_number       1
_space_group_crystal_system       triclinic
_cell_length_a                    19.218626
_cell_length_b                    8.935851
_cell_length_c                    8.101059
_cell_angle_alpha                 90.00018
_cell_angle_beta                  90.000107
_cell_angle_gamma                 90.0
_cell_volume                      1391.23357184

loop_
_atom_site_label
_atom_site_type_symbol
_atom_type_description
_atom_site_fract_x
_atom_site_fract_y
_atom_site_fract_z
_atom_type_partial_charge
C1    C     C_R   0.500000 0.217966 0.500000 0.941692
C2    C     C_R   0.253639 0.548382 0.360086 -0.132436
C3    C     C_R   0.181125 0.450361 0.641863 0.015248
C4    C     C_R   0.818874 0.450362 0.358136 0.015249
C5    C     C_R   0.818874 0.549640 0.641864 0.015250
C6    C     C_R   0.181126 0.549642 0.358136 0.015248
C7    C     C_R   0.144967 0.500002 0.500000 -0.084211
C8    C     C_R   0.855033 0.500001 0.500000 -0.084214
C9    C     C_R   0.289646 0.500001 0.500000 -0.136828
C10   C     C_R   0.710354 0.500000 0.500000 -0.136828
C11   C     C_R   0.930267 0.500002 0.500000 0.202656
C12   C     C_R   0.500000 0.782034 0.500000 0.941692
C13   C     C_R   0.069733 0.500002 0.499999 0.202652
C14   C     C_2   0.144106 0.399958 0.793542 0.477646
C15   C     C_2   0.855893 0.399963 0.206454 0.477647
C16   C     C_2   0.855894 0.600040 0.793546 0.477646
C17   C     C_2   0.144106 0.600046 0.206457 0.477644
C18   C     C_R   0.365179 0.500000 0.500000 0.879742
C19   C     C_R   0.634821 0.500000 0.500000 0.879743
C20   C     C_1   0.500000 0.065180 0.500000 -0.173811
C21   C     C_1   0.500000 0.934820 0.500000 -0.173811
C22   C     C_R   0.253639 0.451620 0.639913 -0.132436
C23   C     C_R   0.746361 0.451620 0.360086 -0.132437
C24   C     C_R   0.746361 0.548381 0.639914 -0.132437
H1    H     H_    0.282311 0.414283 0.747520 0.200351
H2    H     H_    0.717688 0.414284 0.252479 0.200351
H3    H     H_    0.717688 0.585716 0.747521 0.200351
H4    H     H_    0.282312 0.585719 0.252480 0.200352
H5    H     H_    0.088203 0.412471 0.805078 0.069166
H6    H     H_    0.911796 0.412486 0.194913 0.069167
H7    H     H_    0.911796 0.587518 0.805087 0.069167
H8    H     H_    0.088203 0.587535 0.194922 0.069166
N1    N     N_1   0.500000 0.500000 0.073640 -0.024878
N2    N     N_1   0.500000 0.500000 0.926360 -0.024878
N3    N     N_R   0.034509 0.368825 0.499946 -0.151517
N4    N     N_R   0.965491 0.631179 0.499976 -0.151521
N5    N     N_R   0.965491 0.368825 0.500023 -0.151521
N6    N     N_R   0.034509 0.631179 0.500052 -0.151517
O1    O     O_R   0.500000 0.285350 0.636850 -0.612526
O2    O     O_2   0.824198 0.343585 0.091502 -0.556056
O3    O     O_2   0.824199 0.656417 0.908498 -0.556056
O4    O     O_2   0.175802 0.656415 0.091500 -0.556052
O5    O     O_R   0.500000 0.714650 0.363150 -0.612526
O6    O     O_R   0.500000 0.714650 0.636850 -0.612525
O7    O     O_R   0.500000 0.285350 0.363150 -0.612526
O8    O     O_R   0.398140 0.500000 0.636920 -0.618321
O9    O     O_R   0.601860 0.500000 0.363080 -0.618321
O10   O     O_R   0.601860 0.500000 0.636920 -0.618321
O11   O     O_R   0.398140 0.500000 0.363080 -0.618321
O12   O     O_2   0.175801 0.343587 0.908498 -0.556052
Zn1   Zn    Zn3+2 0.500000 0.500000 0.682780 1.012528
Zn2   Zn    Zn3+2 0.500000 0.500000 0.317220 1.012528

loop_
_geom_bond_atom_site_label_1
_geom_bond_atom_site_label_2
_ccdc_geom_bond_type
C5    C8    A    
O1    Zn1   S    
N1    Zn2   S    
C6    C7    A    
C10   C23   A    
C24   H3    S    
C10   C19   S    
C4    C8    A    
O11   Zn2   S    
C4    C15   S    
N4    N6    A    
N1    N2    T    
N2    Zn1   S    
C12   O6    A    
C2    C6    A    
C16   H7    S    
C5    C24   A    
C1    O7    A    
C13   N6    A    
C14   O12   D    
C3    C14   S    
C8    C11   S    
O8    Zn1   S    
O6    Zn1   S    
C11   N4    A    
N3    N5    A    
C13   N3    A    
C12   O5    A    
C3    C7    A    
O5    Zn2   S    
C19   O9    A    
C15   O2    D    
C1    O1    A    
C14   H5    S    
C12   C21   S    
C18   O8    A    
C9    C18   S    
C7    C13   S    
C20   C21   T    
C15   H6    S    
C11   N5    A    
C9    C22   A    
C1    C20   S    
C23   H2    S    
O9    Zn2   S    
C6    C17   S    
C17   H8    S    
C19   O10   A    
C3    C22   A    
C2    H4    S    
O7    Zn2   S    
C10   C24   A    
C4    C23   A    
C17   O4    D    
C2    C9    A    
C16   O3    D    
O10   Zn1   S    
C18   O11   A    
C5    C16   S    
C22   H1    S    
