data_mof_unit_29701.cif
_audit_creation_date              2012-12-10T17:36:17-0500
_audit_creation_method            fapswitch 2.2
_symmetry_space_group_name_H-M    P1
_symmetry_Int_Tables_number       1
_space_group_crystal_system       triclinic
_cell_length_a                    12.40799
_cell_length_b                    13.140526
_cell_length_c                    15.869252
_cell_angle_alpha                 77.053262
_cell_angle_beta                  101.196453
_cell_angle_gamma                 116.760189
_cell_volume                      2238.61516938

loop_
_atom_site_label
_atom_site_type_symbol
_atom_type_description
_atom_site_fract_x
_atom_site_fract_y
_atom_site_fract_z
_atom_type_partial_charge
C1    C     C_R   0.855165 0.285937 0.508665 0.837415
C2    C     C_3   0.061498 0.434284 0.072097 -0.134137
C3    C     C_3   0.996523 0.510395 0.080946 0.047579
C4    C     C_3   0.072889 0.638196 0.033796 0.489478
C5    C     C_3   0.066434 0.633367 0.933649 -0.073968
C6    C     C_1   0.999995 0.507261 0.174416 0.038999
C7    C     C_1   0.995936 0.499671 0.823838 0.010132
C8    C     C_1   0.997387 0.498010 0.748892 -0.172188
C9    C     C_R   0.274972 0.035124 0.409795 0.502076
C10   C     C_R   0.228354 0.836999 0.477012 -0.116706
C11   C     C_R   0.811639 0.082542 0.576705 0.145252
C12   C     C_R   0.998930 0.498602 0.659488 0.803102
C13   C     C_R   0.726564 0.972101 0.604470 -0.198429
C14   C     C_R   0.604429 0.939376 0.576784 -0.195086
C15   C     C_R   0.563641 0.012702 0.513181 0.051998
C16   C     C_R   0.650731 0.121840 0.478776 -0.038361
C17   C     C_R   0.438807 0.981208 0.483772 -0.047676
C18   C     C_R   0.401070 0.062464 0.427087 -0.079516
C19   C     C_R   0.489103 0.163956 0.384614 0.361363
C20   C     C_R   0.613092 0.186900 0.405253 0.051335
C21   C     C_R   0.350627 0.868932 0.506523 -0.219760
C22   C     C_R   0.190005 0.921000 0.432163 -0.307069
C23   C     C_R   0.145005 0.713870 0.488629 0.824916
C24   C     C_R   0.773557 0.161095 0.517436 -0.069829
C25   C     C_R   0.339149 0.318748 0.631261 -0.287293
C26   C     C_R   0.760338 0.644190 0.380545 0.355428
C27   C     C_R   0.659004 0.665886 0.346387 0.063274
C28   C     C_R   0.552440 0.603070 0.386422 -0.274493
C29   C     C_R   0.547868 0.527471 0.465635 -0.049701
C30   C     C_R   0.651261 0.502960 0.494413 0.157314
C31   C     C_R   0.443598 0.470783 0.514748 -0.117283
C32   C     C_R   0.440825 0.380189 0.584381 0.038636
C33   C     C_R   0.540188 0.352274 0.608021 0.367742
C34   C     C_R   0.000426 0.500674 0.340576 0.839972
C35   C     C_R   0.644638 0.416274 0.565836 -0.265118
C36   C     C_R   0.343315 0.501383 0.501913 0.345202
C37   C     C_R   0.242179 0.348196 0.611867 0.007399
C38   C     C_3   0.047915 0.421390 0.975170 0.219277
C39   C     C_3   0.864373 0.460716 0.936750 -0.493992
C40   C     C_3   0.859191 0.459269 0.035567 0.779228
C41   C     C_1   0.001418 0.503416 0.250803 -0.217235
C42   C     C_3   0.996436 0.505387 0.915107 -0.002649
Cu1   Cu    Cu3+1 0.098280 0.475420 0.519630 0.952425
Cu2   Cu    Cu3+1 0.901720 0.524580 0.480370 0.932795
H1    H     H_    0.159174 0.479185 0.094821 0.213028
H2    H     H_    0.094627 0.897812 0.411781 0.162280
H3    H     H_    0.375581 0.801749 0.542540 0.166346
H4    H     H_    0.544818 0.856527 0.608317 0.135351
H5    H     H_    0.754828 0.912979 0.651917 0.145675
H6    H     H_    0.974575 0.333904 0.968181 0.151013
H7    H     H_    0.163645 0.300170 0.647549 0.158164
H8    H     H_    0.334086 0.247851 0.683133 0.188250
H9    H     H_    0.473832 0.611052 0.350831 0.154058
H10   H     H_    0.718713 0.394115 0.590890 0.214107
H11   H     H_    0.820835 0.514791 0.894382 0.228300
H12   H     H_    0.810075 0.373125 0.918587 0.163825
H13   H     H_    0.160258 0.668284 0.916314 0.144870
N1    N     N_R   0.246300 0.438200 0.549400 -0.173256
N2    N     N_R   0.754300 0.561180 0.451130 -0.208879
O1    O     O_R   0.972520 0.318130 0.524690 -0.558507
O2    O     O_R   0.806530 0.359650 0.491530 -0.607806
O3    O     O_R   0.083030 0.479240 0.637150 -0.570253
O4    O     O_R   0.917040 0.520750 0.603990 -0.590323
O5    O     O_R   0.193470 0.640350 0.508470 -0.555660
O6    O     O_R   0.027480 0.681870 0.475310 -0.557983
O7    O     O_R   0.082960 0.479250 0.396010 -0.573206
O8    O     O_R   0.916970 0.520760 0.362850 -0.572671
N3    N     N_3   0.018500 0.321498 0.129097 -0.567382
H14   H     H_    0.082134 0.287944 0.134615 0.229218
H15   H     H_    0.936969 0.261596 0.102378 0.266344
O9    O     O_3   0.148738 0.414824 0.950117 -0.569713
C43   C     C_3   0.253188 0.520207 0.939174 0.083096
H16   H     H_    0.273134 0.573396 0.990113 0.173032
H17   H     H_    0.243767 0.569629 0.873746 0.150607
C44   C     C_3   0.362124 0.494214 0.944190 -0.783529
H18   H     H_    0.349070 0.444733 0.891843 0.256339
H19   H     H_    0.445740 0.576042 0.936384 0.204289
H20   H     H_    0.373061 0.442592 0.008283 0.243684
N4    N     N_3   0.027618 0.720316 0.046301 -0.625363
H21   H     H_    0.946737 0.711524 0.007744 0.277119
H22   H     H_    0.090298 0.804838 0.027092 0.209458
O10   O     O_3   0.453098 0.223124 0.309345 -0.554674
C45   C     C_3   0.459451 0.326775 0.326427 0.139436
H23   H     H_    0.554571 0.392933 0.331920 0.121157
H24   H     H_    0.420006 0.313770 0.387409 0.149717
C46   C     C_3   0.389157 0.373280 0.250736 -0.751641
H25   H     H_    0.293061 0.309373 0.242656 0.278469
H26   H     H_    0.392006 0.454566 0.262453 0.188699
H27   H     H_    0.429181 0.390355 0.189576 0.233803
O11   O     O_3   0.234400 0.118142 0.368326 -0.557243
C47   C     C_3   0.178577 0.139779 0.427988 0.006055
H28   H     H_    0.242189 0.165860 0.487472 0.134310
H29   H     H_    0.094936 0.062313 0.447164 0.146030
C48   C     C_3   0.141246 0.236980 0.386312 -0.733688
H30   H     H_    0.087301 0.245818 0.430143 0.235269
H31   H     H_    0.222506 0.320033 0.375476 0.228962
H32   H     H_    0.085003 0.217916 0.323308 0.255975
N5    N     N_3   0.935846 0.115841 0.612598 -0.593413
H33   H     H_    0.939747 0.105254 0.680262 0.209320
H34   H     H_    0.966065 0.060042 0.597712 0.207605
N6    N     N_3   0.698647 0.263402 0.344608 -0.573032
H35   H     H_    0.668330 0.233722 0.284674 0.240519
H36   H     H_    0.702356 0.345828 0.335767 0.240247
O12   O     O_3   0.540014 0.269098 0.679263 -0.581239
C49   C     C_3   0.525850 0.169771 0.649675 0.057151
H37   H     H_    0.609834 0.186076 0.623328 0.150356
H38   H     H_    0.446904 0.142247 0.598893 0.129308
C50   C     C_3   0.503273 0.071287 0.725601 -0.775557
H39   H     H_    0.419844 0.052965 0.753619 0.238309
H40   H     H_    0.491257 0.992427 0.702924 0.206059
H41   H     H_    0.581651 0.094570 0.776694 0.247566
N7    N     N_3   0.344049 0.603364 0.446476 -0.549695
H42   H     H_    0.309648 0.587467 0.383037 0.209446
H43   H     H_    0.427781 0.674556 0.453229 0.207877
N8    N     N_3   0.869375 0.705717 0.338779 -0.519612
H44   H     H_    0.849158 0.692255 0.273981 0.210555
H45   H     H_    0.899706 0.793749 0.339360 0.187734
N9    N     N_3   0.664423 0.749129 0.269167 -0.613627
H46   H     H_    0.725557 0.830331 0.284838 0.217707
H47   H     H_    0.581089 0.753526 0.250999 0.225402
O13   O     O_3   0.795352 0.343157 0.076437 -0.617401
C51   C     C_3   0.669429 0.292651 0.047158 0.087831
H48   H     H_    0.642430 0.340719 0.986087 0.170698
H49   H     H_    0.617070 0.287955 0.098374 0.169908
C52   C     C_3   0.632685 0.170153 0.032774 -0.838276
H50   H     H_    0.653312 0.118706 0.094099 0.257163
H51   H     H_    0.533786 0.128795 0.011891 0.216149
H52   H     H_    0.683013 0.171229 0.981622 0.240364
O14   O     O_3   0.796551 0.527628 0.036961 -0.624105
C53   C     C_3   0.770746 0.527736 0.120150 0.061084
H53   H     H_    0.845127 0.601796 0.148685 0.169964
H54   H     H_    0.757950 0.447092 0.166508 0.172172
C54   C     C_3   0.655517 0.544922 0.110015 -0.824558
H55   H     H_    0.578138 0.471969 0.082289 0.235847
H56   H     H_    0.636529 0.548936 0.174472 0.222918
H57   H     H_    0.666214 0.626776 0.065979 0.263082
N10   N     N_3   0.013131 0.707969 0.876445 -0.605256
H58   H     H_    0.072335 0.793904 0.881798 0.211455
H59   H     H_    0.010987 0.702427 0.811450 0.227561
O15   O     O_3   0.198872 0.675972 0.065736 -0.633932
C55   C     C_3   0.238057 0.732083 0.139862 0.112559
H60   H     H_    0.164706 0.715282 0.178575 0.164233
H61   H     H_    0.284145 0.826685 0.118381 0.162243
C56   C     C_3   0.329089 0.693346 0.198497 -0.878883
H62   H     H_    0.402162 0.707375 0.160506 0.260321
H63   H     H_    0.369092 0.743451 0.253373 0.209161
H64   H     H_    0.283476 0.600027 0.224460 0.242306

loop_
_geom_bond_atom_site_label_1
_geom_bond_atom_site_label_2
_ccdc_geom_bond_type
C40   O14   S    
N6    H35   S    
C33   O12   S    
C19   C20   A    
Cu1   Cu2   S    
C3    C6    S    
C34   O7    A    
N7    H43   S    
C7    C8    T    
C10   C22   A    
C40   O13   S    
C49   H38   S    
C26   C27   A    
C30   C35   A    
C11   N5    S    
C28   C29   A    
C38   C42   S    
C36   N1    A    
C43   C44   S    
C37   H7    S    
C46   H26   S    
C9    C22   A    
C47   H29   S    
Cu2   N2    S    
N8    H44   S    
C11   C24   A    
C12   O3    A    
C50   H39   S    
C18   C19   A    
C7    C42   S    
C26   N8    S    
N7    H42   S    
Cu1   N1    S    
C25   C37   A    
N9    H46   S    
C39   H11   S    
C45   H23   S    
N3    H14   S    
N8    H45   S    
C6    C41   T    
C36   N7    S    
C52   H52   S    
C19   O10   S    
C26   N2    A    
C37   N1    A    
C16   C20   A    
C25   C32   A    
N10   H58   S    
Cu2   O4    S    
C13   C14   A    
C35   H10   S    
Cu2   O6    S    
C34   C41   S    
C56   H64   S    
O12   C49   S    
Cu1   O5    S    
C39   C42   S    
C10   C21   A    
C49   C50   S    
O15   C55   S    
C4    N4    S    
C43   H17   S    
C1    O1    A    
C39   C40   S    
N4    H22   S    
C12   O4    A    
C46   H25   S    
C56   H62   S    
C14   H4    S    
C20   N6    S    
C48   H32   S    
C17   C21   A    
C9    O11   S    
C53   H54   S    
C44   H18   S    
C29   C30   A    
C4    O15   S    
N10   H59   S    
C2    C38   S    
C39   H12   S    
C8    C12   S    
C30   N2    A    
C17   C18   A    
C48   H31   S    
C44   H19   S    
O13   C51   S    
Cu1   O1    S    
C54   H57   S    
C13   H5    S    
C56   H63   S    
C23   O5    A    
C45   H24   S    
C3    C40   S    
N5    H33   S    
N5    H34   S    
C54   H55   S    
Cu2   O2    S    
C55   C56   S    
C53   C54   S    
C51   H49   S    
C3    C4    S    
C47   H28   S    
C5    C42   S    
C54   H56   S    
O14   C53   S    
N6    H36   S    
C27   N9    S    
C15   C17   A    
C38   O9    S    
C22   H2    S    
C31   C36   A    
C31   C32   A    
C43   H16   S    
C46   H27   S    
C1    O2    A    
C34   O8    A    
C28   H9    S    
C5    N10   S    
C38   H6    S    
C10   C23   S    
C49   H37   S    
C2    N3    S    
C50   H41   S    
C5    H13   S    
C32   C33   A    
C23   O6    A    
C51   C52   S    
C55   H61   S    
C2    C3    S    
C25   H8    S    
O9    C43   S    
C29   C31   A    
C55   H60   S    
C47   C48   S    
C11   C13   A    
O11   C47   S    
C52   H50   S    
Cu1   O7    S    
C33   C35   A    
C50   H40   S    
C53   H53   S    
C48   H30   S    
C44   H20   S    
N9    H47   S    
C2    H1    S    
N4    H21   S    
C9    C18   A    
C4    C5    S    
C45   C46   S    
C1    C24   S    
C16   C24   A    
O10   C45   S    
C27   C28   A    
C52   H51   S    
N3    H15   S    
C14   C15   A    
Cu2   O8    S    
C51   H48   S    
C15   C16   A    
Cu1   O3    S    
C21   H3    S    
