data_mof_unit_65114.cif
_audit_creation_date              2012-12-10T19:34:39-0500
_audit_creation_method            fapswitch 2.2
_symmetry_space_group_name_H-M    P1
_symmetry_Int_Tables_number       1
_space_group_crystal_system       triclinic
_cell_length_a                    11.00833
_cell_length_b                    15.896166
_cell_length_c                    17.144806
_cell_angle_alpha                 97.218064
_cell_angle_beta                  93.006063
_cell_angle_gamma                 94.995573
_cell_volume                      2958.98772261

loop_
_atom_site_label
_atom_site_type_symbol
_atom_type_description
_atom_site_fract_x
_atom_site_fract_y
_atom_site_fract_z
_atom_type_partial_charge
C1    C     C_R   0.498791 0.489140 0.347723 0.938885
C2    C     C_R   0.048349 0.421568 0.461822 -0.072969
C3    C     C_R   0.125960 0.496222 0.489671 -0.085632
C4    C     C_R   0.074087 0.573705 0.502749 -0.151154
C5    C     C_R   0.948694 0.577810 0.493707 0.184300
C6    C     C_R   0.869160 0.502019 0.479414 -0.110138
C7    C     C_R   0.491237 0.485782 0.260053 -0.245655
C8    C     C_R   0.495723 0.564057 0.229215 -0.270025
C9    C     C_R   0.481134 0.567656 0.148605 0.368391
C10   C     C_R   0.457376 0.491896 0.096034 0.151627
C11   C     C_R   0.445171 0.413745 0.125918 0.275338
C12   C     C_R   0.261249 0.498303 0.496979 0.826855
C13   C     C_R   0.471965 0.409712 0.206206 0.366960
C14   C     C_R   0.511673 0.448405 0.856437 0.115835
C15   C     C_R   0.478957 0.442701 0.775906 0.075345
C16   C     C_R   0.520270 0.527782 0.903880 0.133925
C17   C     C_R   0.485283 0.517476 0.738648 -0.300627
C18   C     C_R   0.492557 0.597657 0.786740 0.295624
C19   C     C_R   0.509905 0.602091 0.868964 0.327217
C20   C     C_R   0.432637 0.748768 0.464042 0.410207
C21   C     C_R   0.425519 0.838013 0.473391 0.022787
C22   C     C_R   0.515869 0.892443 0.521355 0.137460
C23   C     C_R   0.492232 0.510837 0.651497 0.906640
C24   C     C_R   0.599719 0.854089 0.566952 0.234774
C25   C     C_R   0.595356 0.764201 0.562450 0.446956
C26   C     C_R   0.554499 0.161399 0.540254 -0.265832
C27   C     C_R   0.556659 0.250661 0.543175 0.295363
C28   C     C_R   0.490916 0.106941 0.478101 0.237241
C29   C     C_R   0.422108 0.234238 0.430003 0.486582
C30   C     C_R   0.430553 0.145097 0.419852 0.076045
C31   C     C_R   0.737056 0.501089 0.493158 0.853815
C32   C     C_R   0.093658 0.349194 0.422802 0.155426
C33   C     C_R   0.022003 0.271539 0.422534 0.099057
C34   C     C_R   0.895807 0.272043 0.411398 0.327462
C35   C     C_R   0.848235 0.350879 0.416031 0.313145
C36   C     C_R   0.919742 0.424596 0.455088 -0.094922
Cu1   Cu    Cu3+1 0.493970 0.415220 0.496180 1.093383
Cu2   Cu    Cu3+1 0.506030 0.584780 0.503820 1.096974
H1    H     H_    0.131934 0.632944 0.516865 0.207044
H2    H     H_    0.510505 0.623867 0.267840 0.250930
H3    H     H_    0.609481 0.135090 0.583740 0.230724
N1    N     N_2   0.445403 0.491714 0.013265 -0.118651
N2    N     N_2   0.532343 0.532983 0.987066 -0.102392
N3    N     N_R   0.515100 0.712130 0.509560 -0.284406
N4    N     N_2   0.519299 0.984205 0.530810 -0.117547
N5    N     N_2   0.491006 0.015506 0.469546 -0.130996
N6    N     N_R   0.484890 0.287850 0.490450 -0.239243
O1    O     O_R   0.494360 0.420530 0.382500 -0.485324
O2    O     O_R   0.504550 0.563720 0.388950 -0.569839
O3    O     O_R   0.314550 0.428390 0.496780 -0.568016
O4    O     O_R   0.324740 0.571580 0.503230 -0.553712
O5    O     O_R   0.495450 0.436280 0.611050 -0.567668
O6    O     O_R   0.505640 0.579470 0.617500 -0.506529
O7    O     O_R   0.675260 0.428420 0.496770 -0.556778
O8    O     O_R   0.685450 0.571610 0.503220 -0.547213
Cl1   Cl    Cl    0.493193 0.308586 0.232588 -0.319327
Cl2   Cl    Cl    0.465772 0.692777 0.747739 -0.400031
Cl3   Cl    Cl    0.482732 0.668788 0.117069 -0.378528
Cl4   Cl    Cl    0.520085 0.701498 0.928944 -0.302961
I1    I     I_    0.692590 0.317110 0.627142 -0.195856
Cl5   Cl    Cl    0.708498 0.919685 0.632074 -0.370470
Cl6   Cl    Cl    0.691808 0.720318 0.628550 -0.397417
Cl7   Cl    Cl    0.328760 0.274473 0.363602 -0.481220
I2    I     I_    0.112951 0.380509 0.305137 -0.076179
I3    I     I_    0.263116 0.885119 0.428291 -0.037801
I4    I     I_    0.360396 0.068438 0.312974 0.088174
Cl8   Cl    Cl    0.331569 0.685833 0.392101 -0.515601
I5    I     I_    0.098458 0.159129 0.446477 -0.085551
Cl9   Cl    Cl    0.799209 0.176939 0.386497 -0.430495
Cl10  Cl    Cl    0.731473 0.360452 0.345376 -0.473938
I6    I     I_    0.897152 0.702152 0.485122 -0.107455
I7    I     I_    0.385454 0.324324 0.720520 -0.150284
I8    I     I_    0.570502 0.339483 0.902869 0.003051
Cl11  Cl    Cl    0.393509 0.319847 0.062315 -0.365160

loop_
_geom_bond_atom_site_label_1
_geom_bond_atom_site_label_2
_ccdc_geom_bond_type
C29   Cl7   S    
C24   Cl5   S    
C10   N1    S    
C20   Cl8   S    
C35   C36   A    
C7    C8    A    
Cu2   O2    S    
N4    N5    D    
C15   I7    S    
C28   N5    S    
C26   C27   A    
C17   C23   S    
C29   N6    A    
Cu1   Cu2   S    
C9    Cl3   S    
C27   I1    S    
C5    C6    A    
C27   N6    A    
C2    C32   A    
C34   C35   A    
C3    C12   S    
Cu2   O8    S    
C35   Cl10  S    
C6    C36   A    
C8    C9    A    
Cu1   N6    S    
C9    C10   A    
C13   Cl1   S    
C6    C31   S    
C21   C22   A    
C25   N3    A    
C20   N3    A    
C23   O6    A    
C14   I8    S    
C24   C25   A    
C32   I2    S    
Cu1   O5    S    
C18   C19   A    
Cu2   O4    S    
C19   Cl4   S    
Cu2   N3    S    
C29   C30   A    
C18   Cl2   S    
C34   Cl9   S    
C4    H1    S    
C17   C18   A    
Cu1   O1    S    
C16   N2    S    
C30   I4    S    
Cu1   O7    S    
C14   C16   A    
N1    N2    D    
C3    C4    A    
C12   O4    A    
C2    C36   A    
C15   C17   A    
C21   I3    S    
C1    C7    S    
C4    C5    A    
C11   Cl11  S    
C12   O3    A    
C1    O1    A    
C26   C28   A    
C32   C33   A    
C28   C30   A    
C2    C3    A    
C5    I6    S    
Cu1   O3    S    
C11   C13   A    
C23   O5    A    
Cu2   O6    S    
C16   C19   A    
C33   C34   A    
C22   C24   A    
C25   Cl6   S    
C31   O7    A    
C10   C11   A    
C7    C13   A    
C22   N4    S    
C20   C21   A    
C33   I5    S    
C14   C15   A    
C8    H2    S    
C31   O8    A    
C1    O2    A    
C26   H3    S    
