data_mof_unit_22057.cif
_audit_creation_date              2012-12-10T17:09:54-0500
_audit_creation_method            fapswitch 2.2
_symmetry_space_group_name_H-M    P1
_symmetry_Int_Tables_number       1
_space_group_crystal_system       triclinic
_cell_length_a                    10.771776
_cell_length_b                    12.958823
_cell_length_c                    11.696564
_cell_angle_alpha                 99.195878
_cell_angle_beta                  94.947291
_cell_angle_gamma                 90.67727
_cell_volume                      1605.18512108

loop_
_atom_site_label
_atom_site_type_symbol
_atom_type_description
_atom_site_fract_x
_atom_site_fract_y
_atom_site_fract_z
_atom_type_partial_charge
C1    C     C_R   0.491313 0.299998 0.479242 0.823816
C2    C     C_R   0.067407 0.532530 0.601248 0.006163
C3    C     C_R   0.123870 0.512935 0.495272 -0.055734
C4    C     C_R   0.049719 0.474666 0.389836 -0.100218
C5    C     C_R   0.924931 0.444775 0.393919 -0.078249
C6    C     C_R   0.871467 0.463876 0.501065 -0.046911
C7    C     C_R   0.507806 0.813707 0.529924 -0.205734
C8    C     C_R   0.467783 0.188580 0.469111 -0.190117
C9    C     C_R   0.329782 0.034691 0.426843 0.465446
C10   C     C_R   0.349725 0.143108 0.427963 -0.126249
C11   C     C_R   0.559670 0.131458 0.518143 -0.130817
C12   C     C_R   0.261318 0.507876 0.499248 0.834362
C13   C     C_R   0.539821 0.026437 0.524522 -0.010963
C14   C     C_R   0.426587 0.974817 0.472879 0.002553
C15   C     C_R   0.414948 0.865194 0.469486 -0.168928
C16   C     C_R   0.613322 0.867539 0.590205 0.312976
C17   C     C_R   0.633502 0.973258 0.581256 0.340134
C18   C     C_R   0.381509 0.403343 0.023200 -0.235696
C19   C     C_R   0.393291 0.411807 0.144198 0.152636
C20   C     C_R   0.550570 0.543208 0.158631 0.127619
C21   C     C_R   0.541190 0.539528 0.035577 -0.005539
C22   C     C_R   0.455842 0.466942 0.966831 -0.005178
C23   C     C_R   0.502053 0.700457 0.520586 0.893303
C24   C     C_R   0.448488 0.457871 0.843607 0.048270
C25   C     C_R   0.606215 0.590715 0.855023 0.511423
C26   C     C_R   0.616546 0.603285 0.979410 -0.204608
C27   C     C_R   0.736634 0.484912 0.499810 0.865857
C28   C     C_R   0.123498 0.597762 0.701211 0.364502
C29   C     C_R   0.083192 0.589815 0.811809 0.314974
C30   C     C_R   0.983533 0.520819 0.820232 -0.062439
C31   C     C_R   0.915965 0.468550 0.716899 -0.050712
C32   C     C_R   0.949839 0.487436 0.606630 -0.029953
Cu1   Cu    Cu3+1 0.509250 0.507730 0.615930 1.033033
Cu2   Cu    Cu3+1 0.490750 0.492270 0.384070 1.013397
H1    H     H_    0.646715 0.171044 0.554051 0.250475
H2    H     H_    0.314388 0.346361 0.975004 0.168865
H3    H     H_    0.335696 0.362681 0.185832 0.102468
H4    H     H_    0.617408 0.594733 0.214859 0.165849
N1    N     N_R   0.523180 0.519350 0.790130 -0.229678
N2    N     N_R   0.476820 0.480650 0.209890 -0.194414
O1    O     O_R   0.506570 0.354460 0.582000 -0.623807
O2    O     O_R   0.490940 0.341410 0.386200 -0.575282
O3    O     O_R   0.327470 0.506530 0.597920 -0.535353
O4    O     O_R   0.311840 0.493480 0.402120 -0.595561
O5    O     O_R   0.509060 0.658590 0.613800 -0.481654
O6    O     O_R   0.493430 0.645540 0.418000 -0.595122
O7    O     O_R   0.688160 0.506520 0.597880 -0.559488
O8    O     O_R   0.672530 0.493470 0.402080 -0.581676
C33   C     C_2   0.098047 0.469282 0.273807 0.364059
H5    H     H_    0.089618 0.396962 0.212106 0.070102
O9    O     O_2   0.142508 0.547290 0.244870 -0.488531
O10   O     O_3   0.744073 0.025987 0.625504 -0.694718
H6    H     H_    0.812516 0.975529 0.622917 0.354119
C34   C     C_2   0.245759 0.210935 0.395767 0.347344
H7    H     H_    0.264042 0.279302 0.356771 0.058350
O11   O     O_2   0.139111 0.193589 0.416823 -0.477076
C35   C     C_2   0.362727 0.378107 0.773042 0.450004
H8    H     H_    0.397815 0.303621 0.735010 0.076813
O12   O     O_2   0.250744 0.392065 0.764347 -0.542934
O13   O     O_3   0.678351 0.649010 0.795559 -0.671843
H9    H     H_    0.714822 0.711463 0.847692 0.312786
C36   C     C_2   0.707139 0.681412 0.048291 0.329164
H10   H     H_    0.801708 0.686312 0.024058 0.076108
O14   O     O_2   0.675316 0.744110 0.129227 -0.496278
O15   O     O_3   0.211143 0.672473 0.686971 -0.747850
H11   H     H_    0.211372 0.731646 0.752042 0.336921
O16   O     O_3   0.146550 0.640938 0.913303 -0.716566
H12   H     H_    0.234961 0.651496 0.899584 0.352487
C37   C     C_2   0.957426 0.502981 0.938865 0.361245
H13   H     H_    0.980496 0.563819 0.013138 0.153637
O17   O     O_2   0.916496 0.419353 0.956661 -0.577424
C38   C     C_2   0.822384 0.384842 0.723126 0.551466
H14   H     H_    0.760205 0.392834 0.791937 0.080418
O18   O     O_2   0.814101 0.305727 0.650384 -0.528422
C39   C     C_2   0.852065 0.390191 0.286438 0.416332
H15   H     H_    0.866644 0.410139 0.201905 0.081571
O19   O     O_2   0.777065 0.319991 0.291550 -0.488606
C40   C     C_2   0.310261 0.800957 0.401170 0.603441
H16   H     H_    0.257133 0.747629 0.442161 0.055906
O20   O     O_2   0.288821 0.801960 0.297117 -0.458378
O21   O     O_3   0.698186 0.813365 0.651691 -0.699739
H17   H     H_    0.740137 0.862670 0.717521 0.336562
O22   O     O_3   0.214771 0.988181 0.387730 -0.664269
H18   H     H_    0.181195 0.018586 0.319260 0.365755

loop_
_geom_bond_atom_site_label_1
_geom_bond_atom_site_label_2
_ccdc_geom_bond_type
C27   O8    A    
C6    C32   A    
C21   C26   A    
C23   O5    A    
C1    C8    S    
Cu1   O5    S    
Cu2   O2    S    
C9    C14   A    
O21   H17   S    
C36   H10   S    
Cu2   N2    S    
C28   C29   A    
C12   O3    A    
C5    C6    A    
C20   N2    A    
C40   O20   D    
C35   O12   D    
C15   C40   S    
C24   N1    A    
C2    C32   A    
C18   C19   A    
C37   O17   D    
C36   O14   D    
C3    C12   S    
C19   H3    S    
C29   O16   S    
C31   C32   A    
C24   C35   S    
C33   O9    D    
Cu2   O6    S    
C25   O13   S    
C9    C10   A    
C6    C27   S    
C7    C15   A    
C23   O6    A    
C13   C14   A    
C17   O10   S    
C34   O11   D    
O16   H12   S    
Cu1   O3    S    
Cu2   O4    S    
C38   O18   D    
C40   H16   S    
C16   C17   A    
C25   C26   A    
O13   H9    S    
C5    C39   S    
C39   H15   S    
C29   C30   A    
C20   H4    S    
O22   H18   S    
Cu1   Cu2   S    
Cu1   N1    S    
C39   O19   D    
C9    O22   S    
C1    O1    A    
C31   C38   S    
O15   H11   S    
Cu1   O7    S    
C22   C24   A    
Cu2   O8    S    
C3    C4    A    
C30   C37   S    
O10   H6    S    
C27   O7    A    
C34   H7    S    
C7    C16   A    
C18   C22   A    
C38   H14   S    
C13   C17   A    
C4    C33   S    
Cu1   O1    S    
C11   H1    S    
C2    C3    A    
C26   C36   S    
C12   O4    A    
C25   N1    A    
C11   C13   A    
C35   H8    S    
C30   C31   A    
C8    C11   A    
C7    C23   S    
C16   O21   S    
C28   O15   S    
C37   H13   S    
C10   C34   S    
C19   N2    A    
C1    O2    A    
C4    C5    A    
C20   C21   A    
C8    C10   A    
C33   H5    S    
C14   C15   A    
C2    C28   A    
C21   C22   A    
C18   H2    S    
