data_mof_unit_58737.cif
_audit_creation_date              2012-12-10T17:31:52-0500
_audit_creation_method            fapswitch 2.2
_symmetry_space_group_name_H-M    P1
_symmetry_Int_Tables_number       1
_space_group_crystal_system       triclinic
_cell_length_a                    12.116706
_cell_length_b                    11.528532
_cell_length_c                    12.773977
_cell_angle_alpha                 91.19795
_cell_angle_beta                  94.795705
_cell_angle_gamma                 86.933859
_cell_volume                      1775.334662

loop_
_atom_site_label
_atom_site_type_symbol
_atom_type_description
_atom_site_fract_x
_atom_site_fract_y
_atom_site_fract_z
_atom_type_partial_charge
C1    C     C_R   0.477004 0.498768 0.300297 0.939043
C2    C     C_R   0.977187 0.544423 0.531682 0.016563
C3    C     C_R   0.499276 0.282271 0.499098 0.996270
C4    C     C_R   0.500600 0.717726 0.500111 0.880231
C5    C     C_1   0.498270 0.161743 0.498658 -0.085267
C6    C     C_1   0.501405 0.838238 0.499486 -0.112885
C7    C     C_1   0.498960 0.059419 0.498616 0.038741
C8    C     C_1   0.500581 0.940559 0.498970 0.041377
C9    C     C_R   0.539137 0.504397 0.812254 -0.164340
C10   C     C_R   0.462194 0.482924 0.189181 -0.197501
C11   C     C_R   0.468630 0.344410 0.045207 0.338677
C12   C     C_R   0.523094 0.499955 0.700000 1.016058
C13   C     C_R   0.563853 0.629992 0.964728 0.420213
C14   C     C_R   0.451868 0.369516 0.150797 0.391792
C15   C     C_R   0.581357 0.604823 0.859299 0.307362
C16   C     C_R   0.483847 0.574408 0.125707 -0.146857
C17   C     C_R   0.497096 0.417475 0.870381 -0.118783
C18   C     C_R   0.511239 0.548655 0.022736 -0.009675
C19   C     C_R   0.490977 0.435934 0.978900 -0.092358
C20   C     C_2   0.451398 0.312809 0.815478 0.554117
C21   C     C_2   0.469813 0.695551 0.167746 0.600566
C22   C     C_2   0.815598 0.599801 0.638701 0.537275
C23   C     C_R   0.049470 0.624737 0.584904 -0.176527
C24   C     C_2   0.190569 0.343053 0.413163 0.541530
C25   C     C_2   0.005323 0.736970 0.628062 0.455694
C26   C     C_2   0.983341 0.338343 0.296122 0.428527
C27   C     C_R   0.946820 0.398323 0.391982 -0.231533
C28   C     C_R   0.166002 0.607226 0.580817 0.506783
C29   C     C_R   0.831560 0.406527 0.405839 0.560675
C30   C     C_R   0.139800 0.447429 0.461709 0.009812
C31   C     C_R   0.861378 0.543706 0.545914 -0.006048
C32   C     C_R   0.021786 0.462188 0.460931 -0.080056
H1    H     H_    0.374558 0.279667 0.837463 0.107929
H2    H     H_    0.207628 0.713241 0.696559 0.306722
H3    H     H_    0.034877 0.768402 0.705376 0.079175
H4    H     H_    0.972373 0.246176 0.283480 0.052073
H5    H     H_    0.497348 0.716506 0.248624 0.001557
H6    H     H_    0.690542 0.719011 0.843329 0.369140
H7    H     H_    0.386802 0.224243 0.179354 0.360730
H8    H     H_    0.505892 0.179611 0.067449 0.362994
H9    H     H_    0.593107 0.793736 0.962241 0.362688
H10   H     H_    0.742094 0.656905 0.630133 0.147913
H11   H     H_    0.176034 0.257999 0.442456 -0.000126
H12   H     H_    0.792268 0.280088 0.306749 0.309557
N1    N     N_R   0.792200 0.479100 0.480660 -0.160718
N2    N     N_R   0.207800 0.520900 0.519340 -0.139245
O1    O     O_R   0.578300 0.494420 0.341180 -0.569539
O2    O     O_2   0.421361 0.771553 0.113696 -0.522749
O3    O     O_3   0.632432 0.680170 0.798437 -0.775738
O4    O     O_3   0.428675 0.284551 0.219367 -0.737386
O5    O     O_3   0.476549 0.230614 0.008989 -0.768125
O6    O     O_3   0.602534 0.729776 0.013350 -0.730404
O7    O     O_2   0.860123 0.581544 0.726558 -0.572492
O8    O     O_2   0.242942 0.350309 0.336465 -0.476261
O9    O     O_3   0.755049 0.344653 0.344430 -0.711499
O10   O     O_3   0.240574 0.677932 0.634530 -0.718897
O11   O     O_2   0.935672 0.796572 0.575893 -0.558177
O12   O     O_R   0.421700 0.505580 0.658820 -0.609174
O13   O     O_2   0.024249 0.392855 0.229519 -0.477847
O14   O     O_R   0.390690 0.507830 0.353590 -0.561593
O15   O     O_R   0.609310 0.492170 0.646410 -0.609509
O16   O     O_R   0.593810 0.327740 0.493800 -0.570574
O17   O     O_R   0.406190 0.672260 0.506200 -0.552738
O18   O     O_R   0.406190 0.341150 0.506220 -0.626732
O19   O     O_R   0.593810 0.658850 0.493780 -0.657260
O20   O     O_2   0.500289 0.261899 0.746930 -0.595522
Zn1   Zn    Zn3+2 0.625270 0.491050 0.491710 1.032107
Zn2   Zn    Zn3+2 0.374730 0.508950 0.508290 1.050242

loop_
_geom_bond_atom_site_label_1
_geom_bond_atom_site_label_2
_ccdc_geom_bond_type
N1    Zn1   S    
C30   C32   A    
C31   N1    A    
H2    O10   S    
C16   C21   S    
C27   C29   A    
C13   O6    S    
C26   O13   D    
O15   Zn1   S    
H9    O6    S    
H12   O9    S    
C28   N2    A    
C21   O2    D    
C12   O12   A    
H7    O4    S    
C23   C25   S    
C9    C15   A    
C7    C8    S    
O1    Zn1   S    
H6    O3    S    
C22   H10   S    
C3    O18   A    
C15   O3    S    
N2    Zn2   S    
C12   O15   A    
C4    O17   A    
C11   C19   A    
C26   C27   S    
C14   O4    S    
C25   O11   D    
O16   Zn1   S    
C25   H3    S    
C6    C8    T    
C20   H1    S    
O18   Zn2   S    
O12   Zn2   S    
C17   C19   A    
C22   O7    D    
C13   C15   A    
C28   O10   S    
C4    O19   A    
C11   C14   A    
C24   C30   S    
C1    O14   A    
C4    C6    S    
C11   O5    S    
C22   C31   S    
C13   C18   A    
C24   O8    D    
H8    O5    S    
C20   O20   D    
C26   H4    S    
C17   C20   S    
C21   H5    S    
O14   Zn2   S    
C2    C32   A    
C18   C19   A    
C10   C14   A    
C3    O16   A    
C9    C17   A    
C2    C23   A    
C5    C7    T    
C24   H11   S    
O17   Zn2   S    
C1    O1    A    
C10   C16   A    
C29   O9    S    
C3    C5    S    
C27   C32   A    
C9    C12   S    
C30   N2    A    
C16   C18   A    
C23   C28   A    
C1    C10   S    
C29   N1    A    
C2    C31   A    
O19   Zn1   S    
