data_mof_unit_20136.cif
_audit_creation_date              2012-12-10T18:16:31-0500
_audit_creation_method            fapswitch 2.2
_symmetry_space_group_name_H-M    P1
_symmetry_Int_Tables_number       1
_space_group_crystal_system       triclinic
_cell_length_a                    12.652465
_cell_length_b                    12.97093
_cell_length_c                    27.453867
_cell_angle_alpha                 91.677651
_cell_angle_beta                  103.461572
_cell_angle_gamma                 80.730339
_cell_volume                      4324.40588211

loop_
_atom_site_label
_atom_site_type_symbol
_atom_type_description
_atom_site_fract_x
_atom_site_fract_y
_atom_site_fract_z
_atom_type_partial_charge
C1    C     C_R   0.437836 0.691992 0.491456 0.893768
C2    C     C_R   0.565024 0.549113 0.030519 0.055126
C3    C     C_R   0.606347 0.358115 0.036547 -0.012282
C4    C     C_R   0.502609 0.498764 0.594083 0.951455
C5    C     C_R   0.575022 0.455590 0.057635 0.093373
C6    C     C_R   0.512402 0.642391 0.047660 -0.246373
C7    C     C_R   0.485489 0.646348 0.093875 -0.116006
C8    C     C_R   0.507781 0.556448 0.123775 0.003514
C9    C     C_R   0.551293 0.459850 0.105606 -0.108756
C10   C     C_R   0.570340 0.368081 0.135127 -0.133741
C11   C     C_R   0.548887 0.377573 0.183443 0.559817
C12   C     C_R   0.449986 0.507131 0.724195 -0.139873
C13   C     C_R   0.487156 0.561030 0.171574 0.505758
C14   C     C_R   0.585396 0.524187 0.285757 -0.083774
C15   C     C_R   0.582575 0.531163 0.335936 -0.189196
C16   C     C_R   0.562196 0.307983 0.505512 0.911324
C17   C     C_R   0.413147 0.457042 0.317774 -0.200142
C18   C     C_R   0.416493 0.449762 0.267379 -0.087177
C19   C     C_R   0.503041 0.482866 0.251532 0.301474
C20   C     C_R   0.598162 0.545015 0.984676 -0.002080
C21   C     C_R   0.605055 0.448072 0.959358 0.053220
C22   C     C_R   0.609909 0.354178 0.985153 0.031744
C23   C     C_R   0.552637 0.457905 0.751354 0.255794
C24   C     C_R   0.619818 0.633903 0.961750 0.132200
C25   C     C_R   0.611879 0.255557 0.907048 0.154157
C26   C     C_R   0.628972 0.268014 0.067039 -0.273399
C27   C     C_R   0.612233 0.271962 0.115505 0.452029
C28   C     C_R   0.498423 0.499620 0.405914 0.834605
C29   C     C_R   0.613785 0.259776 0.958484 -0.190377
C30   C     C_R   0.703593 0.060188 0.461973 -0.162471
C31   C     C_R   0.601029 0.196999 0.501826 -0.136106
C32   C     C_R   0.293497 0.848806 0.488278 -0.139413
C33   C     C_R   0.262425 0.957808 0.487213 0.189796
C34   C     C_R   0.602856 0.446237 0.907682 -0.074244
C35   C     C_R   0.341437 0.019903 0.484391 -0.167120
C36   C     C_R   0.448293 0.974700 0.480504 0.088328
C37   C     C_R   0.468110 0.868328 0.469948 0.041762
C38   C     C_R   0.534362 0.033166 0.484428 -0.029683
C39   C     C_R   0.625122 0.994779 0.462849 0.074240
C40   C     C_R   0.585861 0.541754 0.831102 0.528218
C41   C     C_R   0.633610 0.892781 0.442749 0.154200
C42   C     C_R   0.556910 0.829884 0.448089 -0.205554
C43   C     C_R   0.534061 0.127910 0.510400 0.316373
C44   C     C_R   0.688480 0.162235 0.479286 -0.222283
C45   C     C_R   0.599366 0.540850 0.882879 -0.058451
C46   C     C_R   0.397503 0.803683 0.481287 -0.166659
C47   C     C_R   0.097742 0.330614 0.436978 -0.249496
C48   C     C_R   0.801455 0.622225 0.563569 0.011423
C49   C     C_R   0.909954 0.633774 0.583562 -0.254782
C50   C     C_R   0.991840 0.579451 0.562336 -0.070749
C51   C     C_R   0.965033 0.518766 0.518923 0.014145
C52   C     C_R   0.582907 0.358090 0.827605 0.510912
C53   C     C_R   0.855565 0.500098 0.503916 0.157963
C54   C     C_R   0.043571 0.469741 0.492486 -0.137262
C55   C     C_R   0.016866 0.386789 0.459091 0.050700
C56   C     C_R   0.611811 0.632517 0.910221 -0.140928
C57   C     C_R   0.909424 0.363330 0.447820 0.334434
C58   C     C_R   0.829820 0.421742 0.469055 -0.261282
C59   C     C_R   0.145992 0.502593 0.495672 0.503540
C60   C     C_R   0.201305 0.359400 0.446352 -0.063279
C61   C     C_R   0.635957 0.420432 0.726896 -0.087751
C62   C     C_R   0.617579 0.433808 0.675482 -0.245336
C63   C     C_R   0.430743 0.520814 0.672506 0.374305
C64   C     C_3   0.622099 0.149576 0.880941 -0.300736
C65   C     C_3   0.654048 0.051839 0.914540 -0.923456
C66   C     C_3   0.724475 0.846451 0.417294 -0.427821
C67   C     C_R   0.600243 0.351406 0.880519 -0.084979
C68   C     C_3   0.827879 0.799909 0.455676 -0.803964
C69   C     C_3   0.149530 0.012445 0.491455 -0.389412
C70   C     C_3   0.065473 0.940847 0.492897 -0.818901
C71   C     C_3   0.661555 0.726548 0.991078 -0.435737
C72   C     C_3   0.772702 0.743733 0.982450 -0.814065
C73   C     C_R   0.515522 0.484663 0.647890 -0.127277
C74   C     C_R   0.496937 0.496861 0.352447 -0.032428
Cl1   Cl    Cl    0.303082 0.590058 0.641126 -0.577810
Cl2   Cl    Cl    0.645242 0.151919 0.148585 -0.512434
Cl3   Cl    Cl    0.465892 0.155564 0.560229 -0.600363
Cl4   Cl    Cl    0.868582 0.264984 0.405001 -0.650942
Cl5   Cl    Cl    0.170727 0.627004 0.517195 -0.630266
H1    H     H_    0.715568 0.382894 0.747929 0.153975
H2    H     H_    0.317732 0.103957 0.483745 0.170239
H3    H     H_    0.564879 0.751417 0.433303 0.165260
H4    H     H_    0.264969 0.315008 0.430458 0.150922
H5    H     H_    0.082310 0.264632 0.412840 0.206548
H6    H     H_    0.737098 0.661624 0.580536 0.160552
H7    H     H_    0.617904 0.703212 0.891695 0.195383
H8    H     H_    0.075644 0.581088 0.582156 0.240551
H9    H     H_    0.930886 0.681649 0.616270 0.180632
H10   H     H_    0.749098 0.401499 0.459014 0.229640
H11   H     H_    0.647977 0.562671 0.361777 0.164679
H12   H     H_    0.663148 0.193048 0.054568 0.176341
H13   H     H_    0.652370 0.549687 0.273406 0.143536
H14   H     H_    0.447574 0.720386 0.106141 0.197038
H15   H     H_    0.488976 0.712679 0.024926 0.157136
H16   H     H_    0.683535 0.404573 0.657189 0.182151
H17   H     H_    0.730869 0.056312 0.943448 0.269779
H18   H     H_    0.586302 0.041563 0.932516 0.262780
H19   H     H_    0.668994 0.981750 0.891363 0.270582
H20   H     H_    0.542484 0.142829 0.854479 0.254358
H21   H     H_    0.687369 0.146218 0.859696 0.245027
H22   H     H_    0.855545 0.859070 0.483707 0.261989
H23   H     H_    0.346536 0.429821 0.329685 0.164972
H24   H     H_    0.810855 0.733175 0.475351 0.271019
H25   H     H_    0.894943 0.771152 0.436454 0.262168
H26   H     H_    0.697478 0.783303 0.391354 0.210553
H27   H     H_    0.743209 0.905476 0.393449 0.222709
H28   H     H_    0.053272 0.891892 0.458780 0.267977
H29   H     H_    0.092469 0.890365 0.526930 0.287048
H30   H     H_    0.985410 0.989373 0.494137 0.253901
H31   H     H_    0.158977 0.060564 0.525916 0.236343
H32   H     H_    0.115159 0.066463 0.458897 0.222363
H33   H     H_    0.833263 0.670621 0.990457 0.269302
H34   H     H_    0.352748 0.417736 0.240777 0.147369
H35   H     H_    0.764711 0.769592 0.943405 0.254362
H36   H     H_    0.804359 0.805608 0.007914 0.258181
H37   H     H_    0.600378 0.798412 0.979998 0.210804
H38   H     H_    0.675419 0.714440 0.032004 0.234833
H39   H     H_    0.611905 0.188769 0.977040 0.164186
H40   H     H_    0.742863 0.214752 0.473708 0.207820
H41   H     H_    0.773886 0.035684 0.445999 0.182126
H42   H     H_    0.386222 0.536957 0.743641 0.171323
H43   H     H_    0.238215 0.799185 0.495063 0.227005
N1    N     N_R   0.574612 0.452147 0.804713 -0.339757
N2    N     N_R   0.509889 0.472961 0.200436 -0.366987
N3    N     N_R   0.222180 0.444690 0.474320 -0.117099
N4    N     N_R   0.776980 0.554780 0.525420 -0.125990
O1    O     O_R   0.366730 0.627160 0.487740 -0.549986
O2    O     O_R   0.410930 0.482330 0.420550 -0.621875
O3    O     O_R   0.589030 0.517690 0.436960 -0.646322
O4    O     O_2   0.582718 0.631826 0.806938 -0.550799
O5    O     O_2   0.446210 0.653045 0.189601 -0.546557
O6    O     O_2   0.570692 0.273193 0.798651 -0.570676
O7    O     O_2   0.568043 0.293572 0.213828 -0.458777
O8    O     O_R   0.544830 0.662520 0.504140 -0.618899
O9    O     O_R   0.410970 0.482310 0.563040 -0.520843
O10   O     O_R   0.589070 0.517670 0.579450 -0.632558
O11   O     O_R   0.455170 0.337480 0.495860 -0.588333
O12   O     O_R   0.633270 0.372840 0.512260 -0.636679
Zn1   Zn    Zn3+2 0.381080 0.476390 0.489050 1.037066
Zn2   Zn    Zn3+2 0.618920 0.523610 0.510950 0.936528

loop_
_geom_bond_atom_site_label_1
_geom_bond_atom_site_label_2
_ccdc_geom_bond_type
C10   C27   A    
C66   C68   S    
C72   H33   S    
C8    C13   A    
C22   C29   A    
C41   C42   A    
C35   C36   A    
C42   H3    S    
C68   H24   S    
O10   Zn2   S    
C28   C74   S    
C35   H2    S    
C7    C8    A    
C39   C41   A    
N3    Zn1   S    
C16   C31   S    
O9    Zn1   S    
O11   Zn1   S    
C72   H36   S    
N4    Zn2   S    
C26   C27   A    
C31   C43   A    
C43   Cl3   S    
C36   C37   A    
O2    Zn1   S    
C65   H19   S    
C18   C19   A    
C70   H28   S    
C11   O7    S    
O8    Zn2   S    
C38   C39   A    
C60   H4    S    
C1    C46   S    
C61   H1    S    
C72   H35   S    
C28   O3    A    
C37   C42   A    
C20   C24   A    
C33   C35   A    
C47   C60   A    
C64   H20   S    
C12   H42   S    
C16   O11   A    
C45   C56   A    
C8    C9    A    
C6    H15   S    
C25   C67   A    
C30   C39   A    
C62   C73   A    
C9    C10   A    
C33   C69   S    
C4    O10   A    
C21   C22   A    
C49   H9    S    
C30   C44   A    
C2    C6    A    
O1    Zn1   S    
C66   H27   S    
C57   Cl4   S    
C18   H34   S    
C50   C51   A    
C54   C59   A    
C65   H17   S    
C25   C29   A    
C40   C45   A    
C7    H14   S    
C19   N2    S    
C30   H41   S    
C31   C44   A    
C71   H38   S    
C2    C20   A    
C52   O6    S    
C32   H43   S    
C68   H22   S    
C53   N4    A    
C59   Cl5   S    
C13   N2    A    
C23   N1    S    
C21   C34   A    
C63   C73   A    
C44   H40   S    
C26   H12   S    
C51   C53   A    
C25   C64   S    
C17   H23   S    
C5    C9    A    
C70   H30   S    
C69   H31   S    
C56   H7    S    
C12   C23   A    
C64   H21   S    
C17   C18   A    
C13   O5    S    
C34   C45   A    
C47   H5    S    
C14   H13   S    
C4    C73   S    
C6    C7    A    
C52   C67   A    
O12   Zn2   S    
C50   H8    S    
C4    O9    A    
C48   C49   A    
C55   C57   A    
C17   C74   A    
C2    C5    A    
C59   N3    A    
C66   H26   S    
C27   Cl2   S    
C1    O8    A    
C47   C55   A    
C12   C63   A    
C40   N1    A    
C40   O4    S    
C54   C55   A    
C60   N3    A    
C14   C15   A    
C32   C46   A    
C14   C19   A    
C3    C26   A    
C16   O12   A    
C1    O1    A    
C3    C5    A    
C34   C67   A    
C53   C58   A    
C41   C66   S    
C24   C56   A    
C29   H39   S    
C51   C54   A    
C64   C65   S    
C68   H25   S    
C65   H18   S    
C38   C43   A    
C70   H29   S    
C32   C33   A    
C15   H11   S    
C69   H32   S    
C57   C58   A    
O3    Zn2   S    
C63   Cl1   S    
C36   C38   A    
C52   N1    A    
C71   H37   S    
C61   C62   A    
C58   H10   S    
C69   C70   S    
C10   C11   A    
C48   N4    A    
C23   C61   A    
C15   C74   A    
C71   C72   S    
C20   C21   A    
C49   C50   A    
C48   H6    S    
C3    C22   A    
C11   N2    A    
C37   C46   A    
C62   H16   S    
C28   O2    A    
C24   C71   S    
