data_mof_unit_41005.cif
_audit_creation_date              2012-12-10T18:12:39-0500
_audit_creation_method            fapswitch 2.2
_symmetry_space_group_name_H-M    P1
_symmetry_Int_Tables_number       1
_space_group_crystal_system       triclinic
_cell_length_a                    12.61046
_cell_length_b                    13.20372
_cell_length_c                    15.713443
_cell_angle_alpha                 90.956709
_cell_angle_beta                  102.886056
_cell_angle_gamma                 81.78283
_cell_volume                      2523.97772667

loop_
_atom_site_label
_atom_site_type_symbol
_atom_type_description
_atom_site_fract_x
_atom_site_fract_y
_atom_site_fract_z
_atom_type_partial_charge
C1    C     C_R   0.438242 0.691113 0.486470 0.891659
C2    C     C_3   0.502396 0.503252 0.917742 0.165945
C3    C     C_3   0.398556 0.489879 0.007973 -0.205309
C4    C     C_3   0.497709 0.501077 0.082505 0.191581
C5    C     C_3   0.474435 0.413062 0.964650 -0.153696
C6    C     C_3   0.573624 0.424403 0.040749 -0.208060
C7    C     C_1   0.503806 0.503053 0.826955 -0.069070
C8    C     C_1   0.496043 0.499889 0.173218 -0.064934
C9    C     C_R   0.728839 0.045730 0.506307 -0.195982
C10   C     C_R   0.600017 0.197022 0.519294 -0.082871
C11   C     C_R   0.298025 0.836570 0.499677 -0.260275
C12   C     C_R   0.501136 0.500566 0.661914 0.904061
C13   C     C_R   0.280532 0.933586 0.534689 0.255528
C14   C     C_R   0.367312 0.993224 0.551563 0.192691
C15   C     C_R   0.459078 0.965880 0.511409 -0.017966
C16   C     C_R   0.471272 0.869776 0.470585 0.027602
C17   C     C_R   0.540827 0.029056 0.511309 0.092030
C18   C     C_R   0.642586 0.987583 0.492989 0.078840
C19   C     C_R   0.651894 0.894353 0.451223 -0.251759
C20   C     C_R   0.561139 0.842635 0.429242 0.218917
C21   C     C_R   0.518503 0.134642 0.516202 -0.303530
C22   C     C_R   0.709973 0.150154 0.524140 0.189315
C23   C     C_R   0.561984 0.308114 0.511583 0.865040
C24   C     C_R   0.398390 0.800897 0.478194 -0.167357
C25   C     C_R   0.087141 0.351235 0.375337 -0.309122
C26   C     C_R   0.799357 0.628823 0.603576 0.023609
C27   C     C_R   0.903214 0.658479 0.624382 -0.255553
C28   C     C_R   0.984470 0.611152 0.584036 -0.200191
C29   C     C_R   0.961601 0.533731 0.522137 0.019239
C30   C     C_R   0.853918 0.507499 0.502444 0.233516
C31   C     C_R   0.040856 0.480891 0.479617 -0.014937
C32   C     C_R   0.010100 0.405201 0.417067 0.198921
C33   C     C_R   0.903090 0.383141 0.397477 -0.296180
C34   C     C_R   0.498860 0.499544 0.338124 0.889363
C35   C     C_R   0.826720 0.432860 0.440475 -0.217888
C36   C     C_R   0.150394 0.498901 0.497087 -0.052004
C37   C     C_R   0.194113 0.372393 0.395944 0.010898
C38   C     C_3   0.525370 0.590152 0.034910 0.252369
C39   C     C_3   0.601843 0.514558 0.992021 -0.170216
C40   C     C_1   0.503420 0.502094 0.751443 -0.186478
C41   C     C_1   0.496341 0.499434 0.248651 -0.183310
C42   C     C_3   0.426328 0.580210 0.959158 -0.172876
H1    H     H_    0.684654 0.525381 0.983666 0.137783
H2    H     H_    0.434255 0.168843 0.510954 0.197009
H3    H     H_    0.064914 0.293258 0.327637 0.143739
H4    H     H_    0.181545 0.554769 0.543044 0.126227
H5    H     H_    0.735728 0.665322 0.634604 0.141835
H6    H     H_    0.453616 0.340178 0.933593 0.140639
N1    N     N_R   0.222180 0.444680 0.455580 -0.102247
N2    N     N_R   0.776980 0.554790 0.543960 -0.134745
O1    O     O_R   0.366730 0.627160 0.478790 -0.621389
O2    O     O_R   0.544830 0.662520 0.507160 -0.604640
O3    O     O_R   0.410960 0.482330 0.609040 -0.611219
O4    O     O_R   0.589060 0.517690 0.637410 -0.615591
O5    O     O_R   0.455170 0.337480 0.492840 -0.621479
O6    O     O_R   0.633270 0.372840 0.521210 -0.626473
O7    O     O_R   0.410940 0.482310 0.362590 -0.608861
O8    O     O_R   0.589040 0.517670 0.390960 -0.640307
Zn1   Zn    Zn3+2 0.381080 0.476390 0.481050 0.938342
Zn2   Zn    Zn3+2 0.618920 0.523610 0.518950 0.921191
H7    H     H_    0.238347 0.784839 0.498851 0.171440
C43   C     C_3   0.366715 0.073352 0.621965 -0.931242
H8    H     H_    0.449589 0.093618 0.649811 0.247846
H9    H     H_    0.308366 0.142784 0.596144 0.247262
H10   H     H_    0.341486 0.042790 0.678590 0.245799
C44   C     C_3   0.173613 0.967235 0.561956 -0.928803
H11   H     H_    0.111261 0.916746 0.534901 0.231265
H12   H     H_    0.186599 0.965018 0.634121 0.242644
H13   H     H_    0.139546 0.046178 0.537223 0.249092
C45   C     C_3   0.559982 0.766728 0.356168 -0.846235
H14   H     H_    0.572295 0.805267 0.297541 0.222033
H15   H     H_    0.628340 0.702853 0.375530 0.268020
H16   H     H_    0.480596 0.736512 0.336435 0.217066
H17   H     H_    0.255165 0.331810 0.364333 0.135576
H18   H     H_    0.878841 0.325203 0.350258 0.152784
C46   C     C_3   0.554084 0.690358 0.076553 -0.950512
H19   H     H_    0.570315 0.741141 0.026783 0.244075
H20   H     H_    0.484600 0.728750 0.103315 0.246579
H21   H     H_    0.628479 0.674943 0.130265 0.249113
H22   H     H_    0.063609 0.636964 0.602348 0.136484
H23   H     H_    0.920721 0.717887 0.671619 0.149940
H24   H     H_    0.747614 0.408681 0.426085 0.216165
H25   H     H_    0.633396 0.360589 0.075983 0.141294
H26   H     H_    0.315684 0.479488 0.016449 0.143690
H27   H     H_    0.366843 0.644341 0.924114 0.136171
C47   C     C_3   0.806529 0.207856 0.539732 -0.885624
H28   H     H_    0.803046 0.263955 0.592736 0.261833
H29   H     H_    0.885216 0.155468 0.560122 0.229450
H30   H     H_    0.807893 0.245028 0.477884 0.242209
H31   H     H_    0.724863 0.868079 0.426718 0.153384
H32   H     H_    0.809236 0.011089 0.498114 0.139827

loop_
_geom_bond_atom_site_label_1
_geom_bond_atom_site_label_2
_ccdc_geom_bond_type
C44   H12   S    
C37   H17   S    
C3    C42   S    
O5    Zn1   S    
C19   C20   A    
C46   H21   S    
C4    C8    S    
C9    H32   S    
O3    Zn1   S    
C23   O6    A    
O4    Zn2   S    
C10   C22   A    
C26   C27   A    
C43   H8    S    
C30   C35   A    
C28   C29   A    
C46   H20   S    
C38   C42   S    
C26   N2    A    
C38   C39   S    
C47   H29   S    
C9    C22   A    
O7    Zn1   S    
C44   H13   S    
O8    Zn2   S    
C15   C16   A    
C14   C43   S    
C11   C24   A    
C18   C19   A    
C43   H9    S    
O2    Zn2   S    
C25   C37   A    
C2    C39   S    
C33   H18   S    
C2    C7    S    
C34   O7    A    
C7    C40   T    
C36   H4    S    
C45   H14   S    
C12   O3    A    
C25   C32   A    
C44   H11   S    
C30   N2    A    
C16   C24   A    
C13   C14   A    
C20   C45   S    
C34   C41   S    
C35   H24   S    
C13   C44   S    
C10   C21   A    
C5    H6    S    
C27   H23   S    
C46   H19   S    
C4    C6    S    
C47   H28   S    
C38   C46   S    
C3    C5    S    
C17   C21   A    
O6    Zn2   S    
C12   C40   S    
C29   C30   A    
C21   H2    S    
C37   N1    A    
C31   C32   A    
C16   C20   A    
C6    C39   S    
C45   H16   S    
C17   C18   A    
C42   H27   S    
C8    C41   T    
C1    O1    A    
C26   H5    S    
C4    C38   S    
C2    C5    S    
O1    Zn1   S    
C3    C4    S    
C25   H3    S    
C3    H26   S    
C15   C17   A    
C6    H25   S    
C43   H10   S    
C31   C36   A    
C11   H7    S    
C47   H30   S    
C39   H1    S    
C23   O5    A    
C10   C23   S    
N1    Zn1   S    
N2    Zn2   S    
C32   C33   A    
C29   C31   A    
C19   H31   S    
C11   C13   A    
C5    C6    S    
C2    C42   S    
C33   C35   A    
C22   C47   S    
C28   H22   S    
C1    O2    A    
C9    C18   A    
C1    C24   S    
C27   C28   A    
C34   O8    A    
C14   C15   A    
C45   H15   S    
C12   O4    A    
C36   N1    A    
