data_mof_unit_36497.cif
_audit_creation_date              2012-12-11T14:13:07-0500
_audit_creation_method            fapswitch 2.2
_symmetry_space_group_name_H-M    P1
_symmetry_Int_Tables_number       1
_space_group_crystal_system       triclinic
_cell_length_a                    11.717802
_cell_length_b                    18.410596
_cell_length_c                    9.9836
_cell_angle_alpha                 89.999621
_cell_angle_beta                  111.323885
_cell_angle_gamma                 90.000435
_cell_volume                      2006.33085431

loop_
_atom_site_label
_atom_site_type_symbol
_atom_type_description
_atom_site_fract_x
_atom_site_fract_y
_atom_site_fract_z
_atom_type_partial_charge
C1    C     C_R   0.075291 0.645145 0.140648 0.609435
C2    C     C_R   0.928917 0.353081 0.860886 0.601045
C3    C     C_R   0.928917 0.146920 0.860886 0.601058
C4    C     C_R   0.075286 0.854853 0.140646 0.609437
C5    C     C_R   0.391125 0.457183 0.471225 -0.029799
C6    C     C_R   0.604324 0.539998 0.514775 -0.017277
C7    C     C_R   0.604331 0.959998 0.514785 -0.017256
C8    C     C_R   0.391136 0.042809 0.471257 -0.029814
C9    C     C_2   0.415151 0.925446 0.923555 0.204665
C10   C     C_2   0.642239 0.061031 0.971988 0.230827
C11   C     C_2   0.642231 0.438970 0.972006 0.230831
C12   C     C_2   0.415158 0.574555 0.923560 0.204661
C13   C     C_2   0.533329 0.947427 0.979839 0.257908
C14   C     C_2   0.562300 0.024820 0.015312 0.265173
C15   C     C_2   0.562280 0.475170 0.015324 0.265157
C16   C     C_2   0.533331 0.552566 0.979890 0.257908
C17   C     C_2   0.024960 0.927501 0.118119 0.258478
C18   C     C_2   0.001090 0.080758 0.890827 0.288332
C19   C     C_2   0.001098 0.419241 0.890831 0.288333
C20   C     C_2   0.024974 0.572494 0.118126 0.258476
C21   C     C_2   0.065140 0.973007 0.040273 -0.079278
C22   C     C_2   0.026061 0.048201 0.018266 -0.035447
C23   C     C_2   0.026087 0.451793 0.018280 -0.035449
C24   C     C_2   0.065177 0.526984 0.040296 -0.079318
C25   C     C_R   0.469625 0.646725 0.443021 0.573678
C26   C     C_R   0.529684 0.352626 0.555648 0.598564
C27   C     C_R   0.529685 0.147372 0.555650 0.598577
C28   C     C_R   0.469627 0.853273 0.443024 0.573686
C29   C     C_R   0.378364 0.645531 0.961666 0.561617
C30   C     C_R   0.651057 0.359934 0.981888 0.599325
C31   C     C_R   0.651058 0.140067 0.981886 0.599345
C32   C     C_R   0.378364 0.854469 0.961663 0.561633
C33   C     C_R   0.500426 0.423008 0.479154 0.074409
C34   C     C_R   0.496118 0.574386 0.512535 0.036041
C35   C     C_R   0.496129 0.925608 0.512551 0.036064
C36   C     C_R   0.500431 0.076987 0.479170 0.074415
C37   C     C_R   0.278633 0.419067 0.428422 0.276290
C38   C     C_R   0.715596 0.578454 0.544911 0.313303
C39   C     C_R   0.715603 0.921543 0.544918 0.313299
C40   C     C_R   0.278643 0.080921 0.428464 0.276294
C41   C     C_R   0.176980 0.450259 0.446788 0.451220
C42   C     C_R   0.807794 0.549505 0.503892 0.496596
C43   C     C_R   0.807802 0.950495 0.503905 0.496580
C44   C     C_R   0.177001 0.049726 0.446848 0.451272
C45   C     C_R   0.185203 0.519785 0.503483 -0.014601
C46   C     C_R   0.795337 0.479902 0.445841 -0.037875
C47   C     C_R   0.795344 0.020098 0.445855 -0.037873
C48   C     C_R   0.185233 0.980201 0.503549 -0.014596
C49   C     C_R   0.292364 0.560002 0.534233 -0.120131
C50   C     C_R   0.694842 0.437413 0.437618 -0.104350
C51   C     C_R   0.694850 0.062586 0.437636 -0.104332
C52   C     C_R   0.292394 0.939987 0.534287 -0.120171
C53   C     C_R   0.394196 0.531121 0.508461 -0.053059
C54   C     C_R   0.599800 0.466096 0.477082 -0.011527
C55   C     C_R   0.599806 0.033901 0.477097 -0.011495
C56   C     C_R   0.394213 0.968871 0.508497 -0.053056
Cr1   Cr    Cr6+3 0.187610 0.750000 0.979860 1.176169
Cr2   Cr    Cr6+3 0.812390 0.250000 0.020140 1.148682
Cr3   Cr    Cr6+3 0.245810 0.750000 0.341640 1.081596
Cr4   Cr    Cr6+3 0.754190 0.250000 0.658360 1.101787
Cr5   Cr    Cr6+3 0.485760 0.750000 0.219910 1.198354
Cr6   Cr    Cr6+3 0.514240 0.250000 0.780090 1.196982
H1    H     H_    0.108126 0.543120 0.522708 0.265368
H2    H     H_    0.866255 0.457341 0.413287 0.249004
H3    H     H_    0.866261 0.042661 0.413299 0.249017
H4    H     H_    0.108163 0.956861 0.522779 0.265369
H5    H     H_    0.295748 0.612934 0.582537 0.181794
H6    H     H_    0.689307 0.383207 0.393757 0.198150
H7    H     H_    0.689316 0.116792 0.393776 0.198151
H8    H     H_    0.295785 0.887054 0.582589 0.181763
H9    H     H_    0.003696 0.074529 0.102975 0.209174
H10   H     H_    0.126748 0.953746 0.988830 0.202460
H11   H     H_    0.126808 0.546242 0.988871 0.202438
H12   H     H_    0.003727 0.425463 0.102992 0.209184
O1    O     O_R   0.267710 0.668200 0.902110 -0.476516
O2    O     O_R   0.732290 0.331800 0.097890 -0.472693
O3    O     O_R   0.732290 0.168200 0.097890 -0.472698
O4    O     O_R   0.267710 0.831800 0.902110 -0.476526
O5    O     O_R   0.099480 0.674460 0.038850 -0.486880
O6    O     O_R   0.900520 0.325540 0.961150 -0.522786
O7    O     O_R   0.900520 0.174460 0.961150 -0.522796
O8    O     O_R   0.099480 0.825540 0.038850 -0.486894
O9    O     O_R   0.116720 0.669210 0.267660 -0.475713
O10   O     O_R   0.883280 0.330790 0.732340 -0.456957
O11   O     O_R   0.883280 0.169210 0.732340 -0.456950
O12   O     O_R   0.116720 0.830790 0.267660 -0.475697
O13   O     O_R   0.366710 0.675440 0.427590 -0.529787
O14   O     O_R   0.633290 0.324560 0.572410 -0.513175
O15   O     O_R   0.633290 0.175440 0.572410 -0.513171
O16   O     O_R   0.366710 0.824560 0.427590 -0.529774
O17   O     O_R   0.534870 0.669390 0.371760 -0.453955
O18   O     O_R   0.465130 0.330610 0.628240 -0.464513
O19   O     O_R   0.465130 0.169390 0.628240 -0.464514
O20   O     O_R   0.534870 0.830610 0.371760 -0.453973
O21   O     O_R   0.453080 0.674480 0.075160 -0.467792
O22   O     O_R   0.546920 0.325520 0.924840 -0.438374
O23   O     O_R   0.546920 0.174480 0.924840 -0.438370
O24   O     O_R   0.453080 0.825520 0.075160 -0.467791
O25   O     O_3   0.306390 0.750000 0.180470 -0.321336
O26   O     O_3   0.693610 0.250000 0.819530 -0.365555
F1    F     F_    0.070322 0.412847 0.410427 -0.569841
F2    F     F_    0.910287 0.588703 0.522275 -0.539025
F3    F     F_    0.910299 0.911301 0.522295 -0.539037
F4    F     F_    0.070344 0.087134 0.410493 -0.569821
Cl1   Cl    Cl    0.257327 0.337342 0.331633 -0.402492
Cl2   Cl    Cl    0.746945 0.658990 0.647335 -0.342572
Cl3   Cl    Cl    0.746951 0.841005 0.647337 -0.342565
Cl4   Cl    Cl    0.257319 0.162640 0.331660 -0.402488
Cl5   Cl    Cl    0.486697 0.069159 0.117522 -0.540009
Cl6   Cl    Cl    0.655781 0.884161 0.033094 -0.396385
Cl7   Cl    Cl    0.655813 0.615818 0.033294 -0.396343
Cl8   Cl    Cl    0.486651 0.430821 0.117497 -0.539993
Cl9   Cl    Cl    0.713589 0.019813 0.863663 -0.593083
Cl10  Cl    Cl    0.298709 0.989022 0.844768 -0.528798
Cl11  Cl    Cl    0.298719 0.510986 0.844692 -0.528819
Cl12  Cl    Cl    0.713611 0.480207 0.863717 -0.593010
Cl13  Cl    Cl    0.025850 0.038310 0.746125 -0.458999
Cl14  Cl    Cl    0.928105 0.954925 0.208348 -0.477627
Cl15  Cl    Cl    0.928091 0.545074 0.208331 -0.477577
Cl16  Cl    Cl    0.025849 0.461696 0.746126 -0.459000

loop_
_geom_bond_atom_site_label_1
_geom_bond_atom_site_label_2
_ccdc_geom_bond_type
C14   Cl5   S    
C44   C48   A    
C5    C37   A    
C12   C29   S    
C3    O11   A    
Cr3   O25   S    
Cr1   O5    S    
C2    O10   A    
Cr5   O24   S    
C7    C55   A    
C8    C56   A    
C44   F4    S    
Cr2   O2    S    
Cr4   O15   S    
C39   Cl3   S    
C50   C54   A    
C9    Cl10  S    
C5    C53   A    
Cr3   O9    S    
C38   C42   A    
Cr6   O22   S    
C2    O6    A    
C42   C46   A    
C24   H11   S    
C4    O12   A    
C26   O18   A    
C15   C16   S    
Cr1   O25   S    
C25   O13   A    
C3    C18   S    
C28   O20   A    
C8    C36   A    
C9    C13   D    
C30   O22   A    
C9    C32   S    
C11   C15   D    
C10   C31   S    
C20   C24   D    
C28   C35   S    
C41   F1    S    
C5    C33   A    
C3    O7    A    
C23   C24   S    
C6    C38   A    
C40   C44   A    
Cr2   O3    S    
Cr2   O6    S    
C25   C34   S    
C40   Cl4   S    
C12   Cl11  S    
C35   C56   A    
C21   C22   S    
Cr5   O25   S    
C6    C54   A    
C42   F2    S    
C31   O3    A    
Cr3   O13   S    
Cr4   O14   S    
C25   O17   A    
C21   H10   S    
C15   Cl8   S    
C12   C16   D    
Cr2   O26   S    
C11   C30   S    
C10   C14   D    
Cr2   O7    S    
C29   O21   A    
Cr5   O20   S    
C39   C43   A    
C45   H1    S    
C17   C21   D    
C6    C34   A    
Cr6   O18   S    
Cr3   O16   S    
C38   Cl2   S    
C19   C23   D    
C37   Cl1   S    
C13   Cl6   S    
Cr6   O23   S    
C30   O2    A    
C26   C33   S    
C45   C49   A    
C11   Cl12  S    
C18   Cl13  S    
C10   Cl9   S    
C17   Cl14  S    
Cr6   O26   S    
C4    C17   S    
C19   Cl16  S    
C1    O5    A    
C27   O19   A    
C23   H12   S    
C22   H9    S    
C33   C54   A    
C1    C20   S    
C7    C39   A    
C49   H5    S    
C2    C19   S    
C18   C22   D    
C7    C35   A    
Cr1   O4    S    
Cr4   O26   S    
C47   C51   A    
Cr4   O11   S    
Cr5   O21   S    
C29   O1    A    
C27   C36   S    
C1    O9    A    
C8    C40   A    
C46   C50   A    
Cr1   O1    S    
Cr3   O12   S    
C36   C55   A    
Cr4   O10   S    
C50   H6    S    
C49   C53   A    
C32   O24   A    
C27   O15   A    
C51   C55   A    
C31   O23   A    
C37   C41   A    
C43   F3    S    
C52   H8    S    
C32   O4    A    
Cr5   O17   S    
C48   C52   A    
C4    O8    A    
C34   C53   A    
C26   O14   A    
Cr6   O19   S    
C46   H2    S    
C41   C45   A    
Cr1   O8    S    
C28   O16   A    
C51   H7    S    
C48   H4    S    
C13   C14   S    
C43   C47   A    
C47   H3    S    
C20   Cl15  S    
C52   C56   A    
C16   Cl7   S    
