data_mof_unit_54910.cif
_audit_creation_date              2012-10-26T19:23:04-0400
_audit_creation_method            fapswitch 2.2
_symmetry_space_group_name_H-M    P1
_symmetry_Int_Tables_number       1
_space_group_crystal_system       triclinic
_cell_length_a                    17.338212
_cell_length_b                    12.996153
_cell_length_c                    11.657163
_cell_angle_alpha                 99.890016
_cell_angle_beta                  88.484523
_cell_angle_gamma                 90.776127
_cell_volume                      2586.66115153

loop_
_atom_site_label
_atom_site_type_symbol
_atom_type_description
_atom_site_fract_x
_atom_site_fract_y
_atom_site_fract_z
_atom_type_partial_charge
C1    C     C_R   0.498701 0.299090 0.478767 0.540232
C2    C     C_R   0.502113 0.860664 0.433694 -0.131301
C3    C     C_R   0.498986 0.031290 0.555945 0.048693
C4    C     C_R   0.501011 0.968710 0.444055 0.048693
C5    C     C_R   0.428030 0.398471 0.031268 -0.027671
C6    C     C_R   0.571969 0.601531 0.968732 -0.027670
C7    C     C_R   0.435547 0.410084 0.153466 0.068145
C8    C     C_R   0.564453 0.589916 0.846534 0.068152
C9    C     C_R   0.530227 0.542829 0.153244 0.023484
C10   C     C_R   0.469773 0.457171 0.846756 0.023476
C11   C     C_R   0.525963 0.536655 0.030814 -0.007198
C12   C     C_R   0.501297 0.700910 0.521233 0.540241
C13   C     C_R   0.474037 0.463345 0.969186 -0.007200
C14   C     C_R   0.350850 0.503400 0.517264 0.545203
C15   C     C_R   0.649149 0.496588 0.482735 0.545206
C16   C     C_R   0.266749 0.505023 0.530184 0.029942
C17   C     C_R   0.733249 0.494922 0.469808 0.029945
C18   C     C_R   0.224789 0.441644 0.443594 -0.145099
C19   C     C_R   0.775226 0.558320 0.556358 -0.145103
C20   C     C_R   0.144930 0.439242 0.449745 -0.116276
C21   C     C_R   0.855086 0.560673 0.550200 -0.116279
C22   C     C_R   0.105419 0.501327 0.542254 0.026655
C23   C     C_R   0.501148 0.814327 0.533637 -0.004061
C24   C     C_R   0.894579 0.498525 0.457721 0.026648
C25   C     C_R   0.146549 0.562801 0.630736 -0.100971
C26   C     C_R   0.853433 0.437024 0.369279 -0.100962
C27   C     C_R   0.227318 0.567020 0.625762 0.008419
C28   C     C_R   0.772664 0.432849 0.374267 0.008419
C29   C     C_2   0.020957 0.504673 0.548090 -0.135615
C30   C     C_2   0.979040 0.495148 0.451873 -0.135621
C31   C     C_3   0.372318 0.318391 0.966300 -0.300097
C32   C     C_3   0.326260 0.251635 0.040543 -0.455708
C33   C     C_3   0.627678 0.681613 0.033701 -0.300098
C34   C     C_R   0.498849 0.185673 0.466364 -0.004065
C35   C     C_3   0.673732 0.748375 0.959458 -0.455708
C36   C     C_3   0.732048 0.358136 0.279842 -0.271557
C37   C     C_3   0.698701 0.263453 0.326223 -0.412511
C38   C     C_3   0.267912 0.641685 0.720260 -0.271524
C39   C     C_3   0.301262 0.736424 0.673993 -0.412515
C40   C     C_R   0.501826 0.015118 0.344285 -0.141653
C41   C     C_R   0.498171 0.984881 0.655715 -0.141649
C42   C     C_R   0.500677 0.123255 0.355377 -0.145594
C43   C     C_R   0.499319 0.876745 0.644624 -0.145587
C44   C     C_R   0.497884 0.139336 0.566307 -0.131305
Cu1   Cu    Cu3+1 0.505800 0.507690 0.615350 0.913983
Cu2   Cu    Cu3+1 0.494200 0.492310 0.384650 0.913989
H1    H     H_    0.254032 0.392798 0.371137 0.113546
H2    H     H_    0.114380 0.388055 0.382470 0.104667
H3    H     H_    0.503756 0.812884 0.347689 0.116849
H4    H     H_    0.496242 0.187116 0.652312 0.116850
H5    H     H_    0.498349 0.842101 0.722797 0.125526
H6    H     H_    0.501646 0.157899 0.277203 0.125525
H7    H     H_    0.503434 0.967933 0.258035 0.099953
H8    H     H_    0.496562 0.032067 0.741965 0.099953
H9    H     H_    0.430819 0.402954 0.796135 0.119803
H10   H     H_    0.569181 0.597046 0.203864 0.119809
H11   H     H_    0.365700 0.205063 0.084602 0.141767
H12   H     H_    0.745997 0.607216 0.628788 0.113533
H13   H     H_    0.289062 0.301619 0.105933 0.142218
H14   H     H_    0.288363 0.196521 0.983533 0.142708
H15   H     H_    0.330198 0.360124 0.921015 0.142077
H16   H     H_    0.405649 0.264234 0.899408 0.136890
H17   H     H_    0.710933 0.698395 0.894069 0.142224
H18   H     H_    0.634290 0.794943 0.915398 0.141766
H19   H     H_    0.711626 0.803492 0.016470 0.142707
H20   H     H_    0.594345 0.735768 0.100592 0.136888
H21   H     H_    0.669800 0.639884 0.078986 0.142087
H22   H     H_    0.656685 0.287394 0.398815 0.169664
H23   H     H_    0.598051 0.637156 0.795736 0.135534
H24   H     H_    0.668723 0.211233 0.255400 0.133591
H25   H     H_    0.745780 0.219159 0.357738 0.145556
H26   H     H_    0.686630 0.398405 0.239711 0.173513
H27   H     H_    0.773099 0.328508 0.207136 0.122559
H28   H     H_    0.331195 0.788625 0.744884 0.133565
H29   H     H_    0.343319 0.712548 0.601442 0.169698
H30   H     H_    0.254191 0.780719 0.642460 0.145553
H31   H     H_    0.226847 0.671257 0.792969 0.122554
H32   H     H_    0.313325 0.601391 0.760371 0.173490
H33   H     H_    0.401948 0.362845 0.204263 0.135529
H34   H     H_    0.006882 0.480967 0.366144 0.115157
H35   H     H_    0.993109 0.518851 0.633814 0.115162
H36   H     H_    0.115160 0.610567 0.701769 0.095295
H37   H     H_    0.884807 0.389202 0.298274 0.095305
H38   H     H_    0.885654 0.611873 0.617444 0.104680
N1    N     N_R   0.514530 0.519260 0.788680 -0.247662
N2    N     N_R   0.485470 0.480740 0.211320 -0.247666
O1    O     O_R   0.504120 0.354440 0.581590 -0.506865
O2    O     O_R   0.495880 0.645560 0.418410 -0.506855
O3    O     O_R   0.494320 0.341440 0.386760 -0.514398
O4    O     O_R   0.505680 0.658560 0.613240 -0.514408
O5    O     O_R   0.391870 0.507230 0.608700 -0.511282
O6    O     O_R   0.608130 0.492770 0.391300 -0.511280
O7    O     O_R   0.382070 0.494240 0.413880 -0.506133
O8    O     O_R   0.617930 0.505760 0.586120 -0.506130

loop_
_geom_bond_atom_site_label_1
_geom_bond_atom_site_label_2
_ccdc_geom_bond_type
C1    O1    A    
C10   N1    A    
C26   H37   S    
C22   C29   S    
C31   H15   S    
C2    C4    A    
C34   C42   A    
C18   H1    S    
C15   O8    A    
Cu2   O3    S    
Cu1   Cu2   S    
C12   C23   S    
C8    H23   S    
C12   O4    A    
C36   C37   S    
Cu1   O1    S    
C24   C26   A    
C38   C39   S    
C7    N2    A    
Cu2   O6    S    
C35   H19   S    
C27   C38   S    
C37   H22   S    
C23   C43   A    
C8    N1    A    
C39   H28   S    
C17   C19   A    
C15   O6    A    
C4    C40   A    
C22   C25   A    
C1    C34   S    
C35   H18   S    
C39   H29   S    
C14   O7    A    
C5    C13   A    
C30   H34   S    
C16   C27   A    
C40   C42   A    
C37   H24   S    
C41   C43   A    
C31   H16   S    
C32   H11   S    
Cu1   O8    S    
C33   H20   S    
Cu2   O2    S    
C19   H12   S    
C14   O5    A    
C3    C44   A    
C12   O2    A    
C34   C44   A    
C6    C11   A    
C5    C7    A    
C6    C8    A    
C38   H32   S    
Cu1   N1    S    
C29   H35   S    
C29   C30   D    
Cu1   O4    S    
C2    H3    S    
C9    N2    A    
C31   C32   S    
C21   H38   S    
C9    H10   S    
C39   H30   S    
C10   H9    S    
C9    C11   A    
C20   H2    S    
C20   C22   A    
C37   H25   S    
C25   H36   S    
C14   C16   S    
C32   H14   S    
C3    C4    A    
C33   H21   S    
C7    H33   S    
C44   H4    S    
C15   C17   S    
C3    C41   A    
C1    O3    A    
C19   C21   A    
C17   C28   A    
C10   C13   A    
C38   H31   S    
C25   C27   A    
C26   C28   A    
C6    C33   S    
C11   C13   A    
C43   H5    S    
Cu2   O7    S    
C33   C35   S    
C18   C20   A    
Cu1   O5    S    
C24   C30   S    
C41   H8    S    
C36   H27   S    
C28   C36   S    
C16   C18   A    
C40   H7    S    
C21   C24   A    
C2    C23   A    
C35   H17   S    
C32   H13   S    
Cu2   N2    S    
C36   H26   S    
C42   H6    S    
C5    C31   S    
