data_mof_unit_23540.cif
_audit_creation_date              2012-10-26T19:22:52-0400
_audit_creation_method            fapswitch 2.2
_symmetry_space_group_name_H-M    P1
_symmetry_Int_Tables_number       1
_space_group_crystal_system       triclinic
_cell_length_a                    17.230492
_cell_length_b                    13.009056
_cell_length_c                    11.858594
_cell_angle_alpha                 99.362453
_cell_angle_beta                  88.400756
_cell_angle_gamma                 93.088319
_cell_volume                      2618.42020156

loop_
_atom_site_label
_atom_site_type_symbol
_atom_type_description
_atom_site_fract_x
_atom_site_fract_y
_atom_site_fract_z
_atom_type_partial_charge
C1    C     C_R   0.498280 0.300015 0.480363 0.579358
C2    C     C_R   0.455903 0.866870 0.489754 0.230901
C3    C     C_R   0.539187 0.026287 0.517776 -0.044387
C4    C     C_R   0.464899 0.975716 0.495539 -0.068539
C5    C     C_R   0.416738 0.411146 0.036420 -0.009795
C6    C     C_R   0.548121 0.625601 0.972944 -0.040551
C7    C     C_R   0.433540 0.408348 0.151938 0.108014
C8    C     C_R   0.553015 0.605844 0.851308 0.117460
C9    C     C_R   0.528270 0.547230 0.152009 0.398228
C10   C     C_R   0.470370 0.451953 0.847785 0.396219
C11   C     C_R   0.514550 0.548527 0.032584 -0.058330
C12   C     C_R   0.503238 0.699818 0.519658 0.593265
C13   C     C_R   0.466457 0.469925 0.971162 -0.030127
C14   C     C_R   0.350916 0.504477 0.516223 0.547398
C15   C     C_R   0.649019 0.497186 0.484013 0.561644
C16   C     C_R   0.266852 0.519066 0.525948 0.028642
C17   C     C_R   0.733677 0.492919 0.475076 0.025876
C18   C     C_R   0.231349 0.575857 0.451197 0.287789
C19   C     C_R   0.773772 0.438123 0.546730 0.287722
C20   C     C_R   0.151638 0.591292 0.462534 -0.100285
C21   C     C_R   0.854468 0.433055 0.534799 -0.096772
C22   C     C_R   0.106507 0.544602 0.541600 0.006062
C23   C     C_R   0.516279 0.811853 0.523870 -0.020750
C24   C     C_R   0.895454 0.488469 0.458856 0.009071
C25   C     C_R   0.141196 0.487105 0.614332 -0.139412
C26   C     C_R   0.856070 0.546476 0.391521 -0.145283
C27   C     C_R   0.220911 0.474563 0.606608 -0.197774
C28   C     C_R   0.775497 0.548962 0.400213 -0.209396
C29   C     C_2   0.021661 0.548029 0.541572 0.010377
C30   C     C_2   0.980501 0.490463 0.455245 0.010905
C31   C     C_3   0.256564 0.568867 0.260672 -0.123812
C32   C     C_3   0.749218 0.439176 0.736335 -0.123139
C33   C     C_3   0.603723 0.682768 0.795694 -0.334298
C34   C     C_R   0.487398 0.187745 0.477837 -0.023062
C35   C     C_3   0.398662 0.316806 0.203013 -0.330886
C36   C     C_3   0.335574 0.375364 0.997382 -0.394328
C37   C     C_3   0.572252 0.732970 0.037375 -0.375880
C38   C     C_3   0.019025 0.423493 0.355348 -0.398995
C39   C     C_3   0.982860 0.614697 0.641397 -0.400949
C40   C     C_3   0.389018 0.803319 0.327255 -0.010372
C41   C     C_3   0.610900 0.209817 0.680134 -0.027626
C42   C     C_3   0.661480 0.793085 0.540686 -0.375640
C43   C     C_3   0.342413 0.196399 0.437978 -0.381532
C44   C     C_3   0.297277 0.991288 0.586983 -0.083924
C45   C     C_R   0.400714 0.034551 0.477958 0.280620
C46   C     C_3   0.717082 0.012612 0.639062 -0.100670
C47   C     C_3   0.372889 0.351114 0.744804 -0.076265
C48   C     C_3   0.660298 0.566287 0.161293 -0.125916
C49   C     C_R   0.603378 0.967597 0.537619 0.292142
C50   C     C_R   0.412525 0.138681 0.462344 -0.063671
C51   C     C_R   0.591809 0.859130 0.538675 -0.063861
C52   C     C_R   0.547708 0.135117 0.518208 0.265527
Cu1   Cu    Cu3+1 0.505800 0.507690 0.615350 0.967556
Cu2   Cu    Cu3+1 0.494200 0.492310 0.384650 0.996959
H1    H     H_    0.746123 0.598698 0.353054 0.120534
H2    H     H_    0.741224 0.524560 0.744663 0.111011
H3    H     H_    0.808786 0.424980 0.761861 0.090089
H4    H     H_    0.707567 0.408557 0.797285 0.120683
H5    H     H_    0.658311 0.703073 0.843694 0.068623
H6    H     H_    0.623894 0.653270 0.709543 0.180464
H7    H     H_    0.572709 0.755192 0.794551 0.125920
H8    H     H_    0.359153 0.263879 0.145534 0.076238
H9    H     H_    0.445059 0.264730 0.216122 0.157886
H10   H     H_    0.364000 0.342959 0.280305 0.154590
H11   H     H_    0.293704 0.380832 0.070698 0.098282
H12   H     H_    0.245271 0.425982 0.660066 0.087719
H13   H     H_    0.312394 0.428936 0.944867 0.111388
H14   H     H_    0.334278 0.292862 0.955284 0.144211
H15   H     H_    0.553145 0.794978 0.991864 0.107270
H16   H     H_    0.543461 0.748924 0.122818 0.166474
H17   H     H_    0.636292 0.741179 0.046587 0.140239
H18   H     H_    0.974943 0.377817 0.298474 0.132864
H19   H     H_    0.054569 0.473124 0.303786 0.113153
H20   H     H_    0.056512 0.367649 0.386555 0.134260
H21   H     H_    0.026798 0.659129 0.699496 0.129583
H22   H     H_    0.946400 0.671574 0.610026 0.132596
H23   H     H_    0.106128 0.449335 0.674519 0.116591
H24   H     H_    0.946131 0.565053 0.691546 0.114399
H25   H     H_    0.328274 0.790715 0.297729 0.173271
H26   H     H_    0.421708 0.735131 0.287412 0.142552
H27   H     H_    0.413294 0.874154 0.294482 0.085886
H28   H     H_    0.584713 0.142897 0.718357 0.068753
H29   H     H_    0.578915 0.280255 0.712506 0.193483
H30   H     H_    0.670591 0.225309 0.712851 0.142129
H31   H     H_    0.648402 0.709324 0.510279 0.127019
H32   H     H_    0.683333 0.801402 0.628884 0.096656
H33   H     H_    0.708225 0.816686 0.482364 0.163638
H34   H     H_    0.887866 0.591652 0.334676 0.118599
H35   H     H_    0.294890 0.186791 0.500992 0.138534
H36   H     H_    0.354221 0.281273 0.444707 0.101547
H37   H     H_    0.321243 0.164801 0.351036 0.146086
H38   H     H_    0.299482 0.071420 0.637386 0.076619
H39   H     H_    0.329766 0.938773 0.631661 0.145787
H40   H     H_    0.235577 0.962068 0.583759 0.138759
H41   H     H_    0.761119 0.952542 0.626335 0.109198
H42   H     H_    0.677681 0.001321 0.712763 0.078030
H43   H     H_    0.750347 0.088073 0.661988 0.144035
H44   H     H_    0.375870 0.330209 0.651113 0.155828
H45   H     H_    0.885450 0.388196 0.586766 0.112091
H46   H     H_    0.343110 0.425265 0.768340 0.109032
H47   H     H_    0.336208 0.286416 0.771156 0.081543
H48   H     H_    0.672677 0.495078 0.196615 0.147824
H49   H     H_    0.707492 0.626688 0.184269 0.114886
H50   H     H_    0.662802 0.547181 0.066485 0.087546
H51   H     H_    0.124443 0.637011 0.407432 0.113092
H52   H     H_    0.199642 0.592646 0.234539 0.093152
H53   H     H_    0.256227 0.482450 0.254447 0.108364
H54   H     H_    0.301444 0.591521 0.199150 0.128998
N1    N     N_R   0.514530 0.519260 0.788680 -0.226114
N2    N     N_R   0.485470 0.480740 0.211320 -0.221853
O1    O     O_R   0.504120 0.354440 0.581590 -0.461594
O2    O     O_3   0.733519 0.386319 0.624922 -0.529591
O3    O     O_3   0.388471 0.812413 0.448065 -0.498632
O4    O     O_3   0.614581 0.191445 0.558940 -0.483213
O5    O     O_3   0.325553 0.990608 0.473911 -0.529849
O6    O     O_3   0.678230 0.013469 0.535549 -0.505888
O7    O     O_3   0.447504 0.353218 0.791516 -0.570689
O8    O     O_3   0.589205 0.606635 0.206889 -0.546452
O9    O     O_R   0.495880 0.645560 0.418410 -0.448006
O10   O     O_R   0.494320 0.341440 0.386760 -0.530138
O11   O     O_R   0.505680 0.658560 0.613240 -0.529980
O12   O     O_R   0.391870 0.507230 0.608700 -0.528208
O13   O     O_R   0.608130 0.492770 0.391300 -0.483537
O14   O     O_R   0.382070 0.494240 0.413880 -0.483725
O15   O     O_R   0.617930 0.505760 0.586120 -0.495022
O16   O     O_3   0.275597 0.620651 0.371229 -0.531022

loop_
_geom_bond_atom_site_label_1
_geom_bond_atom_site_label_2
_ccdc_geom_bond_type
Cu2   O13   S    
C47   H47   S    
C22   C29   S    
C37   H15   S    
C11   C13   A    
C31   H54   S    
C32   H4    S    
C41   O4    S    
C3    C49   A    
C36   H13   S    
C19   O2    S    
C12   C23   S    
C30   C38   S    
C43   H35   S    
C47   H44   S    
C15   O13   A    
C14   O12   A    
C19   C21   A    
C24   C26   A    
Cu2   O10   S    
Cu1   O12   S    
C21   H45   S    
C2    O3    S    
C48   H50   S    
C5    C36   S    
Cu2   N2    S    
C10   N1    A    
C44   H39   S    
C12   O11   A    
C44   O5    S    
C6    C37   S    
C49   C51   A    
C22   C25   A    
C40   H26   S    
C35   H10   S    
C42   H32   S    
C39   H21   S    
C5    C13   A    
C44   H38   S    
C42   C51   S    
Cu1   O1    S    
C16   C27   A    
C33   H5    S    
Cu2   O9    S    
C9    O8    S    
C7    C35   S    
C32   H3    S    
C28   H1    S    
C1    C34   S    
C4    C45   A    
C38   H18   S    
C34   C50   A    
C43   H36   S    
C14   O14   A    
C46   H41   S    
C39   H24   S    
C6    C11   A    
C5    C7    A    
C36   H11   S    
C6    C8    A    
Cu1   Cu2   S    
C48   H49   S    
C43   H37   S    
C47   H46   S    
C1    O10   A    
C2    C4    A    
C29   C30   D    
C12   O9    A    
C45   O5    S    
C23   C51   A    
C40   O3    S    
C48   H48   S    
C29   C39   S    
C40   H25   S    
C42   H31   S    
C39   H22   S    
C9    C11   A    
Cu1   O15   S    
C26   H34   S    
C46   H43   S    
C20   C22   A    
C33   H6    S    
C37   H17   S    
C31   H52   S    
C25   H23   S    
C3    C4    A    
C34   C52   A    
C20   H51   S    
C38   H20   S    
Cu1   N1    S    
C9    N2    A    
C15   C17   S    
Cu2   O14   S    
C32   O2    S    
C17   C28   A    
C31   H53   S    
C40   H27   S    
C10   C13   A    
C18   C20   A    
C48   O8    S    
C3    C52   A    
C36   H14   S    
C43   C50   S    
C52   O4    S    
C25   C27   A    
C26   C28   A    
C7    N2    A    
C46   O6    S    
C27   H12   S    
Cu1   O11   S    
C8    N1    A    
C18   O16   S    
C41   H30   S    
C45   C50   A    
C33   H7    S    
C41   H28   S    
C17   C19   A    
C35   H8    S    
C14   C16   S    
C8    C33   S    
C24   C30   S    
C44   H40   S    
C47   O7    S    
C49   O6    S    
C46   H42   S    
C16   C18   A    
C15   O15   A    
C21   C24   A    
C2    C23   A    
C10   O7    S    
C35   H9    S    
C42   H33   S    
C31   O16   S    
C37   H16   S    
C32   H2    S    
C1    O1    A    
C38   H19   S    
C41   H29   S    
