data_mof_unit_61915.cif
_audit_creation_date              2012-12-10T21:09:51-0500
_audit_creation_method            fapswitch 2.2
_symmetry_space_group_name_H-M    P1
_symmetry_Int_Tables_number       1
_space_group_crystal_system       triclinic
_cell_length_a                    12.952988
_cell_length_b                    17.588058
_cell_length_c                    16.81546
_cell_angle_alpha                 88.910606
_cell_angle_beta                  98.142127
_cell_angle_gamma                 90.333068
_cell_volume                      3791.54266298

loop_
_atom_site_label
_atom_site_type_symbol
_atom_type_description
_atom_site_fract_x
_atom_site_fract_y
_atom_site_fract_z
_atom_type_partial_charge
C1    C     C_R   0.499549 0.353660 0.500664 0.951325
C2    C     C_R   0.496931 0.114137 0.498309 -0.049319
C3    C     C_1   0.498476 0.966065 0.494296 0.050148
C4    C     C_1   0.497823 0.033606 0.495721 0.051028
C5    C     C_R   0.444890 0.444762 0.827675 0.051393
C6    C     C_R   0.567106 0.546952 0.173459 0.049876
C7    C     C_R   0.444669 0.446132 0.743370 0.044096
C8    C     C_R   0.565591 0.547070 0.257549 0.036731
C9    C     C_R   0.552777 0.555195 0.752124 -0.011658
C10   C     C_R   0.433017 0.453555 0.246339 -0.013076
C11   C     C_R   0.552592 0.557725 0.835815 0.095688
C12   C     C_R   0.500135 0.646201 0.499368 0.961695
C13   C     C_R   0.429003 0.453276 0.162134 0.097515
C14   C     C_R   0.498974 0.501479 0.875359 -0.001499
C15   C     C_R   0.497466 0.499937 0.124143 -0.003629
C16   C     C_R   0.297439 0.499854 0.483195 0.944225
C17   C     C_R   0.702676 0.499256 0.516835 0.940385
C18   C     C_1   0.498193 0.501525 0.963218 0.105268
C19   C     C_1   0.496956 0.500419 0.036130 0.104530
C20   C     C_R   0.815765 0.497126 0.528876 -0.117047
C21   C     C_R   0.184543 0.498669 0.470973 -0.113300
C22   C     C_R   0.014745 0.510796 0.390941 -0.054290
C23   C     C_R   0.499688 0.728027 0.497990 -0.177719
C24   C     C_R   0.985628 0.482268 0.608622 -0.056259
C25   C     C_R   0.123293 0.512112 0.395366 0.157017
C26   C     C_R   0.877392 0.488351 0.605171 0.157271
C27   C     C_R   0.137826 0.485188 0.539575 -0.244657
C28   C     C_R   0.862333 0.503267 0.459284 -0.245111
C29   C     C_R   0.031081 0.488816 0.537115 0.086762
C30   C     C_R   0.969086 0.500726 0.461996 0.086369
C31   C     C_R   0.594745 0.846659 0.507210 -0.056165
C32   C     C_R   0.415939 0.154662 0.451922 -0.058959
C33   C     C_R   0.595002 0.767362 0.510995 0.074142
C34   C     C_R   0.497444 0.271602 0.501767 -0.183656
C35   C     C_R   0.414904 0.233844 0.454877 0.082259
C36   C     C_1   0.950922 0.521424 0.313340 0.239423
C37   C     C_1   0.049663 0.470729 0.686036 0.239466
C38   C     C_1   0.692667 0.887878 0.516682 0.292449
C39   C     C_1   0.334080 0.115313 0.400835 0.290079
C40   C     C_1   0.382827 0.391272 0.694833 0.309964
C41   C     C_1   0.632851 0.598617 0.306298 0.306363
C42   C     C_R   0.403952 0.766671 0.484647 0.082306
C43   C     C_R   0.578741 0.231022 0.548183 0.085954
C44   C     C_R   0.403663 0.846193 0.483627 0.176715
C45   C     C_R   0.577238 0.151498 0.547588 0.170959
C46   C     C_R   0.499123 0.885457 0.494120 -0.050246
H1    H     H_    0.814352 0.511154 0.401737 0.179694
H2    H     H_    0.185950 0.473588 0.596415 0.178368
H3    H     H_    0.594724 0.598159 0.722594 0.178787
H4    H     H_    0.380856 0.417263 0.274799 0.187096
I1    I     I_    0.633207 0.649255 0.896355 -0.193164
I2    I     I_    0.695492 0.086829 0.620857 -0.199537
I3    I     I_    0.363497 0.356114 0.881247 -0.209965
I4    I     I_    0.675759 0.618063 0.122762 -0.213015
I5    I     I_    0.315569 0.382367 0.097879 -0.186479
I6    I     I_    0.815240 0.485687 0.717618 -0.210379
I7    I     I_    0.186991 0.539471 0.286523 -0.217981
I8    I     I_    0.739354 0.707401 0.539710 -0.277953
I9    I     I_    0.285230 0.295572 0.391427 -0.293097
I10   I     I_    0.260514 0.704356 0.468484 -0.233516
I11   I     I_    0.706963 0.289972 0.614783 -0.217717
I12   I     I_    0.259853 0.907831 0.467905 -0.200476
N1    N     N_R   0.500030 0.500030 0.707230 -0.136745
N2    N     N_R   0.499970 0.499970 0.292770 -0.137919
N3    N     N_1   0.899915 0.529771 0.251497 -0.125224
N4    N     N_1   0.100947 0.461515 0.747653 -0.128988
N5    N     N_1   0.771098 0.920583 0.523992 -0.110558
N6    N     N_1   0.268684 0.084130 0.359741 -0.113186
N7    N     N_1   0.332524 0.347061 0.656411 -0.169340
N8    N     N_1   0.687268 0.640537 0.344598 -0.158909
O1    O     O_R   0.500000 0.389130 0.566570 -0.606757
O2    O     O_R   0.500000 0.610870 0.433430 -0.605218
O3    O     O_R   0.499990 0.389100 0.433480 -0.607513
O4    O     O_R   0.500010 0.610900 0.566520 -0.610871
O5    O     O_R   0.346360 0.500000 0.555540 -0.635419
O6    O     O_R   0.653640 0.500000 0.444460 -0.639521
O7    O     O_R   0.346350 0.499970 0.422460 -0.592115
O8    O     O_R   0.653650 0.500030 0.577540 -0.587259
Zn1   Zn    Zn3+2 0.500000 0.500020 0.588860 1.007166
Zn2   Zn    Zn3+2 0.500000 0.499980 0.411140 1.002905

loop_
_geom_bond_atom_site_label_1
_geom_bond_atom_site_label_2
_ccdc_geom_bond_type
C27   H2    S    
C28   H1    S    
C33   I8    S    
C12   O4    A    
C27   C29   A    
C16   O5    A    
C39   N6    T    
C14   C18   S    
O1    Zn1   S    
N1    Zn1   S    
C15   C19   S    
C12   C23   S    
C1    O1    A    
C23   C42   A    
C25   I7    S    
C2    C32   A    
C5    I3    S    
C24   C26   A    
C16   O7    A    
C11   C14   A    
C17   C20   S    
C35   I9    S    
C34   C35   A    
C32   C39   S    
C24   C29   A    
C6    C15   A    
C23   C33   A    
C22   C25   A    
C17   O6    A    
C7    C40   S    
C31   C33   A    
C21   C27   A    
C9    N1    A    
N2    Zn2   S    
C42   C44   A    
C6    I4    S    
C44   C46   A    
C1    C34   S    
C2    C45   A    
C40   N7    T    
C32   C35   A    
C9    H3    S    
C8    C41   S    
C42   I10   S    
C5    C7    A    
C36   N3    T    
C18   C19   T    
C6    C8    A    
C20   C28   A    
C45   I2    S    
C44   I12   S    
C31   C46   A    
C2    C4    S    
C29   C30   A    
C43   C45   A    
C37   N4    T    
C24   C37   S    
C9    C11   A    
C7    N1    A    
C5    C14   A    
C8    N2    A    
O4    Zn1   S    
C13   C15   A    
C3    C4    T    
C10   H4    S    
C43   I11   S    
O7    Zn2   S    
C21   C25   A    
C22   C30   A    
O8    Zn1   S    
C10   N2    A    
C34   C43   A    
O6    Zn2   S    
C10   C13   A    
C26   I6    S    
C16   C21   S    
C22   C36   S    
C3    C46   S    
C31   C38   S    
C1    O3    A    
C28   C30   A    
O2    Zn2   S    
C20   C26   A    
C17   O8    A    
O3    Zn2   S    
C12   O2    A    
C11   I1    S    
C38   N5    T    
O5    Zn1   S    
C41   N8    T    
C13   I5    S    
