data_mof_unit_30364.cif
_audit_creation_date              2012-10-26T18:43:49-0400
_audit_creation_method            fapswitch 2.2
_symmetry_space_group_name_H-M    P1
_symmetry_Int_Tables_number       1
_space_group_crystal_system       triclinic
_cell_length_a                    9.537837
_cell_length_b                    10.820037
_cell_length_c                    17.3042
_cell_angle_alpha                 90.138055
_cell_angle_beta                  85.035722
_cell_angle_gamma                 90.053301
_cell_volume                      1779.08469441

loop_
_atom_site_label
_atom_site_type_symbol
_atom_type_description
_atom_site_fract_x
_atom_site_fract_y
_atom_site_fract_z
_atom_type_partial_charge
C1    C     C_R   0.499836 0.737687 0.501579 0.548478
C2    C     C_R   0.532618 0.508638 0.265545 0.017994
C3    C     C_R   0.372812 0.936238 0.509921 0.016546
C4    C     C_R   0.480281 0.500722 0.650161 0.546260
C5    C     C_R   0.498859 0.870765 0.509462 0.007515
C6    C     C_R   0.623602 0.935734 0.519899 -0.161002
C7    C     C_R   0.623604 0.064590 0.519660 -0.162924
C8    C     C_R   0.498857 0.129186 0.508998 0.007537
C9    C     C_R   0.372844 0.063432 0.509573 0.026159
C10   C     C_3   0.259691 0.069160 0.455159 -0.270508
C11   C     C_3   0.259260 0.928848 0.455813 -0.267045
C12   C     C_R   0.350147 0.545987 0.781169 -0.005845
C13   C     C_R   0.932051 0.408764 0.462505 0.157233
C14   C     C_R   0.918906 0.583094 0.542907 -0.012392
C15   C     C_R   0.067851 0.583167 0.542864 -0.020557
C16   C     C_R   0.499822 0.262279 0.501313 0.549148
C17   C     C_R   0.079549 0.408716 0.462502 0.159805
C18   C     C_3   0.098290 0.379468 0.377967 -0.276078
C19   C     C_3   0.939410 0.379972 0.378047 -0.283872
C20   C     C_R   0.519438 0.501185 0.350028 0.544190
C21   C     C_R   0.467808 0.496832 0.735238 0.027429
C22   C     C_R   0.578459 0.442420 0.771461 -0.149066
C23   C     C_R   0.437002 0.570712 0.146795 -0.133262
C24   C     C_R   0.575040 0.438180 0.851593 -0.067583
C25   C     C_R   0.461536 0.489601 0.897044 0.058226
C26   C     C_R   0.348337 0.540413 0.862098 -0.099719
C27   C     C_3   0.228997 0.608209 0.746319 -0.383671
C28   C     C_R   0.423663 0.560757 0.227096 -0.133619
C29   C     C_R   0.655149 0.466845 0.222840 -0.133326
C30   C     C_R   0.668155 0.476104 0.142391 -0.128977
C31   C     C_R   0.558805 0.527286 0.103973 0.025706
C32   C     C_2   0.459360 0.490934 0.981620 -0.074105
C33   C     C_2   0.569607 0.529871 0.018544 0.227039
Cu1   Cu    Cu3+1 0.359330 0.500020 0.500000 0.930791
Cu2   Cu    Cu3+1 0.640670 0.499980 0.500000 0.934112
H1    H     H_    0.668080 0.402320 0.737647 0.127500
H2    H     H_    0.118558 0.652071 0.576280 0.109527
H3    H     H_    0.148926 0.455595 0.342739 0.152316
H4    H     H_    0.329094 0.595283 0.259124 0.116153
H5    H     H_    0.145342 0.286735 0.366353 0.117860
H6    H     H_    0.900724 0.457321 0.343625 0.148264
H7    H     H_    0.894449 0.287668 0.366355 0.121671
H8    H     H_    0.739469 0.424814 0.251377 0.110972
H9    H     H_    0.260375 0.578715 0.898268 0.104678
H10   H     H_    0.352274 0.612238 0.118071 0.101380
H11   H     H_    0.361980 0.463441 0.014398 0.065453
H12   H     H_    0.761951 0.440656 0.110053 0.115139
H13   H     H_    0.661111 0.394656 0.878116 0.153866
H14   H     H_    0.755251 0.604522 0.013403 0.321369
H15   H     H_    0.168949 0.539302 0.714853 0.154729
H16   H     H_    0.154488 0.651182 0.791454 0.118949
H17   H     H_    0.268974 0.682569 0.706090 0.138529
H18   H     H_    0.722136 0.887700 0.524423 0.129386
H19   H     H_    0.722152 0.112862 0.524054 0.134076
H20   H     H_    0.160915 0.110214 0.482843 0.136908
H21   H     H_    0.297335 0.108799 0.397846 0.131204
H22   H     H_    0.160475 0.888893 0.484206 0.132855
H23   H     H_    0.295949 0.887071 0.398838 0.140070
H24   H     H_    0.857845 0.651872 0.576439 0.115679
N1    N     N_R   0.852130 0.499070 0.499500 -0.230931
N2    N     N_R   0.148040 0.499110 0.499500 -0.231175
O1    O     O_R   0.381190 0.680360 0.500000 -0.506748
O2    O     O_R   0.618770 0.680320 0.499990 -0.510274
O3    O     O_R   0.367430 0.500040 0.613600 -0.505942
O4    O     O_R   0.605020 0.500000 0.613590 -0.507239
O5    O     O_R   0.381230 0.319680 0.500010 -0.494373
O6    O     O_R   0.618810 0.319640 0.500000 -0.507086
O7    O     O_R   0.394980 0.500000 0.386410 -0.510851
O8    O     O_R   0.632570 0.499960 0.386400 -0.504193
O9    O     O_3   0.690760 0.570956 0.976585 -0.710338

loop_
_geom_bond_atom_site_label_1
_geom_bond_atom_site_label_2
_ccdc_geom_bond_type
C8    C9    A    
C2    C28   A    
C24   C25   A    
C31   C33   S    
C23   C28   A    
C6    C7    A    
C23   H10   S    
Cu2   O6    S    
C11   H23   S    
C14   N1    A    
C9    C10   S    
C4    O3    A    
C28   H4    S    
C22   H1    S    
C14   C15   A    
C19   H7    S    
C13   C17   A    
C32   C33   D    
Cu1   O5    S    
C25   C32   S    
Cu1   O3    S    
C17   C18   S    
C15   N2    A    
C26   H9    S    
C7    C8    A    
C8    C16   S    
C16   O6    A    
C21   C22   A    
C1    O1    A    
C4    C21   S    
C14   H24   S    
C29   C30   A    
C16   O5    A    
C33   O9    S    
C2    C29   A    
C3    C9    A    
C5    C6    A    
C1    O2    A    
C27   H16   S    
Cu1   Cu2   S    
H14   O9    S    
C18   H3    S    
C30   C31   A    
C22   C24   A    
C20   O8    A    
C10   H20   S    
C3    C11   S    
C10   C11   S    
Cu2   O4    S    
C12   C27   S    
C2    C20   S    
C24   H13   S    
Cu1   O1    S    
C30   H12   S    
C1    C5    S    
C10   H21   S    
C27   H17   S    
Cu2   O8    S    
C27   H15   S    
C18   C19   S    
Cu1   O7    S    
C13   N1    A    
C18   H5    S    
C4    O4    A    
C15   H2    S    
C13   C19   S    
Cu2   O2    S    
C6    H18   S    
C7    H19   S    
C17   N2    A    
C25   C26   A    
C11   H22   S    
C32   H11   S    
C12   C21   A    
C20   O7    A    
Cu1   N2    S    
C29   H8    S    
C19   H6    S    
C12   C26   A    
Cu2   N1    S    
C3    C5    A    
C23   C31   A    
