data_mof_unit_40679.cif
_audit_creation_date              2013-03-05T15:59:43-0500
_audit_creation_method            fapswitch 2.2
_symmetry_space_group_name_H-M    P1
_symmetry_Int_Tables_number       1
_space_group_crystal_system       triclinic
_cell_length_a                    6.967489
_cell_length_b                    14.364032
_cell_length_c                    15.762759
_cell_angle_alpha                 90.106602
_cell_angle_beta                  90.024248
_cell_angle_gamma                 89.893056
_cell_volume                      1577.55076954

loop_
_atom_site_label
_atom_site_type_symbol
_atom_site_description
_atom_site_fract_x
_atom_site_fract_y
_atom_site_fract_z
_atom_type_partial_charge
O1    O     O_R   0.638960 0.835150 0.161940 -0.564665
O2    O     O_R   0.361040 0.164850 0.838060 -0.564635
O3    O     O_R   0.309170 0.846340 0.337470 -0.598109
O4    O     O_R   0.690830 0.153660 0.662530 -0.598112
O5    O     O_R   0.138810 0.664830 0.338070 -0.591869
O6    O     O_R   0.861190 0.335170 0.661930 -0.591867
C1    C     C_R   0.478161 0.868541 0.366528 0.903317
C2    C     C_R   0.521839 0.131459 0.633472 0.903309
O7    O     O_R   0.309250 0.846350 0.162570 -0.584106
O8    O     O_R   0.690750 0.153650 0.837430 -0.584110
O9    O     O_R   0.138880 0.664840 0.161920 -0.597607
O10   O     O_R   0.861120 0.335160 0.838080 -0.597612
C3    C     C_R   0.478017 0.867129 0.132614 0.994942
C4    C     C_R   0.521982 0.132871 0.867386 0.994934
O11   O     O_R   0.638880 0.835150 0.338090 -0.598699
O12   O     O_R   0.361120 0.164850 0.661910 -0.598702
O13   O     O_3   0.472380 0.690440 0.250000 -0.284991
O14   O     O_3   0.527620 0.309560 0.750000 -0.284990
V1    V     V_3+5 0.197550 0.761040 0.250010 1.181286
V2    V     V_3+5 0.802450 0.238960 0.749990 1.181283
O15   O     O_R   0.809160 0.653640 0.162540 -0.591511
O16   O     O_R   0.190840 0.346360 0.837460 -0.591501
C5    C     C_R   0.978003 0.631916 0.133258 1.007189
C6    C     C_R   0.021998 0.368079 0.866747 1.007230
O17   O     O_R   0.809090 0.653640 0.337440 -0.601418
O18   O     O_R   0.190910 0.346360 0.662560 -0.601418
C7    C     C_R   0.978315 0.632145 0.366923 0.924215
C8    C     C_R   0.021685 0.367855 0.633077 0.924218
V3    V     V_3+5 0.697540 0.738950 0.250000 1.176209
V4    V     V_3+5 0.302460 0.261050 0.750000 1.176221
O19   O     O_3   0.972580 0.809550 0.250010 -0.264307
O20   O     O_3   0.027420 0.190450 0.749990 -0.264305
C9    C     C_3   0.165291 0.545048 0.495206 0.408453
C10   C     C_3   0.834709 0.454952 0.504794 0.408455
C11   C     C_3   0.034438 0.543570 0.574084 -0.225836
C12   C     C_3   0.965562 0.456430 0.425916 -0.225839
H1    H     H_    0.064280 0.579281 0.635192 0.130256
H2    H     H_    0.935720 0.420719 0.364808 0.130253
C13   C     C_3   0.009464 0.437597 0.562167 -0.157095
C14   C     C_3   0.990535 0.562402 0.437832 -0.157094
C15   C     C_3   0.142276 0.438711 0.483936 -0.204514
C16   C     C_3   0.857724 0.561289 0.516064 -0.204514
H3    H     H_    0.252839 0.385368 0.470437 0.137765
H4    H     H_    0.747160 0.614632 0.529563 0.137766
C17   C     C_3   0.859114 0.436556 0.008683 -0.171779
C18   C     C_3   0.140888 0.563433 0.991326 -0.171784
C19   C     C_3   0.018620 0.456353 0.075183 -0.190343
C20   C     C_3   0.981381 0.543637 0.924826 -0.190337
H5    H     H_    0.035379 0.420788 0.137225 0.144249
H6    H     H_    0.964620 0.579202 0.862784 0.144254
H7    H     H_    0.748737 0.381815 0.015836 0.154737
H8    H     H_    0.251265 0.618173 0.984174 0.154753
C21   C     C_3   0.988713 0.561943 0.062466 -0.197889
C22   C     C_3   0.011288 0.438046 0.937543 -0.197892
C23   C     C_3   0.831349 0.542525 0.996733 0.374074
C24   C     C_3   0.168652 0.457463 0.003277 0.374124
C25   C     C_3   0.677695 0.972411 0.478761 -0.090995
C26   C     C_3   0.322305 0.027589 0.521239 -0.090997
C27   C     C_3   0.602718 0.073914 0.474741 -0.136098
C28   C     C_3   0.397282 0.926086 0.525259 -0.136098
H9    H     H_    0.687748 0.135230 0.454426 0.107647
H10   H     H_    0.312251 0.864770 0.545574 0.107646
H11   H     H_    0.824667 0.949534 0.461060 0.117029
H12   H     H_    0.175333 0.050466 0.538940 0.117029
C29   C     C_3   0.510410 0.061292 0.562641 -0.085746
C30   C     C_3   0.489590 0.938708 0.437359 -0.085748
C31   C     C_3   0.585266 0.960604 0.567456 -0.136428
C32   C     C_3   0.414734 0.039395 0.432544 -0.136427
H13   H     H_    0.655757 0.928559 0.623441 0.123302
H14   H     H_    0.344243 0.071441 0.376559 0.123313
C33   C     C_3   0.606301 0.927953 0.980098 0.448671
C34   C     C_3   0.393688 0.072045 0.019903 0.448661
C35   C     C_3   0.435404 0.962413 0.926529 -0.241275
C36   C     C_3   0.564590 0.037589 0.073476 -0.241298
H15   H     H_    0.384825 0.930792 0.866237 0.167677
H16   H     H_    0.615167 0.069211 0.133765 0.167670
C37   C     C_3   0.510862 0.062949 0.937919 -0.290540
C38   C     C_3   0.489132 0.937051 0.062084 -0.290514
C39   C     C_3   0.684347 0.027418 0.990280 -0.203169
C40   C     C_3   0.315651 0.972581 0.009723 -0.203107
H17   H     H_    0.836594 0.047706 0.981618 0.194304
H18   H     H_    0.163402 0.952294 0.018382 0.194296
N1    N     N_R   0.728196 0.849518 0.957088 0.211326
O21   O     O_R   0.704905 0.807972 0.884423 -0.440812
O22   O     O_R   0.873025 0.827065 0.004963 -0.444555
N2    N     N_R   0.271745 0.150466 0.042903 0.211307
O23   O     O_R   0.294831 0.191940 0.115618 -0.440781
O24   O     O_R   0.127008 0.172944 0.994985 -0.444553
C41   C     C_3   0.352374 0.598641 0.493989 -1.006253
H19   H     H_    0.437138 0.578296 0.550431 0.244756
H20   H     H_    0.433338 0.582716 0.435114 0.268959
H21   H     H_    0.322733 0.674510 0.497242 0.237981
C42   C     C_3   0.647626 0.401359 0.506011 -1.006257
H22   H     H_    0.562862 0.421703 0.449569 0.244755
H23   H     H_    0.677267 0.325490 0.502758 0.237982
H24   H     H_    0.566662 0.417284 0.564886 0.268960
C43   C     C_3   0.641770 0.593992 0.991961 -0.939569
H25   H     H_    0.564475 0.573518 0.933360 0.240639
H26   H     H_    0.554794 0.578254 0.048958 0.244147
H27   H     H_    0.668101 0.669717 0.990407 0.297013
C44   C     C_3   0.358226 0.405992 0.008057 -0.939689
H28   H     H_    0.435524 0.426478 0.066655 0.240623
H29   H     H_    0.331887 0.330266 0.009632 0.296996
H30   H     H_    0.445203 0.421714 0.951057 0.244177

loop_
_geom_bond_atom_site_label_1
_geom_bond_atom_site_label_2
_geom_bond_distance
_ccdc_geom_bond_type
C20   C23   1.542342 S    
C30   C32   1.538522 S    
C44   H28   1.108579 S    
O13   V3    1.717771 S    
C21   C23   1.533836 S    
C10   C16   1.546026 S    
C10   C42   1.515229 S    
C25   C30   1.542218 S    
O4    C2    1.303175 A    
V1    O19   1.714186 S    
C33   C39   1.537745 S    
C43   H25   1.108577 S    
C13   C15   1.542177 S    
C20   C22   1.543994 S    
O9    V1    1.999767 S    
C42   H22   1.107082 S    
C36   H16   1.110098 S    
C11   H1    1.110203 S    
C24   C44   1.514405 S    
O3    C1    1.303174 A    
C38   C40   1.549561 S    
C25   C27   1.549238 S    
C17   H7    1.106830 S    
C6    C22   1.502185 S    
C18   H8    1.106829 S    
C28   H10   1.110141 S    
C2    O12   1.297144 A    
C17   C19   1.553654 S    
C11   C16   1.554320 S    
O7    C3    1.302707 A    
C5    C21   1.502184 S    
O13   V1    2.165155 S    
O5    C7    1.296502 A    
O7    V1    2.004433 S    
O6    C8    1.296502 A    
C28   C31   1.550551 S    
O8    V2    2.004432 S    
C29   C31   1.538523 S    
O3    V1    2.000751 S    
O14   V4    1.717773 S    
C41   H20   1.109481 S    
C10   C12   1.542305 S    
C19   C21   1.543992 S    
C20   H6    1.110198 S    
C28   C30   1.538962 S    
C2    C29   1.504910 S    
C44   H29   1.103759 S    
O17   V3    2.001797 S    
C15   H3    1.105955 S    
O10   V2    1.999766 S    
C12   C15   1.554319 S    
C16   H4    1.105955 S    
C25   C31   1.549250 S    
C43   H26   1.107811 S    
O11   V3    1.998938 S    
C33   N1    1.455108 S    
C37   C39   1.549572 S    
C26   H12   1.110452 S    
C22   C24   1.533841 S    
C27   H9    1.110141 S    
C9    C14   1.536670 S    
N2    O24   1.300305 A    
C10   C13   1.536669 S    
C12   C14   1.543548 S    
C19   H5    1.110197 S    
O8    C4    1.302714 A    
C33   C35   1.540901 S    
N2    O23   1.300837 A    
C1    O11   1.297144 A    
C8    C13   1.504632 S    
O15   V3    1.999515 S    
C31   H13   1.110031 S    
C11   C13   1.543549 S    
C34   C37   1.534105 S    
C9    C41   1.515229 S    
C27   C32   1.550552 S    
C26   C29   1.542219 S    
N1    O21   1.300790 A    
C7    C14   1.504631 S    
C23   C43   1.514396 S    
O1    V3    2.001826 S    
C41   H21   1.109898 S    
C40   H18   1.109166 S    
C34   C36   1.540933 S    
N1    O22   1.300316 A    
C17   C22   1.543789 S    
O18   V4    2.001798 S    
C42   H24   1.109479 S    
C36   C39   1.561124 S    
O15   C5    1.301124 A    
O16   C6    1.301123 A    
O1    C3    1.296370 A    
C35   H15   1.110133 S    
O12   V4    1.998938 S    
C43   H27   1.103745 S    
C39   H17   1.109169 S    
V2    O20   1.714186 S    
C26   C32   1.549251 S    
C3    C38   1.501746 S    
O16   V4    1.999516 S    
C25   H11   1.110452 S    
C14   C16   1.542177 S    
C34   N2    1.455113 S    
O5    V1    2.003446 S    
O17   C7    1.303929 A    
O6    V2    2.003444 S    
O10   C6    1.298064 A    
O18   C8    1.303930 A    
O2    V4    2.001824 S    
C9    C15   1.546026 S    
C12   H2    1.110203 S    
C34   C40   1.537715 S    
C27   C29   1.538962 S    
C1    C30   1.504911 S    
V4    O20   2.169794 S    
C42   H23   1.109897 S    
C18   C21   1.543785 S    
O9    C5    1.298064 A    
C9    C11   1.542303 S    
C35   C40   1.561076 S    
O14   V2    2.165155 S    
O2    C4    1.296366 A    
O4    V2    2.000753 S    
C18   C20   1.553654 S    
C17   C23   1.545885 S    
V3    O19   2.169795 S    
C36   C38   1.547889 S    
C18   C24   1.545891 S    
C4    C37   1.501786 S    
C32   H14   1.110031 S    
C35   C37   1.547864 S    
C44   H30   1.107818 S    
C41   H19   1.107081 S    
C26   C28   1.549236 S    
C33   C38   1.534113 S    
C19   C24   1.542343 S    
