data_mof_unit_17125.cif
_audit_creation_date              2012-12-10T17:03:01-0500
_audit_creation_method            fapswitch 2.2
_symmetry_space_group_name_H-M    P1
_symmetry_Int_Tables_number       1
_space_group_crystal_system       triclinic
_cell_length_a                    9.956907
_cell_length_b                    10.976695
_cell_length_c                    13.435532
_cell_angle_alpha                 95.526758
_cell_angle_beta                  82.077065
_cell_angle_gamma                 109.996814
_cell_volume                      1364.81261084

loop_
_atom_site_label
_atom_site_type_symbol
_atom_type_description
_atom_site_fract_x
_atom_site_fract_y
_atom_site_fract_z
_atom_type_partial_charge
C1    C     C_R   0.555576 0.744986 0.504904 0.862261
C2    C     C_R   0.428880 0.455393 0.969180 0.093697
C3    C     C_R   0.463605 0.440145 0.864072 0.028553
C4    C     C_R   0.535719 0.468477 0.033144 0.045955
C5    C     C_R   0.676159 0.475516 0.990692 0.054090
C6    C     C_R   0.698989 0.431618 0.889543 0.127823
C7    C     C_R   0.588117 0.408395 0.828864 -0.200423
C8    C     C_R   0.508590 0.478689 0.137984 -0.263708
C9    C     C_R   0.764610 0.558632 0.153529 0.153848
C10   C     C_R   0.373591 0.458274 0.797362 -0.090554
C11   C     C_2   0.585166 0.882995 0.494766 -0.364989
C12   C     C_R   0.422087 0.479580 0.689335 0.779514
C13   C     C_2   0.475673 0.925396 0.488482 -0.120684
C14   C     C_2   0.406294 0.116207 0.501046 -0.316501
C15   C     C_2   0.501399 0.058491 0.465856 -0.190032
C16   C     C_2   0.923891 0.484522 0.495346 0.247582
C17   C     C_2   0.075832 0.504863 0.513783 -0.020228
C18   C     C_R   0.443361 0.255138 0.494266 0.839561
C19   C     C_R   0.577542 0.515372 0.309808 0.778661
C20   C     C_R   0.789948 0.527805 0.050477 -0.218113
C21   C     C_R   0.620287 0.519354 0.199730 -0.099491
C22   C     C_R   0.239725 0.468923 0.836311 -0.180002
C23   C     C_R   0.199012 0.470102 0.939227 -0.156431
C24   C     C_R   0.293289 0.467284 0.005395 -0.168615
Cu1   Cu    Cu3+1 0.362000 0.479240 0.482530 0.936372
Cu2   Cu    Cu3+1 0.638000 0.520760 0.517470 0.923390
H1    H     H_    0.364563 0.861871 0.501724 0.211503
H2    H     H_    0.302235 0.061995 0.539334 0.170885
H3    H     H_    0.695726 0.948359 0.487200 0.160946
H4    H     H_    0.119120 0.561061 0.579880 0.177724
H5    H     H_    0.125661 0.399769 0.389351 0.213529
H6    H     H_    0.899889 0.551643 0.016261 0.138476
H7    H     H_    0.399282 0.451751 0.172865 0.164371
H8    H     H_    0.168185 0.481244 0.787339 0.155503
H9    H     H_    0.258561 0.479143 0.084148 0.125026
H10   H     H_    0.096645 0.480228 0.968383 0.124929
H11   H     H_    0.599254 0.366862 0.753608 0.189221
H12   H     H_    0.598278 0.110331 0.420393 0.179563
N1    N     N_2   0.845330 0.551960 0.543750 -0.260560
N2    N     N_2   0.154690 0.448120 0.456210 -0.318432
O1    O     O_R   0.426290 0.668220 0.490680 -0.564087
O2    O     O_R   0.659360 0.703290 0.520190 -0.582407
O3    O     O_R   0.326580 0.473880 0.629020 -0.581186
O4    O     O_R   0.559660 0.508940 0.658530 -0.601221
O5    O     O_R   0.340640 0.296710 0.479810 -0.564894
O6    O     O_R   0.573710 0.331780 0.509320 -0.593040
O7    O     O_R   0.440340 0.491060 0.341470 -0.576709
O8    O     O_R   0.673420 0.526120 0.370980 -0.601273
C25   C     C_3   0.893254 0.641787 0.206404 -0.366944
C26   C     C_3   0.004894 0.574441 0.205421 -0.849101
H13   H     H_    0.953300 0.467451 0.204116 0.243358
H14   H     H_    0.083718 0.598990 0.137294 0.236592
H15   H     H_    0.064195 0.607847 0.272644 0.253171
H16   H     H_    0.944955 0.733204 0.166313 0.191370
H17   H     H_    0.863797 0.674461 0.284062 0.228189
C27   C     C_3   0.861231 0.369040 0.423456 -0.309873
C28   C     C_3   0.850470 0.241530 0.467592 -0.898442
H18   H     H_    0.763084 0.217256 0.530748 0.275536
H19   H     H_    0.831977 0.162677 0.407613 0.230572
H20   H     H_    0.949987 0.245964 0.497954 0.263405
H21   H     H_    0.760677 0.362528 0.397092 0.253187
H22   H     H_    0.928359 0.379350 0.350459 0.141846
C29   C     C_2   0.906397 0.664073 0.607026 0.498911
H23   H     H_    0.840286 0.687252 0.672104 0.077997
O9    O     O_2   0.027031 0.740373 0.585077 -0.614363
C30   C     C_3   0.840102 0.409486 0.848884 -0.420840
C31   C     C_3   0.839436 0.328620 0.749507 -0.847501
H24   H     H_    0.751530 0.233501 0.755118 0.258896
H25   H     H_    0.826966 0.381690 0.687277 0.253599
H26   H     H_    0.943328 0.310313 0.731550 0.248029
H27   H     H_    0.926043 0.505254 0.839425 0.190850
H28   H     H_    0.868366 0.357219 0.905263 0.212158

loop_
_geom_bond_atom_site_label_1
_geom_bond_atom_site_label_2
_ccdc_geom_bond_type
C26   H14   S    
C23   C24   A    
C16   C27   S    
C15   H12   S    
C6    C7    A    
N1    C29   S    
C25   H16   S    
C14   C18   S    
C9    C20   A    
C2    C4    A    
C30   H27   S    
C1    C11   S    
Cu2   O8    S    
C4    C8    A    
C31   H26   S    
Cu1   O3    S    
C29   O9    D    
C30   C31   S    
C7    H11   S    
Cu2   O4    S    
C12   O4    A    
C3    C10   A    
C25   H17   S    
C10   C22   A    
C11   H3    S    
C31   H25   S    
C17   H4    S    
C11   C13   D    
C9    C21   A    
C28   H18   S    
C27   H22   S    
C10   C12   S    
C18   O6    A    
C1    O1    A    
C19   C21   S    
C26   H13   S    
C12   O3    A    
C2    C3    A    
C8    H7    S    
C13   C15   S    
Cu1   N2    S    
C2    C24   A    
C5    C6    A    
C22   H8    S    
C5    C20   A    
C19   O7    A    
Cu2   N1    S    
C28   H19   S    
C26   H15   S    
C16   C17   S    
Cu2   O6    S    
C16   N1    D    
C31   H24   S    
C24   H9    S    
C18   O5    A    
Cu1   O5    S    
C1    O2    A    
C6    C30   S    
C9    C25   S    
C27   C28   S    
Cu2   O2    S    
C23   H10   S    
C20   H6    S    
Cu1   O1    S    
C25   C26   S    
Cu1   O7    S    
C27   H21   S    
C13   H1    S    
C28   H20   S    
C19   O8    A    
C3    C7    A    
C14   H2    S    
H5    N2    S    
C14   C15   D    
C22   C23   A    
C30   H28   S    
C29   H23   S    
C4    C5    A    
Cu1   Cu2   S    
C17   N2    D    
C8    C21   A    
