data_mof_unit_22073.cif
_audit_creation_date              2012-12-10T17:16:40-0500
_audit_creation_method            fapswitch 2.2
_symmetry_space_group_name_H-M    P1
_symmetry_Int_Tables_number       1
_space_group_crystal_system       triclinic
_cell_length_a                    10.118693
_cell_length_b                    10.702554
_cell_length_c                    10.625179
_cell_angle_alpha                 91.701652
_cell_angle_beta                  95.830879
_cell_angle_gamma                 80.439691
_cell_volume                      1128.71454865

loop_
_atom_site_label
_atom_site_type_symbol
_atom_type_description
_atom_site_fract_x
_atom_site_fract_y
_atom_site_fract_z
_atom_type_partial_charge
C1    C     C_R   0.443192 0.519355 0.266992 0.881690
C2    C     C_R   0.492645 0.738501 0.479851 0.876134
C3    C     C_R   0.653882 0.096648 0.302770 0.023308
C4    C     C_R   0.231585 0.928734 0.485170 0.036066
C5    C     C_R   0.755139 0.015572 0.246407 -0.228172
C6    C     C_R   0.144043 0.000639 0.563535 -0.242196
C7    C     C_R   0.760194 0.885326 0.249718 0.029984
C8    C     C_R   0.186814 0.099413 0.636656 0.033506
C9    C     C_R   0.666172 0.836779 0.312238 -0.196439
C10   C     C_R   0.309947 0.135864 0.618840 -0.178320
C11   C     C_R   0.575534 0.916722 0.384512 0.057861
C12   C     C_R   0.556612 0.497055 0.734262 0.893363
C13   C     C_R   0.391014 0.073155 0.527099 0.040614
C14   C     C_R   0.575970 0.048376 0.388497 0.029935
C15   C     C_R   0.364146 0.955988 0.481804 0.040426
C16   C     C_R   0.474585 0.870367 0.442135 -0.216641
C17   C     C_R   0.493442 0.124333 0.473954 -0.207324
C18   C     C_1   0.100235 0.169539 0.722870 0.164309
C19   C     C_1   0.846299 0.802995 0.171461 0.166977
C20   C     C_1   0.595831 0.202858 0.225134 0.186104
C21   C     C_1   0.177415 0.840979 0.396304 0.187709
C22   C     C_1   0.719867 0.457224 0.928544 0.217453
C23   C     C_2   0.409254 0.550398 0.134233 -0.162809
C24   C     C_1   0.277326 0.536813 0.073548 0.218960
C25   C     C_2   0.589617 0.514934 0.868997 -0.185070
C26   C     C_2   0.506401 0.582750 0.070919 -0.204066
C27   C     C_2   0.494446 0.582430 0.934073 -0.189778
C28   C     C_2   0.072904 0.488578 0.489296 -0.100835
C29   C     C_2   0.927212 0.511143 0.510919 -0.114500
C30   C     C_R   0.499452 0.258549 0.494702 0.888162
H1    H     H_    0.815870 0.053580 0.183044 0.152808
H2    H     H_    0.119441 0.618082 0.615860 0.167384
H3    H     H_    0.043468 0.979354 0.567994 0.149258
H4    H     H_    0.659564 0.737873 0.295945 0.160706
H5    H     H_    0.340338 0.213377 0.676194 0.165957
H6    H     H_    0.398014 0.625160 0.886358 0.185605
H7    H     H_    0.604521 0.591385 0.119262 0.180594
H8    H     H_    0.891008 0.581605 0.580389 0.169539
H9    H     H_    0.109221 0.417862 0.420090 0.169059
H10   H     H_    0.880406 0.382327 0.383698 0.172189
N1    N     N_2   0.157300 0.551390 0.551120 -0.190313
N2    N     N_2   0.842700 0.448610 0.448880 -0.193745
N3    N     N_1   0.030611 0.226042 0.792020 -0.175235
N4    N     N_1   0.914667 0.736703 0.108051 -0.173291
N5    N     N_1   0.549690 0.282189 0.154908 -0.206910
N6    N     N_1   0.134601 0.770438 0.325155 -0.181728
N7    N     N_1   0.823776 0.411251 0.976260 -0.173072
N8    N     N_1   0.172118 0.525765 0.025087 -0.172541
O1    O     O_R   0.568940 0.489660 0.307530 -0.614333
O2    O     O_R   0.431060 0.510340 0.692470 -0.608960
O3    O     O_R   0.348880 0.522640 0.340350 -0.600205
O4    O     O_R   0.651120 0.477360 0.659650 -0.592548
O5    O     O_R   0.610030 0.300280 0.483580 -0.598697
O6    O     O_R   0.389970 0.699720 0.516420 -0.611786
O7    O     O_R   0.389970 0.333270 0.516400 -0.614832
O8    O     O_R   0.610030 0.666730 0.483600 -0.622585
Zn1   Zn    Zn3+2 0.646940 0.477980 0.478080 0.954715
Zn2   Zn    Zn3+2 0.353060 0.522020 0.521920 0.956557

loop_
_geom_bond_atom_site_label_1
_geom_bond_atom_site_label_2
_ccdc_geom_bond_type
C29   H8    S    
C12   O2    A    
C23   C24   S    
C26   H7    S    
C10   H5    S    
C4    C21   S    
C27   H6    S    
C25   C27   D    
C2    C16   S    
C30   O7    A    
C20   N5    T    
C6    H3    S    
C13   C17   A    
C12   C25   S    
H2    N1    S    
C3    C5    A    
C4    C15   A    
H10   N2    S    
C22   N7    T    
C3    C20   S    
O3    Zn2   S    
C2    O8    A    
C18   N3    T    
C19   N4    T    
C17   C30   S    
C1    O3    A    
C14   C17   A    
C26   C27   S    
C3    C14   A    
N2    Zn1   S    
C8    C10   A    
C28   C29   S    
C11   C14   A    
N1    Zn2   S    
C1    C23   S    
C7    C19   S    
C9    C11   A    
C13   C15   A    
O6    Zn2   S    
C9    H4    S    
C29   N2    D    
C30   O5    A    
C2    O6    A    
O7    Zn2   S    
O4    Zn1   S    
C15   C16   A    
C24   N8    T    
C7    C9    A    
C28   N1    D    
O1    Zn1   S    
O8    Zn1   S    
C4    C6    A    
C21   N6    T    
C11   C16   A    
C23   C26   D    
C5    C7    A    
O5    Zn1   S    
C6    C8    A    
C28   H9    S    
C12   O4    A    
C1    O1    A    
C10   C13   A    
C8    C18   S    
C5    H1    S    
C22   C25   S    
O2    Zn2   S    
