data_mof_unit_62157.cif
_audit_creation_date              2012-12-10T18:05:21-0500
_audit_creation_method            fapswitch 2.2
_symmetry_space_group_name_H-M    P1
_symmetry_Int_Tables_number       1
_space_group_crystal_system       triclinic
_cell_length_a                    30.75158
_cell_length_b                    30.696518
_cell_length_c                    23.518673
_cell_angle_alpha                 90.089076
_cell_angle_beta                  130.677338
_cell_angle_gamma                 90.032345
_cell_volume                      16836.8853879

loop_
_atom_site_label
_atom_site_type_symbol
_atom_type_description
_atom_site_fract_x
_atom_site_fract_y
_atom_site_fract_z
_atom_type_partial_charge
C1    C     C_R   0.808767 0.809475 0.498989 0.825896
C2    C     C_R   0.190314 0.809435 0.499370 0.820295
C3    C     C_R   0.308766 0.309474 0.498989 0.825094
C4    C     C_R   0.690310 0.309428 0.499368 0.820379
C5    C     C_R   0.443160 0.745880 0.885864 0.102209
C6    C     C_R   0.556613 0.745905 0.114452 0.101736
C7    C     C_R   0.943340 0.245843 0.885812 0.101930
C8    C     C_R   0.056816 0.245949 0.114342 0.101429
C9    C     C_1   0.482995 0.744657 0.966397 -0.038309
C10   C     C_1   0.516576 0.744649 0.033909 -0.037896
C11   C     C_1   0.983214 0.244649 0.966324 -0.037805
C12   C     C_1   0.016814 0.244672 0.033822 -0.037077
C13   C     C_R   0.901005 0.841246 0.547543 0.106141
C14   C     C_R   0.128975 0.835151 0.525536 0.138496
C15   C     C_R   0.401004 0.341323 0.547713 0.106356
C16   C     C_R   0.628691 0.334987 0.525171 0.138572
C17   C     C_R   0.841540 0.843650 0.499666 -0.179766
C18   C     C_R   0.154790 0.842683 0.495080 -0.181842
C19   C     C_R   0.341528 0.343650 0.499653 -0.179439
C20   C     C_R   0.654754 0.342645 0.495069 -0.181804
C21   C     C_R   0.814406 0.882358 0.459514 -0.188144
C22   C     C_R   0.144651 0.882378 0.458609 -0.191971
C23   C     C_R   0.314351 0.382301 0.459314 -0.189104
C24   C     C_R   0.644823 0.382429 0.458939 -0.193011
C25   C     C_R   0.845688 0.915788 0.459903 0.393250
C26   C     C_R   0.114071 0.915790 0.459572 0.392680
C27   C     C_R   0.345628 0.415738 0.459708 0.393472
C28   C     C_R   0.614283 0.415807 0.460028 0.399286
C29   C     C_R   0.905417 0.909937 0.501666 -0.196110
C30   C     C_R   0.093511 0.908938 0.498307 -0.190052
C31   C     C_R   0.405395 0.409953 0.501665 -0.196211
C32   C     C_R   0.593420 0.408810 0.498350 -0.187344
C33   C     C_R   0.932378 0.874010 0.549105 0.100166
C34   C     C_R   0.099245 0.867819 0.527617 0.061687
C35   C     C_R   0.432369 0.374094 0.549273 0.100347
C36   C     C_R   0.598901 0.367605 0.527249 0.058146
C37   C     C_3   0.974172 0.842645 0.559661 -0.483390
C38   C     C_3   0.122991 0.855363 0.604513 -0.453259
C39   C     C_3   0.474298 0.342749 0.560131 -0.483781
C40   C     C_3   0.622384 0.354936 0.603949 -0.453125
C41   C     C_3   0.939157 0.806461 0.557092 -0.430844
C42   C     C_3   0.155426 0.819301 0.601966 -0.454386
C43   C     C_3   0.439298 0.306557 0.557575 -0.431208
C44   C     C_3   0.654880 0.318935 0.601399 -0.452724
C45   C     C_R   0.677745 0.750003 0.355440 0.816891
C46   C     C_R   0.322432 0.749967 0.644648 0.813210
C47   C     C_R   0.177734 0.250016 0.355411 0.816481
C48   C     C_R   0.822449 0.249954 0.644641 0.813389
C49   C     C_R   0.049469 0.721712 0.153876 -0.155973
C50   C     C_R   0.950914 0.722571 0.845959 -0.157794
C51   C     C_R   0.549484 0.221671 0.153890 -0.156269
C52   C     C_R   0.450565 0.222186 0.845939 -0.158374
C53   C     C_R   0.088700 0.721624 0.232278 -0.189444
C54   C     C_R   0.911786 0.722505 0.767567 -0.189239
C55   C     C_R   0.588714 0.221599 0.232292 -0.189607
C56   C     C_R   0.411437 0.222136 0.767547 -0.193434
C57   C     C_R   0.136264 0.749922 0.272390 -0.035722
C58   C     C_R   0.863680 0.750112 0.727606 -0.034702
C59   C     C_R   0.636267 0.249908 0.272389 -0.035563
C60   C     C_R   0.363651 0.250067 0.727603 -0.034865
C61   C     C_R   0.143687 0.778229 0.232260 -0.187713
C62   C     C_R   0.855664 0.777761 0.767893 -0.190494
C63   C     C_R   0.643681 0.278209 0.232244 -0.188408
C64   C     C_R   0.355943 0.278010 0.767907 -0.187423
C65   C     C_R   0.104385 0.778252 0.153859 -0.155379
C66   C     C_R   0.894870 0.777757 0.846309 -0.156040
C67   C     C_R   0.604378 0.278216 0.153841 -0.155940
C68   C     C_R   0.395151 0.277992 0.846321 -0.155947
C69   C     C_R   0.057199 0.750029 0.114514 0.143892
C70   C     C_R   0.942553 0.750174 0.885488 0.144167
C71   C     C_R   0.557203 0.249981 0.114512 0.144091
C72   C     C_R   0.442524 0.250096 0.885485 0.144465
C73   C     C_1   0.016751 0.750117 0.033805 -0.061313
C74   C     C_1   0.982898 0.750171 0.966198 -0.061828
C75   C     C_1   0.516749 0.250055 0.033803 -0.061755
C76   C     C_1   0.482886 0.250098 0.966195 -0.062310
C77   C     C_R   0.626896 0.627166 0.444883 0.119443
C78   C     C_R   0.318170 0.627033 0.445169 0.117990
C79   C     C_R   0.183887 0.125397 0.554617 0.100792
C80   C     C_R   0.818177 0.127072 0.445104 0.117991
C81   C     C_R   0.658483 0.657821 0.501557 -0.071842
C82   C     C_R   0.343126 0.657807 0.501669 -0.074302
C83   C     C_R   0.156872 0.157909 0.500198 -0.076140
C84   C     C_R   0.843120 0.157807 0.501660 -0.074620
C85   C     C_R   0.657244 0.656063 0.560333 -0.209705
C86   C     C_R   0.402996 0.656126 0.560320 -0.208711
C87   C     C_R   0.096817 0.161302 0.451314 -0.201566
C88   C     C_R   0.902978 0.156088 0.560370 -0.208928
C89   C     C_R   0.690743 0.690740 0.499963 0.795188
C90   C     C_R   0.309259 0.690733 0.500027 0.796438
C91   C     C_R   0.190309 0.190635 0.499426 0.792940
C92   C     C_R   0.809255 0.190733 0.500019 0.796553
C93   C     C_R   0.625152 0.623414 0.560612 -0.199903
C94   C     C_R   0.435344 0.623462 0.560613 -0.200373
C95   C     C_R   0.064534 0.128922 0.450899 -0.201563
C96   C     C_R   0.935328 0.123426 0.560665 -0.199454
C97   C     C_R   0.592739 0.593154 0.500907 -0.093925
C98   C     C_R   0.408181 0.593102 0.501041 -0.094035
C99   C     C_R   0.092368 0.093897 0.501199 -0.080553
C100  C     C_R   0.908183 0.093105 0.501038 -0.095810
C101  C     C_R   0.594658 0.596804 0.443777 0.123585
C102  C     C_R   0.349270 0.596655 0.444073 0.121360
C103  C     C_R   0.152104 0.094181 0.555744 0.130505
C104  C     C_R   0.849283 0.096696 0.444015 0.120977
C105  C     C_3   0.572853 0.578135 0.370781 -0.445338
C106  C     C_3   0.298239 0.577904 0.371197 -0.445167
C107  C     C_3   0.193816 0.058998 0.576895 -0.478857
C108  C     C_3   0.798270 0.077986 0.371079 -0.445189
C109  C     C_3   0.609376 0.613143 0.371928 -0.489275
C110  C     C_3   0.262913 0.612929 0.372331 -0.485730
C111  C     C_3   0.228657 0.093366 0.575419 -0.447992
C112  C     C_3   0.762938 0.113008 0.372206 -0.485996
C113  C     C_R   0.440585 0.559527 0.500119 0.792686
C114  C     C_R   0.559520 0.559541 0.500122 0.792778
C115  C     C_R   0.940588 0.059531 0.500118 0.791972
C116  C     C_R   0.059732 0.059414 0.500141 0.784710
C117  C     C_R   0.940106 0.941030 0.500146 0.797192
C118  C     C_R   0.060110 0.941337 0.499808 0.791816
C119  C     C_R   0.440095 0.441038 0.500146 0.797042
C120  C     C_R   0.560005 0.441219 0.499816 0.795408
C121  C     C_R   0.822216 0.750034 0.644545 0.779347
C122  C     C_R   0.177775 0.749947 0.355444 0.778444
C123  C     C_R   0.322204 0.250019 0.644544 0.782377
C124  C     C_R   0.677776 0.249945 0.355444 0.778111
C125  C     C_R   0.450498 0.776559 0.848928 -0.257187
C126  C     C_R   0.555618 0.780908 0.151607 -0.255199
C127  C     C_R   0.950987 0.276202 0.848818 -0.256791
C128  C     C_R   0.053625 0.279618 0.151491 -0.255109
C129  C     C_R   0.411548 0.778765 0.770024 0.410093
C130  C     C_R   0.595008 0.783178 0.230511 0.412697
C131  C     C_R   0.911992 0.278408 0.769927 0.410630
C132  C     C_R   0.092869 0.281890 0.230390 0.411752
C133  C     C_R   0.364535 0.749425 0.728002 -0.075284
C134  C     C_R   0.635809 0.749468 0.272229 -0.071302
C135  C     C_R   0.864607 0.249398 0.727980 -0.075397
C136  C     C_R   0.135811 0.249522 0.272143 -0.072197
C137  C     C_R   0.357873 0.718796 0.766408 -0.274844
C138  C     C_R   0.636274 0.714541 0.233738 -0.277542
C139  C     C_R   0.857644 0.219080 0.766447 -0.274840
C140  C     C_R   0.138457 0.215952 0.233592 -0.271023
C141  C     C_R   0.396838 0.717065 0.844592 -0.161785
C142  C     C_R   0.596973 0.712785 0.155528 -0.159228
C143  C     C_R   0.896666 0.217347 0.844626 -0.161301
C144  C     C_R   0.099270 0.214194 0.155391 -0.158708
Cu1   Cu    Cu3+1 0.780910 0.719080 0.500000 0.943658
Cu2   Cu    Cu3+1 0.219090 0.719080 0.500000 0.945638
Cu3   Cu    Cu3+1 0.280910 0.219080 0.500000 0.939379
Cu4   Cu    Cu3+1 0.719090 0.219080 0.500000 0.945543
Cu5   Cu    Cu3+1 0.719070 0.780890 0.500010 0.991472
Cu6   Cu    Cu3+1 0.280930 0.780890 0.499990 0.991951
Cu7   Cu    Cu3+1 0.219070 0.280890 0.500010 0.991502
Cu8   Cu    Cu3+1 0.780930 0.280890 0.499990 0.992267
Cu9   Cu    Cu3+1 0.462710 0.500000 0.425470 0.967118
Cu10  Cu    Cu3+1 0.537290 0.500000 0.574530 0.948326
Cu11  Cu    Cu3+1 0.962710 0.000000 0.425470 0.971694
Cu12  Cu    Cu3+1 0.037290 0.000000 0.574530 0.948550
H1    H     H_    0.486521 0.798888 0.881637 0.130904
H2    H     H_    0.524325 0.806580 0.119082 0.130423
H3    H     H_    0.987291 0.298281 0.881476 0.131178
H4    H     H_    0.020685 0.304246 0.118958 0.130530
H5    H     H_    0.962602 0.789076 0.611333 0.194231
H6    H     H_    0.140159 0.786144 0.600490 0.201280
H7    H     H_    0.462693 0.289256 0.611880 0.194215
H8    H     H_    0.639500 0.285758 0.599580 0.200915
H9    H     H_    0.013102 0.699706 0.123973 0.134617
H10   H     H_    0.987686 0.701088 0.875727 0.134098
H11   H     H_    0.513126 0.199656 0.124001 0.134473
H12   H     H_    0.487091 0.200454 0.875694 0.133609
H13   H     H_    0.081735 0.699405 0.261394 0.155958
H14   H     H_    0.919261 0.700837 0.738341 0.155327
H15   H     H_    0.581757 0.199384 0.261420 0.155911
H16   H     H_    0.418656 0.200222 0.738307 0.154078
H17   H     H_    0.179808 0.800408 0.261362 0.156552
H18   H     H_    0.819119 0.799399 0.738907 0.155886
H19   H     H_    0.679792 0.300397 0.261335 0.156292
H20   H     H_    0.319651 0.299903 0.738933 0.156219
H21   H     H_    0.110795 0.800299 0.123943 0.134806
H22   H     H_    0.887984 0.799262 0.876360 0.135235
H23   H     H_    0.610779 0.300259 0.123912 0.134531
H24   H     H_    0.388514 0.299736 0.876386 0.135139
H25   H     H_    0.681340 0.679397 0.605943 0.148205
H26   H     H_    0.424421 0.679536 0.605819 0.152748
H27   H     H_    0.074928 0.187723 0.411296 0.156181
H28   H     H_    0.924392 0.179468 0.605913 0.153381
H29   H     H_    0.625033 0.622274 0.606537 0.160743
H30   H     H_    0.481272 0.622403 0.606420 0.161098
H31   H     H_    0.018161 0.130800 0.410744 0.157434
H32   H     H_    0.981246 0.122337 0.606521 0.163543
H33   H     H_    0.588381 0.544440 0.376499 0.222751
H34   H     H_    0.299989 0.582648 0.325877 0.207621
H35   H     H_    0.215776 0.046110 0.633989 0.203964
H36   H     H_    0.800077 0.082760 0.325815 0.207026
H37   H     H_    0.525927 0.582958 0.325571 0.206953
H38   H     H_    0.288432 0.544234 0.377095 0.220711
H39   H     H_    0.175281 0.033788 0.532452 0.208743
H40   H     H_    0.788425 0.044310 0.376895 0.220998
H41   H     H_    0.645830 0.599615 0.378225 0.211996
H42   H     H_    0.244681 0.638057 0.328047 0.197573
H43   H     H_    0.270716 0.100247 0.631653 0.195856
H44   H     H_    0.744757 0.138162 0.327973 0.197256
H45   H     H_    0.583509 0.638330 0.327750 0.197898
H46   H     H_    0.232800 0.599425 0.378785 0.212512
H47   H     H_    0.230199 0.088153 0.529954 0.216379
H48   H     H_    0.732779 0.099498 0.378574 0.212623
H49   H     H_    0.322464 0.695924 0.735996 0.176914
H50   H     H_    0.666858 0.688259 0.264164 0.174585
H51   H     H_    0.821946 0.196469 0.736091 0.176983
H52   H     H_    0.170722 0.190732 0.263936 0.176443
H53   H     H_    0.768553 0.886172 0.425991 0.186923
H54   H     H_    0.162152 0.888088 0.431499 0.182002
H55   H     H_    0.268476 0.386062 0.425650 0.185975
H56   H     H_    0.662524 0.388256 0.432109 0.181627
H57   H     H_    0.973081 0.842126 0.511451 0.196493
H58   H     H_    0.151450 0.880839 0.647204 0.211867
H59   H     H_    0.473322 0.342159 0.512017 0.196205
H60   H     H_    0.650809 0.380321 0.646876 0.212997
H61   H     H_    0.017438 0.846347 0.615731 0.196986
H62   H     H_    0.089382 0.842824 0.604939 0.191659
H63   H     H_    0.517507 0.346539 0.616253 0.197191
H64   H     H_    0.588635 0.342331 0.604042 0.191465
H65   H     H_    0.917174 0.785110 0.506900 0.208645
H66   H     H_    0.202767 0.823742 0.643217 0.193635
H67   H     H_    0.417450 0.285128 0.507495 0.208544
H68   H     H_    0.702224 0.323321 0.642878 0.193904
O1    O     O_R   0.821190 0.768980 0.500000 -0.585914
O2    O     O_R   0.178810 0.768980 0.500000 -0.581631
O3    O     O_R   0.321190 0.268980 0.500000 -0.585763
O4    O     O_R   0.678810 0.268980 0.500000 -0.581919
O5    O     O_R   0.486270 0.545120 0.562900 -0.590139
O6    O     O_R   0.513730 0.545120 0.437100 -0.587838
O7    O     O_R   0.986270 0.045120 0.562900 -0.587917
O8    O     O_R   0.013730 0.045120 0.437100 -0.586264
O9    O     O_R   0.923420 0.954920 0.437060 -0.574319
O10   O     O_R   0.076580 0.954920 0.562940 -0.585685
O11   O     O_R   0.423420 0.454920 0.437060 -0.574577
O12   O     O_R   0.576580 0.454920 0.562940 -0.582911
O13   O     O_R   0.986330 0.954940 0.562940 -0.578990
O14   O     O_R   0.013670 0.954940 0.437060 -0.574391
O15   O     O_R   0.486330 0.454940 0.562940 -0.579008
O16   O     O_R   0.513670 0.454940 0.437060 -0.577192
O17   O     O_R   0.768960 0.821170 0.500020 -0.580748
O18   O     O_R   0.231040 0.821170 0.499980 -0.583352
O19   O     O_R   0.268960 0.321170 0.500020 -0.581409
O20   O     O_R   0.731040 0.321170 0.499980 -0.583120
O21   O     O_R   0.721730 0.723890 0.391250 -0.604340
O22   O     O_R   0.278270 0.723890 0.608750 -0.604857
O23   O     O_R   0.221730 0.223890 0.391250 -0.603185
O24   O     O_R   0.778270 0.223890 0.608750 -0.604876
O25   O     O_R   0.669500 0.776090 0.391270 -0.518915
O26   O     O_R   0.330500 0.776090 0.608730 -0.515409
O27   O     O_R   0.169500 0.276090 0.391270 -0.519561
O28   O     O_R   0.830500 0.276090 0.608730 -0.515048
O29   O     O_R   0.731010 0.678810 0.499990 -0.583601
O30   O     O_R   0.268990 0.678810 0.500010 -0.583719
O31   O     O_R   0.231010 0.178810 0.499990 -0.587168
O32   O     O_R   0.768990 0.178810 0.500010 -0.583570
O33   O     O_R   0.678790 0.731000 0.500010 -0.583893
O34   O     O_R   0.321210 0.731000 0.499990 -0.581971
O35   O     O_R   0.178790 0.231000 0.500010 -0.583997
O36   O     O_R   0.821210 0.231000 0.499990 -0.582020
O37   O     O_R   0.830470 0.723890 0.608750 -0.589329
O38   O     O_R   0.169530 0.723890 0.391250 -0.589694
O39   O     O_R   0.330470 0.223890 0.608750 -0.591264
O40   O     O_R   0.669530 0.223890 0.391250 -0.589739
O41   O     O_R   0.778250 0.776080 0.608760 -0.590311
O42   O     O_R   0.221750 0.776080 0.391240 -0.590519
O43   O     O_R   0.278250 0.276080 0.608760 -0.587579
O44   O     O_R   0.721750 0.276080 0.391240 -0.590721
O45   O     O_R   0.423360 0.545090 0.437020 -0.587807
O46   O     O_R   0.576640 0.545090 0.562980 -0.590132
O47   O     O_R   0.923360 0.045090 0.437020 -0.589567
O48   O     O_R   0.076640 0.045090 0.562980 -0.585394
O49   O     O_3   0.418701 0.809310 0.733608 -0.716120
H69   H     H_    0.453408 0.826995 0.771238 0.317216
O50   O     O_3   0.594746 0.818178 0.267297 -0.716368
H70   H     H_    0.563796 0.838589 0.229866 0.318393
O51   O     O_3   0.919488 0.308619 0.733453 -0.715426
H71   H     H_    0.954433 0.326096 0.771041 0.317577
O52   O     O_3   0.090229 0.315561 0.267103 -0.716416
H72   H     H_    0.057984 0.335124 0.229641 0.318066
H73   H     H_    0.390761 0.693253 0.872848 0.145268
H74   H     H_    0.598112 0.685585 0.127104 0.145703
H75   H     H_    0.890354 0.193788 0.872945 0.145703
H76   H     H_    0.102127 0.188051 0.126953 0.146130
O53   O     O_3   0.816206 0.952684 0.418540 -0.729223
H77   H     H_    0.843819 0.976398 0.434176 0.316687
O54   O     O_3   0.108344 0.954705 0.425793 -0.727496
H78   H     H_    0.093825 0.977498 0.439399 0.317641
O55   O     O_3   0.316110 0.452576 0.418162 -0.729308
H79   H     H_    0.343693 0.476326 0.433852 0.316724
O56   O     O_3   0.608919 0.454867 0.426868 -0.735125
H80   H     H_    0.595124 0.477655 0.441485 0.314788

loop_
_geom_bond_atom_site_label_1
_geom_bond_atom_site_label_2
_ccdc_geom_bond_type
C99   C103  A    
C133  C137  A    
C55   C59   A    
C47   C136  S    
C38   H62   S    
C48   C135  S    
C77   C101  A    
O56   H80   S    
Cu5   O41   S    
C136  C140  A    
C47   O23   A    
C135  C139  A    
Cu8   O20   S    
C95   C99   A    
Cu4   Cu8   S    
Cu11  O9    S    
C29   C33   A    
C100  C104  A    
C46   O26   A    
Cu2   Cu6   S    
C109  H41   S    
C70   C74   S    
C3    C19   S    
C16   C44   S    
C117  O13   A    
C49   C69   A    
C40   H64   S    
C130  C134  A    
C100  C115  S    
C51   C71   A    
C38   H58   S    
C25   C29   A    
C27   C31   A    
C105  H33   S    
C28   C32   A    
C121  O41   A    
C99   C116  S    
C126  C130  A    
C30   C34   A    
C122  O38   A    
C98   C102  A    
Cu1   O1    S    
C124  O44   A    
C17   C21   A    
C48   O28   A    
C19   C23   A    
C75   C76   T    
C13   C33   A    
C52   C72   A    
C78   C82   A    
C16   C20   A    
C80   C112  S    
C89   O33   A    
C129  C133  A    
C119  O11   A    
C125  C129  A    
C112  H48   S    
Cu3   O39   S    
C90   O34   A    
C2    O2    A    
C59   C124  S    
C143  H75   S    
C84   C88   A    
C57   C61   A    
C39   H59   S    
Cu12  O13   S    
C83   C91   S    
C59   C63   A    
Cu1   O21   S    
C60   C64   A    
C50   C70   A    
C26   O54   S    
C48   O24   A    
C142  H74   S    
C66   C70   A    
C91   O31   A    
C49   C53   A    
C22   H54   S    
Cu3   O31   S    
C51   C55   A    
C127  C131  A    
Cu7   O19   S    
C4    C20   S    
C61   C65   A    
Cu11  Cu12  S    
C124  O40   A    
C103  C107  S    
Cu10  O46   S    
C112  H44   S    
C26   C30   A    
C51   H11   S    
Cu4   O4    S    
C7    C143  A    
Cu7   O35   S    
C106  H38   S    
Cu8   O44   S    
C64   C68   A    
C39   H63   S    
C113  O45   A    
C87   H27   S    
C115  O47   A    
C88   H28   S    
C118  O10   A    
C45   O25   A    
C139  C143  A    
C8    C128  A    
Cu11  O14   S    
Cu12  O10   S    
C87   C95   A    
C64   H20   S    
C9    C10   T    
C47   O27   A    
C8    C12   S    
C90   O30   A    
O51   H71   S    
C116  O8    A    
C79   C103  A    
Cu6   O26   S    
C62   C66   A    
C46   O22   A    
C8    C144  A    
Cu3   O3    S    
C30   C118  S    
C60   C123  S    
Cu3   Cu7   S    
C5    C9    S    
C123  O43   A    
C117  O9    A    
C132  C136  A    
C40   H60   S    
O55   H79   S    
Cu4   O40   S    
C77   C109  S    
C2    O18   A    
Cu5   O33   S    
C139  H51   S    
Cu4   O32   S    
Cu10  O5    S    
Cu1   O37   S    
C6    C142  A    
C106  H34   S    
C93   C97   A    
Cu8   O28   S    
C122  O42   A    
C21   C25   A    
C85   H25   S    
C18   C22   A    
C107  C111  S    
C94   H30   S    
C14   C34   A    
C42   H6    S    
C113  O5    A    
C52   H12   S    
C1    C17   S    
C13   C17   A    
C15   C43   S    
C16   C36   A    
C119  O15   A    
C65   H21   S    
C96   C100  A    
C37   C41   S    
Cu1   Cu5   S    
C91   O35   A    
C40   C44   S    
C5    C125  A    
C108  H36   S    
C84   C92   S    
C7    C127  A    
C97   C114  S    
C42   H66   S    
C4    O20   A    
C81   C85   A    
C43   H67   S    
C43   H7    S    
C58   C62   A    
C83   C87   A    
C88   C96   A    
C41   H5    S    
C110  H42   S    
C73   C74   T    
C54   H14   S    
C129  O49   S    
O50   H70   S    
C37   H61   S    
C80   C84   A    
C13   C41   S    
C138  H50   S    
C95   H31   S    
C15   C19   A    
C50   C54   A    
C80   C104  A    
C106  C110  S    
C125  H1    S    
C94   C98   A    
C140  H52   S    
Cu11  O8    S    
C37   H57   S    
C96   H32   S    
C105  C109  S    
C57   C122  S    
C110  H46   S    
C50   H10   S    
O52   H72   S    
C69   C73   S    
C44   H68   S    
C108  H40   S    
Cu6   O42   S    
C53   H13   S    
C81   C89   S    
C118  O14   A    
C56   H16   S    
Cu1   O29   S    
C114  O46   A    
C55   H15   S    
Cu5   O25   S    
C24   C28   A    
C6    C126  A    
C138  C142  A    
C3    O3    A    
C45   O21   A    
C53   C57   A    
C98   C113  S    
Cu7   O27   S    
Cu2   O2    S    
C82   C86   A    
C33   C37   S    
C56   C60   A    
C35   C39   S    
C114  O6    A    
O53   H77   S    
Cu6   O34   S    
O54   H78   S    
C77   C81   A    
Cu2   O30   S    
C27   O55   S    
C31   C119  S    
C120  O16   A    
C92   O32   A    
Cu7   O43   S    
C49   H9    S    
C31   C35   A    
C111  H47   S    
C32   C36   A    
C104  C108  S    
C1    O1    A    
C137  C141  A    
C58   C121  S    
Cu9   O16   S    
C140  C144  A    
C28   O56   S    
C6    C10   S    
Cu11  O47   S    
Cu12  O48   S    
Cu2   O22   S    
C82   C90   S    
C109  H45   S    
C67   H23   S    
C46   C133  S    
C79   C83   A    
C23   H55   S    
C65   C69   A    
C21   H53   S    
Cu2   O38   S    
C67   C71   A    
C4    O4    A    
C131  O51   S    
C108  C112  S    
Cu6   O18   S    
C22   C26   A    
C86   H26   S    
C44   H8    S    
C116  O48   A    
C41   H65   S    
C93   H29   S    
C105  H37   S    
C2    C18   S    
C14   C18   A    
C72   C76   S    
C107  H39   S    
C24   H56   S    
C137  H49   S    
C7    C11   S    
C66   H22   S    
C45   C134  S    
C38   C42   S    
C131  C135  A    
C62   H18   S    
Cu4   O24   S    
Cu9   O11   S    
C86   C94   A    
C121  O37   A    
C20   C24   A    
C123  O39   A    
C144  H76   S    
C23   C27   A    
C115  O7    A    
C68   C72   A    
C14   C42   S    
C111  H43   S    
Cu3   O23   S    
C89   O29   A    
C25   O53   S    
C85   C93   A    
C32   C120  S    
C128  C132  A    
C15   C35   A    
C92   O36   A    
C126  H2    S    
C101  C105  S    
C63   C67   A    
C36   C40   S    
C61   H17   S    
C39   C43   S    
C29   C117  S    
Cu10  O15   S    
C68   H24   S    
Cu8   O36   S    
C5    C141  A    
C141  H73   S    
O49   H69   S    
C78   C110  S    
C3    O19   A    
C1    O17   A    
Cu9   O6    S    
C107  H35   S    
C127  H3    S    
C128  H4    S    
C54   C58   A    
C132  O52   S    
C34   C38   S    
Cu9   O45   S    
C134  C138  A    
C11   C12   T    
C63   H19   S    
C79   C111  S    
C130  O50   S    
C120  O12   A    
C71   C75   S    
Cu12  O7    S    
C102  C106  S    
Cu5   O17   S    
Cu10  O12   S    
C78   C102  A    
Cu9   Cu10  S    
C97   C101  A    
C52   C56   A    
