data_mof_unit_42297.cif
_audit_creation_date              2013-03-05T15:53:05-0500
_audit_creation_method            fapswitch 2.2
_symmetry_space_group_name_H-M    P1
_symmetry_Int_Tables_number       1
_space_group_crystal_system       triclinic
_cell_length_a                    6.964803
_cell_length_b                    20.449605
_cell_length_c                    24.43116
_cell_angle_alpha                 89.520352
_cell_angle_beta                  90.23521
_cell_angle_gamma                 89.205185
_cell_volume                      3479.18058859

loop_
_atom_site_label
_atom_site_type_symbol
_atom_site_description
_atom_site_fract_x
_atom_site_fract_y
_atom_site_fract_z
_atom_type_partial_charge
O1    O     O_R   0.507320 0.423560 0.460500 -0.604926
O2    O     O_R   0.170760 0.556250 0.437010 -0.597673
O3    O     O_R   0.004030 0.576440 0.539500 -0.572371
C1    C     C_R   0.338583 0.576816 0.421417 0.968893
O4    O     O_R   0.177370 0.422820 0.454110 -0.601253
O5    O     O_R   0.010680 0.442050 0.556720 -0.574138
C2    C     C_R   0.347164 0.398287 0.444607 0.936197
O6    O     O_R   0.500680 0.557950 0.443280 -0.594286
O7    O     O_3   0.340380 0.506470 0.533650 -0.241331
V1    V     V_3+5 0.064130 0.498800 0.493760 1.192769
O8    O     O_R   0.681160 0.443750 0.562990 -0.595189
C3    C     C_R   0.850699 0.423464 0.578641 1.020093
O9    O     O_R   0.674560 0.577180 0.545890 -0.585362
C4    C     C_R   0.842183 0.600811 0.557104 1.026143
V2    V     V_3+5 0.564560 0.501200 0.506240 1.199480
O10   O     O_3   0.838180 0.493530 0.466350 -0.290699
C5    C     C_R   0.979674 0.837218 0.912002 -0.323417
C6    C     C_R   0.844304 0.660712 0.590979 -0.257096
C7    C     C_R   0.050911 0.721339 0.906028 -0.167194
C8    C     C_R   0.042659 0.778451 0.937106 0.350655
C9    C     C_R   0.936305 0.837988 0.855662 -0.157350
C10   C     C_R   0.963631 0.781703 0.822414 0.139083
C11   C     C_R   0.003141 0.721508 0.849944 -0.074851
C12   C     C_R   0.944714 0.782382 0.763402 -0.099549
C13   C     C_R   0.939283 0.721593 0.734787 0.000365
C14   C     C_R   0.950101 0.663176 0.765513 -0.157722
C15   C     C_R   0.990469 0.662240 0.821330 0.332833
C16   C     C_R   0.934970 0.841205 0.731753 0.288448
C17   C     C_R   0.867774 0.839929 0.676841 0.037778
C18   C     C_R   0.840982 0.778872 0.650809 0.058637
C19   C     C_R   0.906915 0.720400 0.676762 -0.023417
C20   C     C_R   0.754996 0.774941 0.598542 -0.126995
C21   C     C_R   0.749751 0.716238 0.570423 -0.200856
C22   C     C_R   0.931116 0.662913 0.643564 0.283178
H1    H     H_    0.679586 0.715061 0.530759 0.125447
H2    H     H_    0.094865 0.676384 0.926376 0.207035
H3    H     H_    0.878274 0.883004 0.839136 0.175364
H4    H     H_    0.918039 0.616773 0.747282 0.195738
H5    H     H_    0.686945 0.816776 0.578927 0.129411
C23   C     C_3   0.787073 0.298175 0.763583 -0.296437
C24   C     C_3   0.979007 0.280661 0.792979 0.222108
H6    H     H_    0.682611 0.337102 0.775174 0.161930
H7    H     H_    0.225617 0.296812 0.727595 0.139827
C25   C     C_1   0.961770 0.121774 0.875393 -0.216833
C26   C     C_1   0.862484 0.377667 0.624151 -0.261354
C27   C     C_3   0.745361 0.224513 0.761090 0.382886
C28   C     C_3   0.932546 0.207318 0.791059 -0.015226
C29   C     C_3   0.843830 0.218316 0.705050 -0.279017
C30   C     C_3   0.892002 0.291785 0.708088 0.095603
C31   C     C_3   0.035276 0.201380 0.735313 -0.130100
C32   C     C_3   0.084075 0.275397 0.737390 -0.096545
C33   C     C_1   0.949918 0.160181 0.837320 0.134959
C34   C     C_1   0.874392 0.338974 0.662002 0.048993
H8    H     H_    0.133293 0.160956 0.723230 0.209900
H9    H     H_    0.785304 0.192789 0.668828 0.167217
C35   C     C_3   0.520740 0.724463 0.213952 -0.171364
C36   C     C_3   0.323373 0.699005 0.233914 -0.174842
H10   H     H_    0.251728 0.654315 0.219104 0.137249
H11   H     H_    0.611504 0.700920 0.182299 0.154440
C37   C     C_1   0.347553 0.623683 0.376352 -0.302346
C38   C     C_1   0.476334 0.878274 0.125092 -0.231675
C39   C     C_3   0.582180 0.736076 0.274329 -0.216060
C40   C     C_3   0.384731 0.711364 0.293657 0.068841
C41   C     C_3   0.497679 0.806555 0.270769 0.198506
C42   C     C_3   0.437048 0.794810 0.210808 0.043881
C43   C     C_3   0.301083 0.781706 0.290605 0.145875
C44   C     C_3   0.241108 0.769713 0.230575 0.192518
C45   C     C_1   0.361514 0.663266 0.339119 -0.000479
C46   C     C_1   0.461980 0.840836 0.163847 0.003172
H12   H     H_    0.721222 0.721293 0.293388 0.128800
C47   C     C_R   0.466096 0.160146 0.091421 -0.214918
C48   C     C_R   0.362526 0.335728 0.415385 -0.144138
C49   C     C_R   0.425349 0.277761 0.095308 -0.229070
C50   C     C_R   0.458134 0.221536 0.064709 0.156644
C51   C     C_R   0.452556 0.156178 0.149815 0.110813
C52   C     C_R   0.444782 0.215694 0.181494 0.038917
C53   C     C_R   0.414667 0.275300 0.152406 0.118852
C54   C     C_R   0.459515 0.219385 0.240496 0.049267
C55   C     C_R   0.404618 0.277770 0.268637 0.076019
C56   C     C_R   0.357037 0.333554 0.236837 -0.190382
C57   C     C_R   0.370484 0.332845 0.180248 -0.191144
C58   C     C_R   0.545100 0.169104 0.271788 -0.316306
C59   C     C_R   0.539464 0.167328 0.328794 0.200666
C60   C     C_R   0.464148 0.221778 0.357249 0.085797
C61   C     C_R   0.405993 0.278976 0.327515 0.077547
C62   C     C_R   0.455032 0.221377 0.414944 -0.252823
C63   C     C_R   0.405979 0.277531 0.444244 0.218831
C64   C     C_R   0.357050 0.335740 0.357988 -0.268818
H13   H     H_    0.341391 0.377920 0.157823 0.135582
H14   H     H_    0.321308 0.381794 0.338578 0.111556
H15   H     H_    0.407719 0.324298 0.074079 0.141542
H16   H     H_    0.315145 0.379683 0.254297 0.127926
H17   H     H_    0.624008 0.130946 0.252281 0.182250
H18   H     H_    0.489308 0.177602 0.438210 0.139853
O11   O     O_R   0.323550 0.942140 0.056770 -0.571553
O12   O     O_R   0.647080 0.077200 0.045890 -0.606628
O13   O     O_R   0.813610 0.057920 0.943260 -0.589265
C65   C     C_R   0.477270 0.100282 0.057515 0.968515
O14   O     O_R   0.653470 0.943760 0.063000 -0.588824
O15   O     O_R   0.820050 0.923540 0.960490 -0.577991
C66   C     C_R   0.485633 0.922924 0.078444 0.989074
O16   O     O_R   0.317110 0.076520 0.039540 -0.606799
O17   O     O_3   0.483830 0.993580 0.966380 -0.260353
V3    V     V_3+5 0.760140 0.001190 0.006240 1.203001
O18   O     O_R   0.149510 0.922740 0.954070 -0.576924
C67   C     C_R   0.981768 0.899332 0.942743 1.073722
O19   O     O_R   0.143120 0.056170 0.936970 -0.580439
C68   C     C_R   0.973557 0.076301 0.921175 0.955976
V4    V     V_3+5 0.259690 0.998700 0.993700 1.227581
O20   O     O_3   0.986130 0.006420 0.033620 -0.281740
N1    N     N_R   0.004232 0.599943 0.848860 0.234804
O21   O     O_R   0.098072 0.551892 0.826212 -0.373648
O22   O     O_R   0.894973 0.587670 0.890688 -0.383840
C69   C     C_3   0.058183 0.315603 0.843027 -0.471235
C70   C     C_3   0.079620 0.388663 0.832174 -0.646975
H19   H     H_    0.178917 0.397069 0.797434 0.251315
H20   H     H_    0.937825 0.411585 0.822576 0.264820
H21   H     H_    0.139306 0.412296 0.869161 0.261304
H22   H     H_    0.959794 0.308097 0.878125 0.202935
H23   H     H_    0.200781 0.294158 0.853606 0.234966
N2    N     N_R   0.562223 0.195268 0.774583 0.233254
O23   O     O_R   0.489916 0.151456 0.742569 -0.414392
O24   O     O_R   0.483704 0.206435 0.821840 -0.445745
C71   C     C_3   0.047486 0.789626 0.205470 -0.482665
C72   C     C_3   0.013189 0.756018 0.150999 -0.670574
H24   H     H_    0.134842 0.765011 0.122887 0.302103
H25   H     H_    0.997945 0.702518 0.157298 0.224198
H26   H     H_    0.878700 0.775569 0.132129 0.260143
H27   H     H_    0.932093 0.776079 0.234115 0.200819
H28   H     H_    0.042537 0.843461 0.199196 0.206102
N3    N     N_R   0.060350 0.610803 0.659890 0.222680
O25   O     O_R   0.231065 0.624192 0.678120 -0.371633
O26   O     O_R   0.008438 0.550045 0.656880 -0.421257
C73   C     C_3   0.171738 0.809181 0.335672 -0.354866
C74   C     C_3   0.127556 0.882139 0.328461 -0.917256
H29   H     H_    0.258212 0.911857 0.330155 0.266674
H30   H     H_    0.053658 0.892114 0.289033 0.256617
H31   H     H_    0.036110 0.898816 0.362677 0.258517
H32   H     H_    0.035694 0.781652 0.335467 0.180259
H33   H     H_    0.241224 0.800561 0.376095 0.190318
C75   C     C_3   0.603507 0.867854 0.288467 -0.342978
C76   C     C_3   0.644842 0.867975 0.349881 -0.915100
H34   H     H_    0.512384 0.864037 0.374291 0.264908
H35   H     H_    0.741093 0.826457 0.361331 0.261315
H36   H     H_    0.712985 0.914740 0.360925 0.252558
H37   H     H_    0.740415 0.870319 0.265746 0.184344
H38   H     H_    0.518011 0.911949 0.276739 0.182846
C77   C     C_3   0.405825 0.274365 0.506326 -0.401610
C78   C     C_3   0.201479 0.271700 0.528547 -0.872248
H39   H     H_    0.117497 0.315843 0.516034 0.256115
H40   H     H_    0.128197 0.227577 0.513089 0.254161
H41   H     H_    0.205789 0.269251 0.573969 0.253984
H42   H     H_    0.485406 0.230174 0.521290 0.191997
H43   H     H_    0.481281 0.316973 0.523720 0.192249
C79   C     C_3   0.621613 0.106707 0.357296 -0.362132
C80   C     C_3   0.462708 0.058942 0.371850 -0.904656
H44   H     H_    0.353956 0.082295 0.398707 0.258140
H45   H     H_    0.390719 0.041894 0.333983 0.260268
H46   H     H_    0.525468 0.015839 0.393683 0.252461
H47   H     H_    0.725474 0.080800 0.330321 0.189872
H48   H     H_    0.706020 0.119694 0.394164 0.180070
C81   C     C_3   0.471700 0.228446 0.003005 -0.348354
C82   C     C_3   0.272631 0.229216 0.976635 -0.852924
H49   H     H_    0.191097 0.185295 0.988990 0.255258
H50   H     H_    0.190884 0.273726 0.988878 0.249341
H51   H     H_    0.287410 0.229202 0.931466 0.265975
H52   H     H_    0.545907 0.274545 0.992147 0.193950
H53   H     H_    0.559736 0.188349 0.985146 0.187652
C83   C     C_3   0.412420 0.089243 0.175101 -0.381666
C84   C     C_3   0.592728 0.045369 0.178433 -0.925947
H54   H     H_    0.611370 0.018322 0.140205 0.256984
H55   H     H_    0.725860 0.073713 0.184319 0.255800
H56   H     H_    0.578473 0.009324 0.212359 0.244061
H57   H     H_    0.343998 0.093372 0.215794 0.200434
H58   H     H_    0.301474 0.064064 0.150521 0.184456
C85   C     C_3   0.843403 0.903766 0.644643 -0.348142
C86   C     C_3   0.640431 0.931932 0.650921 -0.734367
H59   H     H_    0.532823 0.897915 0.634047 0.230223
H60   H     H_    0.607194 0.940547 0.694693 0.302683
H61   H     H_    0.628293 0.979212 0.628404 0.234488
H62   H     H_    0.949439 0.940596 0.657468 0.236258
H63   H     H_    0.876244 0.897066 0.600636 0.164047
N4    N     N_R   0.093239 0.775306 0.994337 0.225331
O27   O     O_R   0.007741 0.813048 0.029536 -0.440970
O28   O     O_R   0.213315 0.730670 0.012291 -0.404729
N5    N     N_R   0.017130 0.900304 0.752398 0.217152
O29   O     O_R   0.914096 0.953638 0.756479 -0.415185
O30   O     O_R   0.194294 0.899932 0.769544 -0.394230

loop_
_geom_bond_atom_site_label_1
_geom_bond_atom_site_label_2
_geom_bond_distance
_ccdc_geom_bond_type
C13   C19   1.434965 A    
C29   H9    1.110163 S    
V3    O20   1.712753 S    
C12   C13   1.432177 A    
C74   H31   1.106288 S    
C83   C84   1.534724 S    
C4    C6    1.484266 S    
C5    C67   1.481262 S    
C7    C8    1.398980 A    
C55   C61   1.438863 A    
C24   C69   1.526370 S    
C1    O6    1.299331 A    
C44   C71   1.527856 S    
C30   C32   1.545985 S    
C69   C70   1.524669 S    
C74   H29   1.102080 S    
C79   H48   1.109693 S    
C23   C27   1.539732 S    
C14   C15   1.391135 A    
C31   H8    1.107526 S    
C10   C12   1.447136 A    
C9    C10   1.425380 A    
C16   C17   1.419617 A    
C82   H50   1.110733 S    
C60   C62   1.411215 A    
C7    H2    1.081330 S    
N4    O28   1.301583 A    
C73   H33   1.109680 S    
C18   C19   1.418562 A    
C42   C46   1.490117 S    
C59   C79   1.520399 S    
C41   C75   1.527627 S    
V2    O10   2.148395 S    
O15   V3    1.989986 S    
C5    C8    1.408429 A    
C35   C36   1.555496 S    
C39   H12   1.109877 S    
C9    H3    1.075144 S    
C49   C50   1.393380 A    
C20   H5    1.079911 S    
C39   C41   1.550865 S    
C62   H18   1.079765 S    
C43   C73   1.531000 S    
O13   C68   1.298685 A    
O8    V2    1.974600 S    
C82   H49   1.109637 S    
C86   H60   1.110070 S    
O12   C65   1.300669 A    
C51   C83   1.526826 S    
C72   H26   1.110288 S    
O19   C68   1.301224 A    
C27   N2    1.454169 S    
O1    V2    1.993020 S    
C11   C15   1.407872 A    
C18   C20   1.411562 A    
O17   V3    2.161367 S    
O7    V1    2.161430 S    
C69   H22   1.110823 S    
C70   H21   1.110286 S    
C57   H13   1.084578 S    
C25   C33   1.214194 T    
C29   C31   1.555419 S    
C43   C44   1.545778 S    
C40   C43   1.545571 S    
C15   N1    1.437452 S    
C58   H17   1.065146 S    
C78   H40   1.110919 S    
O9    C4    1.298764 A    
O19   V4    1.974415 S    
C76   H36   1.108374 S    
C77   H43   1.110422 S    
C36   C44   1.549300 S    
O5    C3    1.298477 A    
C48   C64   1.402647 A    
C36   C40   1.543043 S    
C28   C31   1.545923 S    
C25   C68   1.449892 S    
C83   H58   1.111406 S    
C85   H62   1.108289 S    
C47   C65   1.485181 S    
C27   C29   1.539184 S    
C76   H34   1.104089 S    
C63   C77   1.517580 S    
C82   H51   1.108729 S    
C52   C53   1.418441 A    
C49   H15   1.085204 S    
O11   V4    1.964729 S    
C78   H41   1.110701 S    
C73   H32   1.108857 S    
C50   C81   1.516381 S    
C75   H38   1.108685 S    
C62   C63   1.397382 A    
C14   H4    1.077424 S    
C70   H20   1.110602 S    
C13   C14   1.406525 A    
C65   O16   1.299184 A    
C5    C9    1.407888 A    
C81   H52   1.112029 S    
C41   C43   1.545495 S    
C56   H16   1.075664 S    
C38   C66   1.456542 S    
C51   C52   1.448292 A    
N4    O27   1.300912 A    
C17   C18   1.420229 A    
C16   N5    1.438564 S    
C54   C58   1.401120 A    
C59   C60   1.413522 A    
C53   C57   1.395432 A    
C83   H57   1.107621 S    
C86   H61   1.110418 S    
C1    C37   1.455723 S    
C39   C40   1.546000 S    
C31   C32   1.557099 S    
C24   C28   1.539781 S    
C19   C22   1.442171 A    
C71   H28   1.110292 S    
N1    O22   1.301427 A    
C60   C61   1.424813 A    
C6    C22   1.418968 A    
C23   C30   1.548485 S    
N2    O23   1.299632 A    
C28   C33   1.482765 S    
O3    C4    1.302301 A    
C75   H37   1.106857 S    
C8    N4    1.441200 S    
C81   H53   1.110385 S    
C85   C86   1.527870 S    
O14   C66   1.305806 A    
C64   H14   1.076485 S    
C22   N3    1.438094 S    
C86   H59   1.110091 S    
O6    V2    1.964923 S    
O9    V2    1.997905 S    
C72   H24   1.109240 S    
C35   C39   1.555272 S    
C77   H42   1.111957 S    
C17   C85   1.525583 S    
N5    O30   1.301352 A    
N3    O25   1.301441 A    
O2    V1    1.964550 S    
C2    C48   1.473054 S    
C48   C63   1.406866 A    
C7    C11   1.408645 A    
O4    C2    1.300708 A    
C81   C82   1.526281 S    
C61   C64   1.422506 A    
C38   C46   1.217932 T    
C74   H30   1.106397 S    
O12   V3    1.992996 S    
O18   V4    1.997838 S    
C27   C28   1.527911 S    
C23   C24   1.551000 S    
N1    O21   1.301208 A    
C79   H47   1.112388 S    
O1    C2    1.295338 A    
C80   H46   1.109992 S    
C12   C16   1.425185 A    
C52   C54   1.447386 A    
C56   C57   1.386271 A    
N3    O26   1.301415 A    
O5    V1    1.959130 S    
C47   C50   1.410349 A    
O8    C3    1.301016 A    
C73   C74   1.527776 S    
C3    C26   1.449066 S    
O18   C67   1.298342 A    
C40   C45   1.488233 S    
O15   C67   1.301465 A    
C42   C44   1.542630 S    
C35   H11   1.109620 S    
O17   V4    1.702547 S    
C41   C42   1.544555 S    
C80   H45   1.111418 S    
O7    V2    1.703836 S    
O4    V1    1.993003 S    
O3    V1    1.989951 S    
V1    O10   1.712846 S    
C78   H39   1.108940 S    
C20   C21   1.388940 A    
C47   C51   1.431829 A    
C54   C55   1.430941 A    
H7    C32   1.110429 S    
C36   H10   1.109886 S    
C84   H55   1.109787 S    
C30   C34   1.480344 S    
O2    C1    1.304931 A    
C23   H6    1.110222 S    
C21   H1    1.084082 S    
C71   H27   1.104524 S    
O14   V3    1.964582 S    
C76   H35   1.107788 S    
C77   C78   1.526845 S    
C29   C30   1.546261 S    
C6    C21   1.393630 A    
N2    O24   1.300126 A    
O13   V3    1.959300 S    
C85   H63   1.109321 S    
C26   C34   1.213822 T    
C55   C56   1.409731 A    
O11   C66   1.299420 A    
C80   H44   1.109774 S    
C37   C45   1.217664 T    
C58   C59   1.393616 A    
C84   H54   1.096673 S    
V4    O20   2.148427 S    
C79   C80   1.527348 S    
C72   H25   1.110167 S    
C49   C53   1.397781 A    
C10   C11   1.420786 A    
O16   V4    1.997624 S    
C70   H19   1.110812 S    
N5    O29   1.301974 A    
C75   C76   1.526649 S    
C24   C32   1.549167 S    
C69   H23   1.108785 S    
C35   C42   1.545853 S    
C71   C72   1.522392 S    
C84   H56   1.110233 S    
