data_mof_unit_14539.cif
_audit_creation_date              2012-12-11T15:45:00-0500
_audit_creation_method            fapswitch 2.2
_symmetry_space_group_name_H-M    P1
_symmetry_Int_Tables_number       1
_space_group_crystal_system       triclinic
_cell_length_a                    19.399081
_cell_length_b                    11.09921
_cell_length_c                    18.736062
_cell_angle_alpha                 89.81846
_cell_angle_beta                  88.721224
_cell_angle_gamma                 90.408496
_cell_volume                      4033.01576111

loop_
_atom_site_label
_atom_site_type_symbol
_atom_type_description
_atom_site_fract_x
_atom_site_fract_y
_atom_site_fract_z
_atom_type_partial_charge
C1    C     C_R   0.761666 0.535528 0.646409 0.543415
C2    C     C_R   0.187817 0.082340 0.547238 -0.172042
C3    C     C_R   0.473591 0.947203 0.970488 0.036774
C4    C     C_R   0.980011 0.231194 0.969205 -0.151979
C5    C     C_R   0.986356 0.231194 0.043678 -0.153623
C6    C     C_R   0.479974 0.731195 0.969229 -0.152170
C7    C     C_R   0.486322 0.731185 0.043703 -0.153501
C8    C     C_3   0.018461 0.565895 0.039965 -0.268701
C9    C     C_3   0.010789 0.564192 0.959955 -0.277010
C10   C     C_3   0.518297 0.065938 0.040042 -0.268709
C11   C     C_3   0.510648 0.064235 0.960031 -0.276720
C12   C     C_R   0.760505 0.531815 0.851931 0.552751
C13   C     C_R   0.320761 0.570272 0.453107 -0.164427
C14   C     C_R   0.240347 0.532844 0.148612 0.548786
C15   C     C_R   0.260504 0.031814 0.851932 0.554415
C16   C     C_R   0.740344 0.032836 0.148609 0.548851
C17   C     C_R   0.773958 0.130619 0.854715 0.547924
C18   C     C_R   0.226547 0.129040 0.145921 0.548580
C19   C     C_R   0.273957 0.630616 0.854714 0.554032
C20   C     C_R   0.726545 0.629043 0.145920 0.556355
C21   C     C_R   0.965304 0.347186 0.855847 0.546885
C22   C     C_R   0.029752 0.346989 0.147282 0.547502
C23   C     C_R   0.465272 0.847190 0.855867 0.550033
C24   C     C_R   0.681520 0.597826 0.554576 -0.166166
C25   C     C_R   0.529737 0.846987 0.147293 0.547052
C26   C     C_R   0.750538 0.101906 0.420052 -0.006554
C27   C     C_R   0.251705 0.100548 0.578131 0.002088
C28   C     C_R   0.259551 0.603602 0.419464 0.003953
C29   C     C_R   0.748378 0.605463 0.581151 -0.007937
C30   C     C_R   0.694444 0.136831 0.464536 0.004169
C31   C     C_R   0.308229 0.138900 0.533654 0.000901
C32   C     C_R   0.221529 0.693661 0.454834 -0.039663
C33   C     C_R   0.802919 0.640139 0.533895 0.001828
C34   C     C_R   0.703536 0.140423 0.538511 0.076706
C35   C     C_3   0.663391 0.261813 0.471626 -0.239398
C36   C     C_R   0.300667 0.142079 0.458977 0.054739
C37   C     C_R   0.235970 0.728700 0.524548 0.045576
C38   C     C_R   0.789086 0.657445 0.461695 0.084838
C39   C     C_3   0.596857 0.312676 0.650613 -0.014573
C40   C     C_3   0.528104 0.281794 0.687918 -0.411735
C41   C     C_3   0.400651 0.324441 0.341468 -0.013385
C42   C     C_3   0.465328 0.292655 0.297327 -0.434046
C43   C     C_3   0.101279 0.781997 0.652849 -0.004279
C44   C     C_3   0.046274 0.722362 0.701269 -0.399275
C45   C     C_3   0.900276 0.821435 0.346171 -0.007385
C46   C     C_3   0.337677 0.265994 0.528177 -0.235796
C47   C     C_3   0.967785 0.794325 0.305462 -0.424794
C48   C     C_3   0.146979 0.710671 0.467836 -0.237422
C49   C     C_3   0.842148 0.759173 0.529895 -0.241624
C50   C     C_3   0.670474 0.257435 0.552134 0.155847
C51   C     C_3   0.330614 0.265961 0.447460 0.158797
C52   C     C_3   0.163080 0.763123 0.541865 0.158774
C53   C     C_R   0.239181 0.534212 0.354536 0.535821
C54   C     C_3   0.830012 0.768705 0.449905 0.158202
C55   C     C_R   0.764089 0.103497 0.569628 -0.020248
C56   C     C_R   0.239209 0.101157 0.428760 -0.013868
C57   C     C_R   0.286789 0.668556 0.562745 0.026595
C58   C     C_R   0.723787 0.637728 0.434922 -0.017788
C59   C     C_R   0.993946 0.329399 0.424346 -0.039069
C60   C     C_R   0.003769 0.331423 0.574858 -0.035645
C61   C     C_R   0.487446 0.828025 0.420629 -0.037575
C62   C     C_R   0.496648 0.834771 0.571239 -0.032233
C63   C     C_R   0.992655 0.106965 0.427842 -0.105300
C64   C     C_R   0.262263 0.034682 0.645696 0.543887
C65   C     C_R   0.008036 0.110005 0.575414 -0.100017
C66   C     C_R   0.487802 0.606738 0.424564 -0.103270
C67   C     C_R   0.506559 0.612886 0.571709 -0.113649
C68   C     C_R   0.993571 0.000614 0.466845 -0.166828
C69   C     C_R   0.999457 0.002181 0.540075 -0.163143
C70   C     C_R   0.494490 0.500427 0.462966 -0.156488
C71   C     C_R   0.503073 0.504103 0.535973 -0.164025
C72   C     C_R   0.003226 0.220070 0.538389 0.018860
C73   C     C_R   0.997465 0.218805 0.462553 0.021388
C74   C     C_R   0.497629 0.722279 0.535049 0.011108
C75   C     C_R   0.738468 0.035270 0.353462 0.537732
C76   C     C_R   0.491068 0.718987 0.459363 0.016245
C77   C     C_R   0.006822 0.435978 0.534364 0.000164
C78   C     C_R   0.986116 0.434782 0.463652 -0.005911
C79   C     C_R   0.494766 0.939707 0.529894 0.002172
C80   C     C_R   0.474797 0.932965 0.458545 -0.009023
C81   C     C_R   0.776519 0.131082 0.643966 0.556672
C82   C     C_R   0.224713 0.128881 0.355117 0.552452
C83   C     C_R   0.292999 0.674571 0.640070 0.586822
C84   C     C_R   0.709795 0.666202 0.361347 0.562102
C85   C     C_R   0.025010 0.544577 0.565224 -0.045026
C86   C     C_R   0.820502 0.078680 0.524531 -0.178592
C87   C     C_R   0.970599 0.543942 0.431011 -0.023561
C88   C     C_R   0.511557 0.053453 0.557432 -0.049028
C89   C     C_R   0.461539 0.038976 0.421889 -0.024092
C90   C     C_R   0.011264 0.651152 0.531292 -0.133763
C91   C     C_R   0.992651 0.649128 0.462023 -0.092238
C92   C     C_R   0.507192 0.153673 0.514475 -0.098789
C93   C     C_R   0.496116 0.139641 0.444083 -0.045729
C94   C     C_R   0.755785 0.090265 0.080164 0.019296
C95   C     C_R   0.248984 0.087159 0.921253 0.016931
C96   C     C_R   0.255795 0.590282 0.080169 0.018744
C97   C     C_R   0.182716 0.073925 0.473953 -0.173063
C98   C     C_R   0.748990 0.587155 0.921254 0.016692
C99   C     C_R   0.815936 0.059421 0.042111 0.026957
C100  C     C_R   0.184901 0.078017 0.956143 0.018407
C101  C     C_R   0.315944 0.559430 0.042114 0.026903
C102  C     C_R   0.684904 0.578033 0.956140 0.018371
C103  C     C_R   0.818593 0.068200 0.969149 0.045864
C104  C     C_R   0.180530 0.085479 0.029177 0.048252
C105  C     C_R   0.318598 0.568203 0.969151 0.045113
C106  C     C_R   0.680530 0.585498 0.029173 0.047183
C107  C     C_R   0.706721 0.159286 0.968916 -0.167464
C108  C     C_R   0.332850 0.598063 0.523779 -0.163065
C109  C     C_R   0.301254 0.133306 0.035530 -0.174433
C110  C     C_R   0.206729 0.659301 0.968919 -0.167650
C111  C     C_R   0.801259 0.633284 0.035532 -0.174303
C112  C     C_R   0.704160 0.152496 0.043736 -0.167479
C113  C     C_R   0.306298 0.125131 0.961038 -0.162863
C114  C     C_R   0.204176 0.652529 0.043741 -0.167757
C115  C     C_R   0.806309 0.625099 0.961041 -0.162858
C116  C     C_3   0.857348 0.945750 0.040532 -0.271036
C117  C     C_3   0.129957 0.982599 0.954499 -0.272788
C118  C     C_3   0.357360 0.445763 0.040541 -0.271185
C119  C     C_R   0.669842 0.609260 0.482059 -0.181640
C120  C     C_3   0.629954 0.482626 0.954494 -0.272515
C121  C     C_3   0.859214 0.955483 0.960058 -0.274657
C122  C     C_3   0.127179 0.988233 0.035101 -0.264869
C123  C     C_3   0.359223 0.455488 0.960065 -0.274221
C124  C     C_3   0.627172 0.488261 0.035096 -0.264741
C125  C     C_R   0.762560 0.109179 0.930642 0.019975
C126  C     C_R   0.238599 0.105690 0.070569 0.022495
C127  C     C_R   0.262563 0.609181 0.930643 0.019209
C128  C     C_R   0.738598 0.605694 0.070568 0.021207
C129  C     C_R   0.972444 0.344674 0.647470 0.531100
C130  C     C_R   0.814720 0.085692 0.450995 -0.172518
C131  C     C_R   0.027268 0.343957 0.352463 0.527828
C132  C     C_R   0.471024 0.845439 0.646236 0.524202
C133  C     C_R   0.526245 0.843673 0.351523 0.524319
C134  C     C_R   0.993930 0.340924 0.080003 0.019194
C135  C     C_R   0.979623 0.341076 0.931426 0.021913
C136  C     C_R   0.493877 0.840911 0.080036 0.018593
C137  C     C_R   0.479559 0.841084 0.931459 0.020911
C138  C     C_R   0.980396 0.447821 0.043061 0.023627
C139  C     C_R   0.973693 0.447209 0.970441 0.037133
C140  C     C_R   0.480295 0.947802 0.043111 0.022847
Cr1   Cr    Cr6+3 0.885860 0.491680 0.749630 1.002050
Cr2   Cr    Cr6+3 0.112430 0.179310 0.249850 1.000363
Cr3   Cr    Cr6+3 0.387570 0.679310 0.750150 0.992008
Cr4   Cr    Cr6+3 0.612430 0.679310 0.249850 0.994695
Cr5   Cr    Cr6+3 0.114140 0.491680 0.250370 0.999742
Cr6   Cr    Cr6+3 0.385860 0.991680 0.749630 0.998373
Cr7   Cr    Cr6+3 0.614140 0.991680 0.250370 0.996339
Cr8   Cr    Cr6+3 0.730490 0.332970 0.748720 0.970838
Cr9   Cr    Cr6+3 0.269510 0.332970 0.251280 0.964394
Cr10  Cr    Cr6+3 0.230490 0.832970 0.748720 0.975802
Cr11  Cr    Cr6+3 0.769510 0.832970 0.251280 0.968760
Cr12  Cr    Cr6+3 0.887570 0.179310 0.750150 0.999337
H1    H     H_    0.870129 0.060103 0.546189 0.175582
H2    H     H_    0.346487 0.156612 0.065544 0.119143
H3    H     H_    0.164135 0.698381 0.941136 0.115596
H4    H     H_    0.846493 0.656574 0.065548 0.119802
H5    H     H_    0.659244 0.185994 0.072249 0.117594
H6    H     H_    0.356390 0.137826 0.935648 0.137368
H7    H     H_    0.159266 0.686046 0.072257 0.117307
H8    H     H_    0.856409 0.637760 0.935659 0.137325
H9    H     H_    0.827646 0.866224 0.059845 0.171633
H10   H     H_    0.148422 0.894847 0.934511 0.161573
H11   H     H_    0.327662 0.366237 0.059857 0.171934
H12   H     H_    0.132989 0.051402 0.452718 0.165612
H13   H     H_    0.648416 0.394867 0.934511 0.161803
H14   H     H_    0.908814 0.957816 0.064555 0.121842
H15   H     H_    0.082158 0.015369 0.929508 0.124450
H16   H     H_    0.408825 0.457836 0.064564 0.121745
H17   H     H_    0.582158 0.515403 0.929499 0.124549
H18   H     H_    0.911781 0.971807 0.937365 0.131883
H19   H     H_    0.077294 0.020321 0.057048 0.136534
H20   H     H_    0.411788 0.471813 0.937367 0.132055
H21   H     H_    0.577288 0.520356 0.057039 0.136577
H22   H     H_    0.829556 0.883012 0.933407 0.141534
H23   H     H_    0.374270 0.553139 0.549777 0.166700
H24   H     H_    0.146925 0.905707 0.061150 0.135902
H25   H     H_    0.329565 0.383012 0.933418 0.142520
H26   H     H_    0.646912 0.405730 0.061146 0.136521
H27   H     H_    0.977862 0.146371 0.941240 0.123241
H28   H     H_    0.990481 0.146648 0.071812 0.117280
H29   H     H_    0.477854 0.646378 0.941256 0.123238
H30   H     H_    0.490474 0.646636 0.071829 0.117386
H31   H     H_    0.072797 0.556735 0.055597 0.166856
H32   H     H_    0.977020 0.636764 0.940161 0.132169
H33   H     H_    0.572637 0.056895 0.055681 0.167122
H34   H     H_    0.618614 0.599508 0.462630 0.169573
H35   H     H_    0.476870 0.136786 0.940233 0.132185
H36   H     H_    0.989277 0.639611 0.066639 0.127048
H37   H     H_    0.060568 0.554151 0.930042 0.137165
H38   H     H_    0.489063 0.139596 0.066715 0.126632
H39   H     H_    0.560445 0.054253 0.930143 0.137366
H40   H     H_    0.859224 0.067720 0.418008 0.134887
H41   H     H_    0.143180 0.059037 0.580067 0.134537
H42   H     H_    0.356019 0.509287 0.429433 0.152851
H43   H     H_    0.638874 0.575845 0.589835 0.133384
H44   H     H_    0.123782 0.619329 0.467612 0.179099
H45   H     H_    0.021374 0.736517 0.554095 0.137750
H46   H     H_    0.896368 0.751831 0.544624 0.151095
H47   H     H_    0.610299 0.268741 0.453224 0.131304
H48   H     H_    0.391589 0.271611 0.546050 0.147369
H49   H     H_    0.697351 0.331814 0.446243 0.112184
H50   H     H_    0.303615 0.332967 0.555118 0.109849
H51   H     H_    0.125072 0.777525 0.430479 0.093818
H52   H     H_    0.814978 0.830318 0.561051 0.101724
H53   H     H_    0.705617 0.328534 0.571096 0.155772
H54   H     H_    0.292387 0.332150 0.430297 0.151977
H55   H     H_    0.157185 0.861474 0.542051 0.111319
H56   H     H_    0.998907 0.729752 0.432528 0.156860
H57   H     H_    0.798450 0.846832 0.435771 0.141133
H58   H     H_    0.987871 0.916738 0.440630 0.124645
H59   H     H_    0.993435 0.920556 0.570157 0.095226
H60   H     H_    0.493129 0.414966 0.436431 0.147981
H61   H     H_    0.504747 0.422727 0.565815 0.116901
H62   H     H_    0.982683 0.099970 0.371498 0.126628
H63   H     H_    0.018729 0.105169 0.631682 0.129929
H64   H     H_    0.477602 0.599979 0.368222 0.127481
H65   H     H_    0.518462 0.609052 0.627681 0.131141
H66   H     H_    0.948386 0.546833 0.378630 0.173570
H67   H     H_    0.514730 0.242932 0.532658 0.159567
H68   H     H_    0.050379 0.543748 0.615513 0.191066
H69   H     H_    0.439739 0.037412 0.369165 0.143234
H70   H     H_    0.533346 0.064501 0.609305 0.195220
H71   H     H_    0.596033 0.406824 0.632115 0.133393
H72   H     H_    0.634397 0.302313 0.692808 0.223302
H73   H     H_    0.530994 0.191808 0.713750 0.155829
H74   H     H_    0.516824 0.349567 0.729998 0.090998
H75   H     H_    0.484804 0.281000 0.650446 0.136011
H76   H     H_    0.403472 0.422751 0.346390 0.138776
H77   H     H_    0.360646 0.297675 0.306016 0.232332
H78   H     H_    0.509045 0.212203 0.409390 0.147534
H79   H     H_    0.471403 0.193784 0.292496 0.155661
H80   H     H_    0.460546 0.329287 0.242362 0.094071
H81   H     H_    0.512194 0.335170 0.319382 0.120792
H82   H     H_    0.080018 0.864082 0.628829 0.077258
H83   H     H_    0.138260 0.812504 0.691329 0.231801
H84   H     H_    0.065718 0.636467 0.723462 0.169034
H85   H     H_    0.033976 0.782855 0.746906 0.077858
H86   H     H_    0.997307 0.707204 0.673305 0.139143
H87   H     H_    0.902018 0.915720 0.363615 0.130554
H88   H     H_    0.862554 0.808576 0.304835 0.234622
H89   H     H_    0.664129 0.198373 0.941134 0.115726
H90   H     H_    0.972934 0.696379 0.295435 0.165029
H91   H     H_    0.967756 0.840731 0.252794 0.091406
H92   H     H_    0.013589 0.828843 0.333343 0.115198
O1    O     O_R   0.957020 0.451640 0.669920 -0.528045
O2    O     O_R   0.168040 0.093290 0.169870 -0.518190
O3    O     O_R   0.331960 0.593290 0.830130 -0.514934
O4    O     O_R   0.668040 0.593290 0.169870 -0.515088
O5    O     O_R   0.945600 0.250580 0.824860 -0.511682
O6    O     O_R   0.054400 0.250580 0.175140 -0.510087
O7    O     O_R   0.445600 0.750580 0.824860 -0.509855
O8    O     O_R   0.554400 0.750580 0.175140 -0.509584
O9    O     O_3   0.834640 0.334650 0.749500 -0.251555
O10   O     O_3   0.165360 0.334650 0.250500 -0.246788
O11   O     O_3   0.334640 0.834650 0.749500 -0.278216
O12   O     O_R   0.042980 0.451640 0.330080 -0.531523
O13   O     O_3   0.665360 0.834650 0.250500 -0.265746
O14   O     O_R   0.821450 0.543440 0.674610 -0.486922
O15   O     O_R   0.178550 0.543440 0.325390 -0.488372
O16   O     O_R   0.321450 0.043440 0.674610 -0.491729
O17   O     O_R   0.678550 0.043440 0.325390 -0.486987
O18   O     O_R   0.715320 0.458650 0.668100 -0.582007
O19   O     O_R   0.284680 0.458650 0.331900 -0.583058
O20   O     O_R   0.215320 0.958650 0.668100 -0.577178
O21   O     O_R   0.784680 0.958650 0.331900 -0.589286
O22   O     O_R   0.737170 0.209590 0.674530 -0.517833
O23   O     O_R   0.457020 0.951640 0.669920 -0.531059
O24   O     O_R   0.262830 0.209590 0.325470 -0.535593
O25   O     O_R   0.237170 0.709590 0.674530 -0.470310
O26   O     O_R   0.762830 0.709590 0.325470 -0.507488
O27   O     O_R   0.832710 0.092740 0.669580 -0.525752
O28   O     O_R   0.167290 0.092740 0.330420 -0.522140
O29   O     O_R   0.332710 0.592740 0.669580 -0.528842
O30   O     O_R   0.667290 0.592740 0.330420 -0.516710
O31   O     O_R   0.946290 0.250060 0.676040 -0.508131
O32   O     O_R   0.053710 0.250060 0.323960 -0.507360
O33   O     O_R   0.446290 0.750060 0.676040 -0.523370
O34   O     O_R   0.542980 0.951640 0.330080 -0.525456
O35   O     O_R   0.553710 0.750060 0.323960 -0.522074
O36   O     O_R   0.956270 0.452200 0.830470 -0.526053
O37   O     O_R   0.043730 0.452200 0.169530 -0.528297
O38   O     O_R   0.456270 0.952200 0.830470 -0.523001
O39   O     O_R   0.543730 0.952200 0.169530 -0.528883
O40   O     O_R   0.820760 0.543950 0.823440 -0.510790
O41   O     O_R   0.179240 0.543950 0.176560 -0.508237
O42   O     O_R   0.320760 0.043950 0.823440 -0.508180
O43   O     O_R   0.679240 0.043950 0.176560 -0.507467
O44   O     O_R   0.714570 0.459210 0.828640 -0.532259
O45   O     O_R   0.736470 0.210100 0.823360 -0.514473
O46   O     O_R   0.285430 0.459210 0.171360 -0.532450
O47   O     O_R   0.214570 0.959210 0.828640 -0.534113
O48   O     O_R   0.785430 0.959210 0.171360 -0.533840
O49   O     O_3   0.610061 0.232754 0.593473 -0.599540
O50   O     O_3   0.395542 0.265968 0.409738 -0.600971
O51   O     O_3   0.132299 0.700859 0.601707 -0.551430
O52   O     O_3   0.887084 0.740854 0.404077 -0.585690
O53   O     O_R   0.263530 0.210100 0.176640 -0.517759
O54   O     O_R   0.236470 0.710100 0.823360 -0.513404
O55   O     O_R   0.763530 0.710100 0.176640 -0.513099
O56   O     O_R   0.831960 0.093290 0.830130 -0.518126

loop_
_geom_bond_atom_site_label_1
_geom_bond_atom_site_label_2
_ccdc_geom_bond_type
C99   C103  A    
C84   O30   A    
C107  C112  A    
C136  C140  A    
C91   H56   S    
C51   H54   S    
C61   C133  S    
C129  O1    A    
C135  C139  A    
C48   H51   S    
C59   C131  S    
Cr10  O54   S    
Cr3   O7    S    
C43   O51   S    
C44   H84   S    
C60   C72   A    
C14   O41   A    
C29   C33   A    
Cr3   O33   S    
C10   H33   S    
C105  C123  S    
Cr4   O30   S    
C54   H57   S    
Cr2   O2    S    
C14   O46   A    
Cr1   O14   S    
C57   C83   S    
C69   H59   S    
C59   C73   A    
C26   C130  A    
C42   H79   S    
C17   O56   A    
C116  H14   S    
C10   C140  S    
C9    H37   S    
C130  H40   S    
C45   C47   S    
C87   C91   A    
C27   C31   A    
C62   C132  S    
C28   C32   A    
Cr11  O55   S    
C99   C116  S    
C30   C34   A    
C35   H49   S    
C24   H43   S    
C98   C102  A    
C43   C44   S    
C97   H12   S    
C66   C76   A    
C1    C29   S    
Cr7   O17   S    
C67   C74   A    
C109  H2    S    
C12   O40   A    
C4    C135  A    
C13   H42   S    
C88   H70   S    
C39   H72   S    
C4    H27   S    
C103  C121  S    
C1    O14   A    
C75   O21   A    
C23   O38   A    
C72   C73   A    
C43   H82   S    
C44   H86   S    
C85   C90   A    
C6    C7    A    
C16   C94   S    
C33   C38   A    
C133  O35   A    
C115  H8    S    
C2    H41   S    
C55   C86   A    
C119  H34   S    
C9    H32   S    
C66   C70   A    
C122  H24   S    
C58   C119  A    
C40   H74   S    
Cr6   O23   S    
C3    C11   S    
C27   C64   S    
C48   C52   S    
Cr8   O44   S    
C18   O53   A    
C106  C124  S    
C31   C36   A    
C107  H89   S    
C100  C117  S    
C61   C80   A    
Cr8   O18   S    
Cr9   O19   S    
C37   C57   A    
C54   O52   S    
C78   C87   A    
C75   O17   A    
Cr5   O15   S    
C70   H60   S    
Cr6   O16   S    
C100  C104  A    
C68   H58   S    
C35   H47   S    
C74   C76   A    
C101  C118  S    
C8    C138  S    
C22   O6    A    
C89   H69   S    
C47   H92   S    
C120  H17   S    
C104  C122  S    
C108  H23   S    
Cr11  O48   S    
C110  H3    S    
C31   C46   S    
Cr1   O1    S    
Cr5   O12   S    
C25   O39   A    
C110  C114  A    
C123  H20   S    
Cr7   O43   S    
C121  H18   S    
C41   H76   S    
C77   C85   A    
Cr3   O11   S    
C56   C97   A    
C13   C108  A    
C59   C78   A    
C61   C76   A    
C105  C127  A    
C116  H9    S    
C107  C125  A    
C39   C40   S    
C37   C52   S    
C86   C130  A    
C46   C51   S    
C92   H67   S    
C117  C122  S    
C45   H87   S    
Cr1   O40   S    
C46   H50   S    
C26   C75   S    
C32   C37   A    
C16   O43   A    
Cr4   O13   S    
C70   C71   A    
C8    H31   S    
C26   C30   A    
Cr11  O13   S    
C63   C68   A    
Cr9   O46   S    
C60   C129  S    
C47   H90   S    
C56   C82   S    
C117  H10   S    
C65   C72   A    
Cr2   O10   S    
C6    C137  A    
C7    C136  A    
C43   H83   S    
C18   C126  S    
C132  O23   A    
Cr10  O11   S    
Cr9   O53   S    
C15   O47   A    
C21   C135  S    
Cr4   O35   S    
C11   H39   S    
C63   H62   S    
C89   C93   A    
C103  C125  A    
C49   H52   S    
C10   C11   S    
C1    O18   A    
C109  C126  A    
C4    C5    A    
C57   C108  A    
C122  H19   S    
C111  C128  A    
C82   O24   A    
C83   O29   A    
Cr10  O20   S    
C42   H80   S    
C93   H78   S    
Cr6   O11   S    
C52   H55   S    
C41   C42   S    
C123  H25   S    
C96   C114  A    
C90   H45   S    
C77   C78   A    
C8    H36   S    
C53   O15   A    
C85   H68   S    
C15   C95   S    
Cr12  O9    S    
C42   H81   S    
Cr12  O27   S    
C33   C49   S    
C106  C128  A    
C20   O55   A    
C87   H66   S    
Cr8   O22   S    
C80   C89   A    
C24   C29   A    
C51   O50   S    
C23   O7    A    
C38   C58   A    
C2    C97   A    
C68   C69   A    
C39   O49   S    
C13   C28   A    
C2    C27   A    
C3    C137  A    
Cr5   O41   S    
C12   C98   S    
Cr6   O38   S    
Cr5   O37   S    
C34   C55   A    
C96   C101  A    
C32   C48   S    
C39   H71   S    
C14   C96   S    
C79   C88   A    
C120  H13   S    
C118  H11   S    
C112  H5    S    
C67   H65   S    
C116  C121  S    
C131  O12   A    
C63   C73   A    
C71   H61   S    
C133  O34   A    
Cr7   O13   S    
C5    H28   S    
C36   C56   A    
Cr7   O39   S    
C121  H22   S    
C38   C54   S    
C45   O52   S    
C129  O31   A    
Cr2   O32   S    
Cr7   O34   S    
C102  C120  S    
C24   C119  A    
C95   C100  A    
Cr1   O36   S    
Cr12  O31   S    
C53   O19   A    
C28   C53   S    
C64   O20   A    
Cr11  O26   S    
C65   H63   S    
C19   O54   A    
C84   O26   A    
Cr1   O9    S    
C50   O49   S    
C47   H91   S    
C9    C139  S    
C90   C91   A    
C117  H15   S    
C65   C69   A    
C118  H16   S    
C92   C93   A    
Cr3   O3    S    
C67   C71   A    
C118  C123  S    
C52   O51   S    
Cr12  O56   S    
C138  C139  A    
C131  O32   A    
Cr3   O29   S    
C62   C74   A    
Cr9   O24   S    
C12   O44   A    
Cr2   O6    S    
C44   H85   S    
C98   C115  A    
C19   O3    A    
C132  O33   A    
C10   H38   S    
C30   C35   S    
C22   C134  S    
C11   H35   S    
C86   H1    S    
C20   C128  S    
C21   O5    A    
C25   O8    A    
C49   C54   S    
C81   O27   A    
C15   O42   A    
C82   O28   A    
C94   C112  A    
C40   H73   S    
C83   O25   A    
C25   C136  S    
Cr11  O21   S    
C88   C92   A    
C8    C9    S    
C113  H6    S    
C111  H4    S    
C124  H26   S    
C109  C113  A    
C110  C127  A    
C41   O50   S    
Cr4   O8    S    
Cr8   O9    S    
C48   H44   S    
C66   H64   S    
Cr10  O47   S    
Cr10  O25   S    
Cr12  O5    S    
C49   H46   S    
C101  C105  A    
C5    C134  A    
C60   C77   A    
C34   C50   S    
C6    H29   S    
C62   C79   A    
C21   O36   A    
C124  H21   S    
Cr9   O10   S    
Cr6   O42   S    
C58   C84   S    
C18   O2    A    
C46   H48   S    
C35   C50   S    
C36   C51   S    
C41   H77   S    
Cr4   O4    S    
C81   O22   A    
C55   C81   S    
C7    H30   S    
C23   C137  S    
C22   O37   A    
C134  C138  A    
C40   H75   S    
C45   H88   S    
C17   C125  S    
C17   O45   A    
C94   C99   A    
C95   C113  A    
Cr8   O45   S    
C19   C127  S    
C102  C106  A    
Cr5   O10   S    
Cr2   O28   S    
C114  H7    S    
C79   C80   A    
C50   H53   S    
C64   O16   A    
C20   O4    A    
C104  C126  A    
C111  C115  A    
C3    C140  A    
C16   O48   A    
C120  C124  S    
