data_mof_unit_10440.cif
_audit_creation_date              2012-12-10T17:47:18-0500
_audit_creation_method            fapswitch 2.2
_symmetry_space_group_name_H-M    P1
_symmetry_Int_Tables_number       1
_space_group_crystal_system       triclinic
_cell_length_a                    11.708425
_cell_length_b                    14.779205
_cell_length_c                    14.749409
_cell_angle_alpha                 64.915649
_cell_angle_beta                  104.021025
_cell_angle_gamma                 103.067773
_cell_volume                      2220.44972306

loop_
_atom_site_label
_atom_site_type_symbol
_atom_type_description
_atom_site_fract_x
_atom_site_fract_y
_atom_site_fract_z
_atom_type_partial_charge
C1    C     C_R   0.479693 0.119711 0.311867 0.860376
C2    C     C_R   0.523513 0.880060 0.687711 0.848932
C3    C     C_R   0.434196 0.324008 0.998639 0.000337
C4    C     C_R   0.590343 0.673610 0.997502 0.004776
C5    C     C_R   0.499330 0.466689 0.052075 0.123029
C6    C     C_R   0.477868 0.535024 0.948930 0.118702
C7    C     C_R   0.433269 0.495499 0.873129 -0.204252
C8    C     C_R   0.561284 0.505349 0.126083 -0.201770
C9    C     C_R   0.415260 0.392160 0.897481 -0.131182
C10   C     C_R   0.608633 0.606293 0.098665 -0.130206
C11   C     C_R   0.691140 0.285548 0.671406 -0.266842
C12   C     C_R   0.303726 0.715735 0.329245 -0.280477
C13   C     C_R   0.670859 0.209932 0.635009 0.463299
C14   C     C_R   0.332819 0.795629 0.360460 0.461696
C15   C     C_R   0.509092 0.281899 0.513292 -0.028266
C16   C     C_R   0.481735 0.713020 0.492208 -0.043024
C17   C     C_R   0.533837 0.367131 0.541226 -0.043266
C18   C     C_R   0.450388 0.626147 0.466867 -0.035045
C19   C     C_R   0.622397 0.363706 0.626758 0.043646
C20   C     C_R   0.362659 0.631137 0.380413 0.035871
C21   C     C_R   0.475301 0.455205 0.487710 0.034706
C22   C     C_R   0.504077 0.535873 0.522916 0.036728
C23   C     C_R   0.284112 0.999927 0.499967 0.831198
C24   C     C_R   0.715858 0.000127 0.499925 0.809629
C25   C     C_R   0.583937 0.523106 0.614160 -0.246485
C26   C     C_R   0.391757 0.466514 0.398590 -0.238071
C27   C     C_R   0.643135 0.439504 0.664898 0.279562
C28   C     C_R   0.335021 0.551717 0.346497 0.275878
C29   C     C_1   0.162325 0.999765 0.500008 -0.143293
C30   C     C_1   0.837639 0.000185 0.500044 -0.159796
C31   C     C_1   0.059871 0.999833 0.500091 0.020722
C32   C     C_1   0.940109 0.000039 0.500129 0.017032
C33   C     C_R   0.465127 0.187615 0.203065 -0.208261
C34   C     C_R   0.545816 0.811019 0.795306 -0.215817
C35   C     C_R   0.421792 0.219363 0.022777 0.338804
C36   C     C_R   0.653734 0.771768 0.967895 0.344059
C37   C     C_R   0.444885 0.152084 0.124755 0.366727
C38   C     C_R   0.640164 0.835471 0.864271 0.345870
C39   C     C_R   0.474373 0.291155 0.177870 -0.314612
C40   C     C_R   0.483943 0.712936 0.825600 -0.319853
C41   C     C_R   0.468502 0.361061 0.076913 0.037326
C42   C     C_R   0.514405 0.640258 0.923663 0.036351
Cu1   Cu    Cu3+1 0.469550 0.918260 0.475690 0.979542
Cu2   Cu    Cu3+1 0.530450 0.081740 0.524310 0.996431
H1    H     H_    0.387667 0.365958 0.836068 0.185749
H2    H     H_    0.662991 0.630834 0.157113 0.187368
H3    H     H_    0.602146 0.577027 0.648901 0.161337
H4    H     H_    0.368786 0.410275 0.366458 0.161504
H5    H     H_    0.414442 0.693683 0.770840 0.183297
H6    H     H_    0.484620 0.316265 0.238491 0.184215
H7    H     H_    0.420813 0.543117 0.793247 0.146822
H8    H     H_    0.584738 0.458057 0.205027 0.147030
H9    H     H_    0.553097 0.717759 0.552371 0.145148
H10   H     H_    0.436591 0.274996 0.454726 0.141138
H11   H     H_    0.764825 0.284366 0.732318 0.214218
H12   H     H_    0.233452 0.720680 0.265104 0.217880
N1    N     N_R   0.576230 0.204580 0.560790 -0.201658
N2    N     N_R   0.423770 0.795420 0.439210 -0.216589
O1    O     O_R   0.459870 0.022090 0.338120 -0.513670
O2    O     O_R   0.540130 0.977910 0.661880 -0.526224
O3    O     O_R   0.511290 0.160150 0.379180 -0.602755
O4    O     O_R   0.488710 0.839850 0.620820 -0.600890
O5    O     O_R   0.311490 0.930960 0.479480 -0.535535
O6    O     O_R   0.688510 0.069040 0.520520 -0.525776
O7    O     O_R   0.362910 0.069020 0.520540 -0.589998
O8    O     O_R   0.637090 0.930980 0.479460 -0.601846
O9    O     O_3   0.729876 0.912933 0.829412 -0.548948
C43   C     C_3   0.818721 0.875168 0.809846 0.150935
H13   H     H_    0.821189 0.910937 0.727128 0.157866
H14   H     H_    0.804348 0.791692 0.831198 0.118321
C44   C     C_3   0.939702 0.902927 0.866117 -0.709198
H15   H     H_    0.943000 0.861281 0.949216 0.271130
H16   H     H_    0.010548 0.882634 0.842869 0.194227
H17   H     H_    0.956730 0.985096 0.848503 0.263030
O10   O     O_3   0.442999 0.051063 0.147104 -0.535611
C45   C     C_3   0.559323 0.033992 0.153678 0.120746
H18   H     H_    0.629176 0.078095 0.191342 0.113545
H19   H     H_    0.577348 0.053850 0.076319 0.169513
C46   C     C_3   0.569188 0.922891 0.216453 -0.767697
H20   H     H_    0.503635 0.875384 0.180739 0.247979
H21   H     H_    0.660148 0.908157 0.223442 0.189857
H22   H     H_    0.552781 0.902106 0.294029 0.277520
O11   O     O_3   0.400393 0.183756 0.946447 -0.575173
C47   C     C_3   0.278041 0.147995 0.929239 0.078074
H23   H     H_    0.223062 0.208454 0.909070 0.140870
H24   H     H_    0.251487 0.082033 0.997384 0.196343
C48   C     C_3   0.252633 0.114640 0.841051 -0.738481
H25   H     H_    0.303677 0.052337 0.859865 0.252350
H26   H     H_    0.156334 0.087746 0.825490 0.206198
H27   H     H_    0.278541 0.178953 0.771857 0.251542
O12   O     O_3   0.747644 0.795609 0.035561 -0.574272
C49   C     C_3   0.727669 0.878557 0.050519 0.060845
H28   H     H_    0.647742 0.857626 0.087107 0.133624
H29   H     H_    0.715176 0.945758 0.978207 0.201348
C50   C     C_3   0.835433 0.908062 0.119214 -0.724946
H30   H     H_    0.916741 0.925738 0.085213 0.265300
H31   H     H_    0.823578 0.975982 0.128406 0.195018
H32   H     H_    0.846772 0.845128 0.194951 0.253491
Br1   Br    Br    0.750658 0.433275 0.788415 -0.519945
Br2   Br    Br    0.222406 0.555517 0.226080 -0.514519
Br3   Br    Br    0.237624 0.902610 0.286809 -0.472902
Br4   Br    Br    0.789507 0.123538 0.688979 -0.489453

loop_
_geom_bond_atom_site_label_1
_geom_bond_atom_site_label_2
_ccdc_geom_bond_type
C21   C26   A    
C4    C36   A    
C9    H1    S    
C50   H30   S    
C47   C48   S    
O10   C45   S    
C50   H32   S    
Cu1   O5    S    
C39   C41   A    
Cu2   O6    S    
C27   Br1   S    
C33   C39   A    
C34   C40   A    
C23   C29   S    
C35   C37   A    
C47   H24   S    
C1    O1    A    
C5    C6    A    
C2    O2    A    
C13   N1    A    
C40   H5    S    
C7    C9    A    
C16   H9    S    
Cu1   N2    S    
C31   C32   S    
C43   H13   S    
C22   C25   A    
C10   H2    S    
C45   C46   S    
C19   C27   A    
C8    H8    S    
Cu1   O1    S    
C28   Br2   S    
C40   C42   A    
C37   O10   S    
C24   O6    A    
C34   C38   A    
C21   C22   A    
C15   N1    A    
Cu2   O7    S    
C14   N2    A    
C1    C33   S    
O9    C43   S    
C15   H10   S    
C45   H18   S    
C24   O8    A    
O12   C49   S    
C46   H21   S    
C35   O11   S    
C14   Br3   S    
C20   C28   A    
C49   C50   S    
C33   C37   A    
Cu1   Cu2   S    
C3    C9    A    
C46   H22   S    
O11   C47   S    
C3    C35   A    
Cu2   N1    S    
C11   C19   A    
C12   C20   A    
C49   H29   S    
C16   N2    A    
C47   H23   S    
C12   H12   S    
C36   O12   S    
C16   C18   A    
C12   C14   A    
C48   H26   S    
C5    C8    A    
C4    C10   A    
C11   H11   S    
C44   H16   S    
C15   C17   A    
C5    C41   A    
C25   H3    S    
C3    C41   A    
C18   C22   A    
C45   H19   S    
C1    O3    A    
C44   H17   S    
C50   H31   S    
C43   C44   S    
C6    C7    A    
C26   H4    S    
Cu2   O3    S    
C25   C27   A    
C26   C28   A    
C23   O7    A    
C36   C38   A    
C7    H7    S    
C44   H15   S    
C29   C31   T    
C30   C32   T    
C11   C13   A    
C2    C34   S    
C4    C42   A    
Cu2   O2    S    
Cu1   O8    S    
C23   O5    A    
C49   H28   S    
C17   C19   A    
C18   C20   A    
C24   C30   S    
C46   H20   S    
C39   H6    S    
C38   O9    S    
C48   H25   S    
C8    C10   A    
C6    C42   A    
C48   H27   S    
C43   H14   S    
C13   Br4   S    
C2    O4    A    
Cu1   O4    S    
C17   C21   A    
