data_mof_unit_14013.cif
_audit_creation_date              2012-12-10T17:16:10-0500
_audit_creation_method            fapswitch 2.2
_symmetry_space_group_name_H-M    P1
_symmetry_Int_Tables_number       1
_space_group_crystal_system       triclinic
_cell_length_a                    19.31872
_cell_length_b                    13.086233
_cell_length_c                    11.650141
_cell_angle_alpha                 99.845285
_cell_angle_beta                  93.401294
_cell_angle_gamma                 90.281299
_cell_volume                      2896.43788458

loop_
_atom_site_label
_atom_site_type_symbol
_atom_type_description
_atom_site_fract_x
_atom_site_fract_y
_atom_site_fract_z
_atom_type_partial_charge
C1    C     C_R   0.497876 0.299073 0.478836 0.934488
C2    C     C_R   0.491875 0.861008 0.434581 0.632335
C3    C     C_R   0.511406 0.030849 0.554861 -0.288795
C4    C     C_R   0.489185 0.969155 0.445359 -0.278425
C5    C     C_R   0.432846 0.403007 0.022910 0.266117
C6    C     C_R   0.567727 0.596056 0.976964 0.267279
C7    C     C_R   0.440090 0.413078 0.145658 0.776128
C8    C     C_R   0.560155 0.586526 0.854300 0.788782
C9    C     C_R   0.528791 0.540447 0.157013 0.123814
C10   C     C_R   0.471250 0.459470 0.842966 0.122032
C11   C     C_R   0.524630 0.534612 0.033973 -0.193141
C12   C     C_R   0.502273 0.700917 0.521169 0.938955
C13   C     C_R   0.475658 0.464894 0.965951 -0.203088
C14   C     C_R   0.367485 0.503159 0.501243 0.894619
C15   C     C_R   0.632607 0.497178 0.498775 0.912877
C16   C     C_R   0.256903 0.571755 0.590047 0.239726
C17   C     C_R   0.744464 0.436568 0.407361 0.318476
C18   C     C_R   0.184290 0.565797 0.588731 0.554813
C19   C     C_R   0.817035 0.445187 0.410003 0.562390
C20   C     C_R   0.146050 0.499003 0.499993 -0.238711
C21   C     C_R   0.854306 0.509338 0.502390 -0.271139
C22   C     C_R   0.180735 0.434623 0.412381 0.326402
C23   C     C_R   0.505585 0.814247 0.532910 -0.355044
C24   C     C_R   0.818518 0.568447 0.592547 0.362886
C25   C     C_R   0.253007 0.439035 0.415049 -0.266169
C26   C     C_R   0.746327 0.561133 0.588979 -0.239103
C27   C     C_R   0.291517 0.505653 0.503104 -0.259380
C28   C     C_R   0.708743 0.497080 0.497354 -0.297395
C29   C     C_R   0.930381 0.510021 0.503309 0.539275
C30   C     C_R   0.070113 0.500479 0.500056 0.532331
C31   C     C_R   0.494867 0.185728 0.467136 -0.356685
C32   C     C_R   0.466236 0.017737 0.349533 0.330019
C33   C     C_R   0.534266 0.982189 0.650734 0.353358
C34   C     C_R   0.474985 0.124689 0.359350 0.447323
C35   C     C_R   0.525482 0.875199 0.640751 0.515221
C36   C     C_R   0.508891 0.139029 0.565467 0.644187
Cu1   Cu    Cu3+1 0.505120 0.507730 0.615930 1.133310
Cu2   Cu    Cu3+1 0.494880 0.492270 0.384070 1.115234
F1    F     F_    0.149941 0.627280 0.672155 -0.557660
F2    F     F_    0.852332 0.388653 0.324102 -0.542773
F3    F     F_    0.485201 0.800409 0.327730 -0.564699
F4    F     F_    0.516280 0.199799 0.672128 -0.564513
F5    F     F_    0.539445 0.829725 0.735746 -0.542576
F6    F     F_    0.461087 0.169957 0.264149 -0.549547
F7    F     F_    0.600440 0.644246 0.797915 -0.556886
F8    F     F_    0.399680 0.355559 0.202091 -0.569176
H1    H     H_    0.279894 0.388821 0.348922 0.237312
H2    H     H_    0.831367 0.781725 0.840730 0.404685
H3    H     H_    0.337634 0.059406 0.202392 0.375474
H4    H     H_    0.599438 0.959170 0.919361 0.409375
H5    H     H_    0.718805 0.607310 0.657474 0.268326
H6    H     H_    0.434647 0.407978 0.787640 0.219767
H7    H     H_    0.565096 0.592421 0.212394 0.223000
H8    H     H_    0.303088 0.577750 0.836151 0.379413
H9    H     H_    0.615985 0.235109 0.286335 0.396147
H10   H     H_    0.295632 0.200736 0.978087 0.396572
H11   H     H_    0.708544 0.792747 0.021102 0.391087
H12   H     H_    0.211438 0.286760 0.176469 0.383264
N1    N     N_R   0.031374 0.518504 0.404880 -0.128682
N2    N     N_R   0.969168 0.492161 0.598555 -0.126902
N3    N     N_R   0.962649 0.522612 0.406246 -0.105807
N4    N     N_R   0.037911 0.488159 0.597245 -0.113395
N5    N     N_R   0.512830 0.519350 0.790130 -0.281165
N6    N     N_R   0.487170 0.480650 0.209870 -0.288810
O1    O     O_R   0.503640 0.354460 0.582000 -0.553120
O2    O     O_2   0.254509 0.747740 0.752407 -0.126833
O3    O     O_3   0.341452 0.608465 0.799963 -0.477989
O4    O     O_2   0.665972 0.402281 0.206690 -0.238196
O5    O     O_2   0.750005 0.268411 0.235627 -0.131155
O6    O     O_3   0.640345 0.280187 0.353758 -0.550744
O7    O     O_2   0.317679 0.372966 0.881248 -0.301827
O8    O     O_2   0.405472 0.238098 0.854910 -0.196653
O9    O     O_3   0.328590 0.247529 0.031021 -0.415023
O10   O     O_2   0.596729 0.762089 0.142485 -0.224395
O11   O     O_2   0.681973 0.623328 0.121066 -0.247088
O12   O     O_R   0.496360 0.645540 0.418000 -0.557674
O13   O     O_3   0.675597 0.745970 0.968119 -0.396058
O14   O     O_2   0.079902 0.289865 0.352598 -0.179647
O15   O     O_2   0.103741 0.401004 0.210414 -0.201332
O16   O     O_3   0.190850 0.255175 0.238258 -0.461699
O17   O     O_2   0.892495 0.595362 0.796752 -0.191844
O18   O     O_2   0.917780 0.714194 0.662498 -0.216666
O19   O     O_3   0.804582 0.740846 0.772992 -0.461196
O20   O     O_2   0.471255 0.897003 0.139083 -0.117823
O21   O     O_2   0.370469 0.872539 0.250225 -0.209191
O22   O     O_3   0.374709 0.033649 0.150098 -0.376391
O23   O     O_R   0.494980 0.341410 0.386200 -0.489921
O24   O     O_2   0.630703 0.125921 0.749391 -0.168306
O25   O     O_2   0.529402 0.104705 0.860491 -0.160720
O26   O     O_3   0.625602 0.965863 0.850337 -0.405397
O27   O     O_R   0.505020 0.658590 0.613800 -0.472252
O28   O     O_R   0.404470 0.506520 0.597930 -0.557973
O29   O     O_R   0.595530 0.493480 0.402070 -0.560461
O30   O     O_R   0.395820 0.493460 0.402130 -0.551053
O31   O     O_R   0.604180 0.506540 0.597870 -0.552310
O32   O     O_2   0.356624 0.719350 0.638637 -0.263132
S1    S     S_3+6 0.302393 0.666533 0.696015 0.132045
S2    S     S_3+6 0.700587 0.345346 0.295476 0.122488
S3    S     S_3+6 0.370064 0.313937 0.943505 0.093660
S4    S     S_3+6 0.631583 0.683370 0.056173 0.097999
S5    S     S_3+6 0.136136 0.344404 0.301472 0.110759
S6    S     S_3+6 0.861311 0.655775 0.708321 0.103865
S7    S     S_3+6 0.420294 0.951282 0.220342 0.188538
S8    S     S_3+6 0.580175 0.048558 0.780027 0.187583

loop_
_geom_bond_atom_site_label_1
_geom_bond_atom_site_label_2
_ccdc_geom_bond_type
C1    O23   A    
O19   S6    S    
C9    N6    A    
C12   O27   A    
C36   F4    S    
C10   N5    A    
C10   H6    S    
C20   C30   S    
C12   C23   S    
C22   S5    S    
O20   S7    D    
O2    S1    D    
C19   C21   A    
C24   C26   A    
C15   O31   A    
C16   S1    S    
C3    C33   A    
C2    F3    S    
C33   S8    S    
C1    C31   S    
Cu1   O31   S    
O13   S4    S    
N2    N4    A    
C8    F7    S    
O24   S8    D    
H4    O26   S    
C5    S3    S    
C22   C25   A    
Cu1   O1    S    
C1    O1    A    
C14   C27   S    
C35   F5    S    
C17   S2    S    
C25   H1    S    
C5    C13   A    
O21   S7    D    
H12   O16   S    
O5    S2    D    
C16   C27   A    
Cu2   O12   S    
O14   S5    D    
O22   S7    S    
Cu1   N5    S    
Cu2   N6    S    
O17   S6    D    
C29   N3    A    
N1    N3    A    
Cu1   O27   S    
C7    F8    S    
H11   O13   S    
C34   F6    S    
C6    C11   A    
C5    C7    A    
C17   C19   A    
C6    C8    A    
H8    O3    S    
C21   C29   S    
C32   C34   A    
C2    C4    A    
C18   F1    S    
Cu1   Cu2   S    
C24   S6    S    
C29   N2    A    
O26   S8    S    
O32   S1    D    
Cu2   O30   S    
O18   S6    D    
C32   S7    S    
C9    C11   A    
C14   O28   A    
C4    C32   A    
C20   C22   A    
C23   C35   A    
C12   O12   A    
O25   S8    D    
C9    H7    S    
C3    C4    A    
C31   C34   A    
O9    S3    S    
H10   O9    S    
Cu1   O28   S    
C17   C28   A    
H3    O22   S    
C10   C13   A    
C15   O29   A    
O10   S4    D    
C25   C27   A    
Cu2   O23   S    
C26   C28   A    
H2    O19   S    
O16   S5    S    
C30   N4    A    
C26   H5    S    
C11   C13   A    
C15   C28   S    
O7    S3    D    
C3    C36   A    
Cu2   O29   S    
O11   S4    D    
C33   C35   A    
C18   C20   A    
O4    S2    D    
C7    N6    A    
H9    O6    S    
C19   F2    S    
O3    S1    S    
C8    N5    A    
C16   C18   A    
C21   C24   A    
C2    C23   A    
C30   N1    A    
C31   C36   A    
O15   S5    D    
C14   O30   A    
O6    S2    S    
C6    S4    S    
O8    S3    D    
