data_mof_unit_15684.cif
_audit_creation_date              2012-12-11T21:14:55-0500
_audit_creation_method            fapswitch 2.2
_symmetry_space_group_name_H-M    P1
_symmetry_Int_Tables_number       1
_space_group_crystal_system       triclinic
_cell_length_a                    8.208524
_cell_length_b                    18.790146
_cell_length_c                    27.008056
_cell_angle_alpha                 99.57701
_cell_angle_beta                  92.591867
_cell_angle_gamma                 88.180497
_cell_volume                      4102.20399978

loop_
_atom_site_label
_atom_site_type_symbol
_atom_type_description
_atom_site_fract_x
_atom_site_fract_y
_atom_site_fract_z
_atom_type_partial_charge
Ba1   Ba    Ba6+2 0.160810 0.465630 0.521640 1.654285
Ba2   Ba    Ba6+2 0.649380 0.534380 0.478400 1.643925
C1    C     C_3   0.417093 0.281547 0.700095 -0.353399
C2    C     C_3   0.430323 0.305696 0.649518 0.339598
C3    C     C_3   0.469061 0.313163 0.395920 0.348091
C4    C     C_3   0.509776 0.234436 0.375398 0.224806
C5    C     C_3   0.858496 0.723208 0.378519 0.341286
C6    C     C_3   0.871115 0.797802 0.364416 -0.358159
C7    C     C_3   0.340883 0.695753 0.351728 0.293139
C8    C     C_3   0.351465 0.714650 0.299503 -0.343806
C9    C     C_R   0.994873 0.048405 0.478380 0.006632
C10   C     C_R   0.081842 0.095645 0.454579 0.030005
C11   C     C_R   0.232084 0.072503 0.433872 -0.060250
C12   C     C_3   0.959790 0.270769 0.624445 0.374335
C13   C     C_R   0.293466 0.002667 0.435447 -0.087010
C14   C     C_R   0.205006 0.954214 0.457376 0.029140
C15   C     C_R   0.055623 0.977125 0.479266 0.016860
C16   C     C_R   0.263234 0.883201 0.457142 -0.102591
C17   C     C_R   0.172790 0.833244 0.477553 -0.038862
C18   C     C_R   0.024715 0.856653 0.501059 -0.003586
C19   C     C_R   0.967130 0.928897 0.501889 -0.006937
C20   C     C_R   0.224237 0.760171 0.474476 -0.003533
C21   C     C_R   0.127103 0.711650 0.493034 -0.295958
C22   C     C_R   0.985957 0.734172 0.518738 0.046899
C23   C     C_3   0.987032 0.197694 0.641106 -0.367245
C24   C     C_R   0.934011 0.808067 0.523637 -0.044828
C25   C     C_R   0.846907 0.072128 0.500803 -0.003559
C26   C     C_R   0.788790 0.144262 0.501266 -0.000426
C27   C     C_R   0.878592 0.192627 0.478187 -0.057337
C28   C     C_R   0.019390 0.165593 0.452460 -0.022809
C29   C     C_R   0.793159 0.834896 0.549427 -0.042758
C30   C     C_R   0.732316 0.905342 0.548226 0.032678
C31   C     C_R   0.819312 0.952636 0.524426 0.007362
C32   C     C_R   0.758736 0.023971 0.523615 0.015593
C33   C     C_R   0.583789 0.928984 0.569931 -0.081568
C34   C     C_3   0.841046 0.620850 0.631285 0.298884
C35   C     C_R   0.522333 0.998822 0.568253 -0.088701
C36   C     C_R   0.609655 0.046951 0.545636 0.030691
C37   C     C_R   0.640389 0.167585 0.524518 -0.038006
C38   C     C_R   0.550662 0.117756 0.545349 -0.110858
C39   C     C_R   0.587460 0.240343 0.526679 -0.000449
C40   C     C_R   0.682931 0.288697 0.507279 -0.303676
C41   C     C_R   0.825575 0.266420 0.482366 0.038970
C42   C     C_R   0.306137 0.451371 0.175303 0.590788
C43   C     C_R   0.166213 0.565364 0.174481 0.582447
C44   C     C_2   0.027390 0.524554 0.269012 -0.069041
C45   C     C_3   0.838762 0.638453 0.688264 -0.361406
C46   C     C_3   0.991705 0.519045 0.323010 -0.049159
C47   C     C_1   0.279795 0.492912 0.336351 0.008033
C48   C     C_2   0.315382 0.497012 0.289681 -0.089750
C49   C     C_2   0.181689 0.512101 0.252566 0.200212
C50   C     C_R   0.300935 0.505777 0.099194 -0.079071
C51   C     C_R   0.351749 0.449479 0.125373 -0.034209
C52   C     C_R   0.448389 0.392385 0.101338 -0.056294
C53   C     C_R   0.206125 0.563796 0.123876 -0.030403
C54   C     C_2   0.146516 0.524343 0.355696 -0.292372
C55   C     C_2   0.646650 0.470531 0.637072 -0.293121
C56   C     C_3   0.978355 0.368207 0.365634 0.305323
C57   C     C_R   0.477312 0.440975 0.972605 0.021041
C58   C     C_R   0.341693 0.560185 0.971935 0.020276
C59   C     C_R   0.430814 0.499387 0.947062 0.049433
C60   C     C_R   0.559626 0.380387 0.945487 -0.102015
C61   C     C_R   0.597151 0.377809 0.895662 -0.058972
C62   C     C_R   0.555591 0.435585 0.870399 -0.023143
C63   C     C_R   0.473600 0.496730 0.895985 -0.081198
C64   C     C_R   0.434065 0.554947 0.870447 -0.034742
C65   C     C_R   0.479981 0.551787 0.820107 0.597372
C66   C     C_R   0.593155 0.432417 0.819713 0.575180
C67   C     C_3   0.997633 0.339672 0.310006 -0.328089
C68   C     C_2   0.737904 0.453696 0.724448 -0.086916
C69   C     C_3   0.749699 0.426685 0.669049 -0.050558
C70   C     C_1   0.518681 0.508414 0.656207 0.036265
C71   C     C_2   0.477743 0.511305 0.703780 -0.103584
C72   C     C_2   0.596528 0.485674 0.741755 0.185864
C73   C     C_R   0.438914 0.444358 0.023910 0.020635
C74   C     C_R   0.344720 0.503872 0.048294 0.049948
C75   C     C_R   0.293918 0.561394 0.022374 0.020009
C76   C     C_R   0.492100 0.390030 0.052021 -0.099360
C77   C     C_R   0.153689 0.619254 0.097567 -0.057262
C78   C     C_3   0.330319 0.686317 0.593491 0.317538
C79   C     C_R   0.304078 0.617867 0.945206 -0.098377
C80   C     C_R   0.349949 0.615316 0.895833 -0.058961
C81   C     C_R   0.195862 0.618097 0.048041 -0.098549
C82   C     C_3   0.328184 0.767516 0.611098 -0.391570
H1    H     H_    0.367258 0.359224 0.651006 0.080215
H2    H     H_    0.743194 0.680395 0.699686 0.135878
H3    H     H_    0.812680 0.589453 0.703990 0.068895
H4    H     H_    0.959410 0.658550 0.703856 0.134208
H5    H     H_    0.098087 0.385164 0.382978 0.023446
H6    H     H_    0.890492 0.414620 0.370138 0.031021
H7    H     H_    0.071038 0.288502 0.305283 0.205013
H8    H     H_    0.061034 0.378764 0.291705 0.069620
H9    H     H_    0.875840 0.329259 0.291012 0.112890
H10   H     H_    0.204057 0.668685 0.584256 0.005393
H11   H     H_    0.405010 0.673734 0.559740 0.060337
H12   H     H_    0.287631 0.272151 0.707140 0.151459
H13   H     H_    0.247874 0.781763 0.643437 0.130991
H14   H     H_    0.282019 0.796191 0.580422 0.054934
H15   H     H_    0.453580 0.785471 0.622891 0.118347
H16   H     H_    0.561503 0.310065 0.642669 -0.051311
H17   H     H_    0.463750 0.324309 0.730271 0.134232
H18   H     H_    0.583216 0.338655 0.412801 -0.063493
H19   H     H_    0.378932 0.315428 0.425522 0.041760
H20   H     H_    0.612317 0.231332 0.349635 0.091212
H21   H     H_    0.547005 0.205390 0.406849 -0.037327
H22   H     H_    0.490231 0.230793 0.700955 0.114693
H23   H     H_    0.925858 0.155284 0.613355 0.070621
H24   H     H_    0.744093 0.721673 0.398433 0.118266
H25   H     H_    0.963975 0.714164 0.403924 -0.031925
H26   H     H_    0.864021 0.839459 0.398479 0.079524
H27   H     H_    0.988731 0.802259 0.346800 0.120396
H28   H     H_    0.769762 0.807594 0.337668 0.143531
H29   H     H_    0.211472 0.701175 0.362265 -0.019334
H30   H     H_    0.384265 0.639028 0.350345 0.073898
H31   H     H_    0.275784 0.677293 0.272377 0.130775
H32   H     H_    0.479911 0.709441 0.287824 0.140075
H33   H     H_    0.011952 0.268237 0.586904 0.084642
H34   H     H_    0.305944 0.770890 0.299292 0.127307
H35   H     H_    0.303564 0.108715 0.417027 0.136481
H36   H     H_    0.409779 0.986377 0.419110 0.086093
H37   H     H_    0.165730 0.655477 0.489154 0.066884
H38   H     H_    0.378267 0.867304 0.440095 0.111664
H39   H     H_    0.085221 0.198879 0.431668 0.139268
H40   H     H_    0.726387 0.801151 0.569640 0.097939
H41   H     H_    0.514175 0.893274 0.587900 0.064013
H42   H     H_    0.406947 0.015415 0.585108 0.071970
H43   H     H_    0.435254 0.133456 0.562148 0.110622
H44   H     H_    0.825754 0.280600 0.621047 -0.077868
H45   H     H_    0.641674 0.344383 0.509735 0.075691
H46   H     H_    0.440215 0.488619 0.278010 0.122241
H47   H     H_    0.492276 0.349031 0.120829 0.129350
H48   H     H_    0.832782 0.437561 0.749928 0.125543
H49   H     H_    0.659857 0.329752 0.876899 0.124101
H50   H     H_    0.594731 0.332824 0.961176 0.071352
H51   H     H_    0.570163 0.344871 0.037426 0.072627
H52   H     H_    0.926430 0.531950 0.242822 0.107006
H53   H     H_    0.078789 0.664207 0.115256 0.125384
H54   H     H_    0.240826 0.666723 0.961528 0.071616
H55   H     H_    0.119692 0.184025 0.643596 0.147655
H56   H     H_    0.317741 0.661130 0.877384 0.122865
H57   H     H_    0.356634 0.529725 0.714907 0.138439
H58   H     H_    0.147378 0.662466 0.030783 0.071771
H59   H     H_    0.147108 0.550975 0.394636 0.069653
H60   H     H_    0.658181 0.457549 0.596686 0.086068
H61   H     H_    0.934610 0.198747 0.678601 0.120265
H62   H     H_    0.718516 0.604277 0.616164 0.011453
H63   H     H_    0.930229 0.575876 0.620961 0.081183
N1    N     N_R   0.217137 0.509607 0.199861 -0.427219
N2    N     N_R   0.557213 0.490468 0.794711 -0.421173
O1    O     O_2   0.106080 0.324280 0.466820 -0.465492
O2    O     O_3   0.396402 0.652782 0.632498 -0.623161
O3    O     O_3   0.036833 0.324684 0.659516 -0.589733
O4    O     O_2   0.704230 0.675760 0.533200 -0.468483
O5    O     O_3   0.951180 0.586390 0.529420 -0.490914
O6    O     O_3   0.434080 0.629720 0.443130 -0.475047
O7    O     O_3   0.884644 0.682605 0.612924 -0.639525
O8    O     O_3   0.351080 0.462080 0.440130 -0.477817
O9    O     O_3   0.839200 0.593040 0.416790 -0.486934
O10   O     O_2   0.660361 0.564764 0.331949 -0.496881
O11   O     O_3   0.859045 0.670921 0.334851 -0.593086
O12   O     O_3   0.859130 0.413620 0.470620 -0.482412
O13   O     O_3   0.459240 0.537930 0.559910 -0.490568
O14   O     O_2   0.583120 0.462390 0.379940 -0.463479
O15   O     O_3   0.404110 0.347347 0.356668 -0.605159
O16   O     O_2   0.565434 0.756708 0.476743 -0.499628
O17   O     O_3   0.439375 0.742369 0.385597 -0.607930
O18   O     O_2   0.344271 0.400529 0.196781 -0.585596
O19   O     O_2   0.656455 0.377056 0.797699 -0.621135
O20   O     O_2   0.087792 0.616822 0.196054 -0.596775
O21   O     O_2   0.452667 0.604073 0.799219 -0.597922
O22   O     O_3   0.376230 0.370290 0.556910 -0.483359
O23   O     O_2   0.249323 0.243615 0.519894 -0.495134
O24   O     O_3   0.919170 0.312635 0.387394 -0.634015
O25   O     O_3   0.356334 0.254669 0.612251 -0.606468
O26   O     O_2   0.227190 0.537650 0.620070 -0.465546
O27   O     O_3   0.971110 0.406970 0.583250 -0.484571
O28   O     O_2   0.083745 0.464425 0.675069 -0.496320
P1    P     P_3+3 0.929380 0.335110 0.452880 0.988672
P2    P     P_3+3 0.398530 0.559060 0.613740 0.995572
P3    P     P_3+3 0.961736 0.408628 0.647648 0.950163
P4    P     P_3+3 0.880940 0.664900 0.547160 0.974925
P5    P     P_3+3 0.835540 0.585484 0.351315 0.973942
P6    P     P_3+3 0.393208 0.276821 0.553519 0.934969
P7    P     P_3+3 0.399757 0.440739 0.376820 0.974374
P8    P     P_3+3 0.415793 0.723044 0.445971 0.926401
Cl1   Cl    Cl    0.338103 0.191376 0.341723 -0.688159

loop_
_geom_bond_atom_site_label_1
_geom_bond_atom_site_label_2
_ccdc_geom_bond_type
C78   O2    S    
C46   P5    S    
C3    H19   S    
C41   P1    S    
Ba2   O6    S    
C57   C73   A    
C65   N2    Am   
C43   N1    Am   
C39   C40   A    
C17   C18   A    
C78   C82   S    
Ba2   O13   S    
C79   C80   A    
C5    C6    S    
Ba1   O27   S    
C71   H57   S    
C51   C52   A    
C52   H47   S    
C26   C27   A    
C35   C36   A    
C8    H34   S    
C7    H30   S    
C62   C66   A    
O22   P6    S    
C7    O17   S    
C23   H55   S    
C22   C24   A    
C29   H40   S    
C16   C17   A    
C67   H9    S    
C6    H28   S    
C3    C4    S    
C19   C31   A    
C75   C81   A    
C13   C14   A    
O17   P8    S    
O5    P4    S    
C12   H44   S    
C13   H36   S    
C34   C45   S    
Ba1   Ba2   S    
C58   C79   A    
C33   H41   S    
C80   H56   S    
C66   N2    Am   
C48   H46   S    
C54   H59   S    
C42   C51   A    
C9    C15   A    
C14   C15   A    
C68   C72   D    
C21   C22   A    
C72   N2    S    
C1    H12   S    
O8    P7    S    
C4    H20   S    
C67   H8    S    
C7    C8    S    
C50   C53   A    
O1    P1    D    
C10   C28   A    
C1    H17   S    
C64   C65   A    
C22   P4    S    
Ba1   O12   S    
C24   C29   A    
C25   C32   A    
C36   C38   A    
C2    O25   S    
C27   C41   A    
Ba2   O12   S    
O11   P5    S    
C11   H35   S    
C48   C49   S    
C1    H22   S    
C79   H54   S    
C44   C46   S    
C58   C75   A    
C57   C59   A    
C45   H2    S    
C17   C20   A    
C74   C75   A    
C21   H37   S    
O6    P8    S    
C6    H27   S    
C37   C38   A    
C55   C70   D    
O26   P2    D    
C5    O11   S    
C26   C37   A    
C38   H43   S    
C44   H52   S    
C44   C49   D    
Ba1   O22   S    
C15   C19   A    
C5    H25   S    
C58   C59   A    
Ba2   P4    S    
C45   H3    S    
C69   P3    S    
O3    P3    S    
C73   C74   A    
C30   C33   A    
C60   C61   A    
O15   P7    S    
C6    H26   S    
C64   C80   A    
C47   P7    S    
C53   C77   A    
Ba1   P1    S    
C34   H63   S    
O2    P2    S    
C29   C30   A    
C9    C25   A    
Ba2   O9    S    
O28   P3    D    
C68   H48   S    
C31   C32   A    
Ba1   O1    S    
Ba1   O8    S    
C55   C69   S    
C78   H11   S    
C28   H39   S    
O9    P5    S    
C43   C53   A    
O13   P2    S    
C68   C69   S    
C56   H6    S    
C66   O19   D    
C34   H62   S    
C77   H53   S    
C16   H38   S    
Ba1   O13   S    
C47   C48   D    
Ba2   O4    S    
C2    H16   S    
C56   O24   S    
C40   C41   A    
C82   H13   S    
C78   H10   S    
C1    C2    S    
C71   C72   S    
C61   H49   S    
C8    H32   S    
C50   C51   A    
C34   O7    S    
C35   H42   S    
C76   H51   S    
C42   O18   D    
C46   C54   S    
C3    H18   S    
Ba1   O26   S    
C57   C60   A    
C55   H60   S    
C33   C35   A    
O14   P7    D    
C32   C36   A    
C82   H15   S    
O4    P4    D    
C70   C71   D    
C50   C74   A    
C43   O20   D    
Ba2   O14   S    
C81   H58   S    
O7    P4    S    
C56   C67   S    
C2    H1    S    
C47   C54   D    
C3    O15   S    
C4    Cl1   S    
C82   H14   S    
C30   C31   A    
C60   H50   S    
C20   P8    S    
C11   C13   A    
C7    H29   S    
C12   C23   S    
C45   H4    S    
C77   C81   A    
Ba1   P2    S    
O23   P6    D    
Ba2   O5    S    
C18   C24   A    
O24   P1    S    
Ba2   O8    S    
C62   C63   A    
C49   N1    S    
C42   N1    Am   
C4    H21   S    
C56   H5    S    
C40   H45   S    
O10   P5    D    
Ba1   O5    S    
C73   C76   A    
O16   P8    D    
C27   C28   A    
C61   C62   A    
C59   C63   A    
O27   P3    S    
C18   C19   A    
C37   C39   A    
C14   C16   A    
C63   C64   A    
C65   O21   D    
C12   O3    S    
C25   C26   A    
C20   C21   A    
C39   P6    S    
C12   H33   S    
C23   H61   S    
C70   P2    S    
C10   C11   A    
O12   P1    S    
C67   H7    S    
O25   P6    S    
C5    H24   S    
C23   H23   S    
C8    H31   S    
C9    C10   A    
C52   C76   A    
