data_mof_unit_26961.cif
_audit_creation_date              2012-12-10T17:31:04-0500
_audit_creation_method            fapswitch 2.2
_symmetry_space_group_name_H-M    P1
_symmetry_Int_Tables_number       1
_space_group_crystal_system       triclinic
_cell_length_a                    12.162217
_cell_length_b                    12.837107
_cell_length_c                    15.454307
_cell_angle_alpha                 81.814029
_cell_angle_beta                  115.96381
_cell_angle_gamma                 94.39719
_cell_volume                      2146.93705488

loop_
_atom_site_label
_atom_site_type_symbol
_atom_type_description
_atom_site_fract_x
_atom_site_fract_y
_atom_site_fract_z
_atom_type_partial_charge
Br1   Br    Br    0.402053 0.852416 0.303917 -0.327252
Br2   Br    Br    0.597947 0.147584 0.696083 -0.327251
Br3   Br    Br    0.205890 0.013477 0.290630 -0.328463
Br4   Br    Br    0.794110 0.986523 0.709370 -0.328463
Br5   Br    Br    0.741464 0.664128 0.379366 -0.435557
Br6   Br    Br    0.258536 0.335872 0.620634 -0.435557
C1    C     C_R   0.477620 0.299597 0.500426 0.948434
C2    C     C_R   0.641001 0.946820 0.607988 0.358208
C3    C     C_R   0.367224 0.157095 0.408344 -0.274481
C4    C     C_R   0.632776 0.842905 0.591656 -0.274481
C5    C     C_R   0.538206 0.117187 0.565276 0.267606
C6    C     C_R   0.461794 0.882813 0.434724 0.267606
C7    C     C_R   0.545683 0.016336 0.544365 -0.069910
C8    C     C_R   0.454317 0.983664 0.455635 -0.069910
C9    C     C_R   0.003302 0.603588 0.406227 -0.268664
C10   C     C_R   0.996698 0.396412 0.593773 -0.268664
C11   C     C_R   0.121289 0.592321 0.414301 0.261026
C12   C     C_R   0.522380 0.700403 0.499574 0.948435
C13   C     C_R   0.878711 0.407679 0.585699 0.261025
C14   C     C_R   0.159186 0.451686 0.539808 0.336571
C15   C     C_R   0.840814 0.548314 0.460191 0.336571
C16   C     C_R   0.576891 0.494532 0.680612 0.922848
C17   C     C_R   0.423109 0.505468 0.319388 0.922848
C18   C     C_R   0.039386 0.461187 0.533623 -0.038065
C19   C     C_R   0.960614 0.538813 0.466376 -0.038065
C20   C     C_R   0.627777 0.506190 0.783668 -0.123353
C21   C     C_R   0.372222 0.493809 0.216332 -0.123353
C22   C     C_R   0.753971 0.606480 0.915667 0.186292
C23   C     C_R   0.626484 0.564258 0.097571 -0.168543
C24   C     C_R   0.246029 0.393519 0.084333 0.186292
C25   C     C_R   0.722875 0.578781 0.823402 -0.251881
C26   C     C_R   0.277125 0.421219 0.176598 -0.251881
C27   C     C_R   0.566697 0.459516 0.837651 0.106233
C28   C     C_R   0.433303 0.540483 0.162348 0.106234
C29   C     C_R   0.576033 0.505024 0.917578 0.000207
C30   C     C_R   0.423967 0.494975 0.082422 0.000207
C31   C     C_R   0.678895 0.571052 0.962946 0.063937
C32   C     C_R   0.321105 0.428947 0.037054 0.063937
C33   C     C_R   0.487828 0.483832 0.954917 0.091779
C34   C     C_R   0.373516 0.435741 0.902429 -0.168543
C35   C     C_R   0.512172 0.516168 0.045083 0.091779
C36   C     C_R   0.705379 0.596387 0.055148 -0.147367
C37   C     C_R   0.294621 0.403613 0.944852 -0.147367
C38   C     C_R   0.541242 0.810879 0.507302 -0.149931
C39   C     C_R   0.458758 0.189121 0.492698 -0.149931
C40   C     C_R   0.358999 0.053180 0.392012 0.358208
H1    H     H_    0.788033 0.639026 0.096218 0.189636
H2    H     H_    0.300542 0.212951 0.355959 0.182734
H3    H     H_    0.211967 0.360974 0.903782 0.189636
H4    H     H_    0.944892 0.661692 0.350314 0.214975
H5    H     H_    0.055108 0.338308 0.649686 0.214975
H6    H     H_    0.227934 0.385545 0.217487 0.181958
H7    H     H_    0.772066 0.614455 0.782513 0.181958
H8    H     H_    0.655404 0.578827 0.171654 0.191587
H9    H     H_    0.344596 0.421174 0.828345 0.191587
H10   H     H_    0.699458 0.787049 0.644041 0.182734
I1    I     I_    0.840953 0.316016 0.693736 -0.141090
I2    I     I_    0.159047 0.683984 0.306264 -0.141091
I3    I     I_    0.467153 0.705447 0.160861 -0.127215
I4    I     I_    0.532846 0.294553 0.839139 -0.127216
I5    I     I_    0.907347 0.709345 0.972986 -0.180186
I6    I     I_    0.092653 0.290654 0.027014 -0.180186
N1    N     N_R   0.799120 0.480200 0.517090 -0.147353
N2    N     N_R   0.200880 0.519800 0.482910 -0.147353
O1    O     O_R   0.580150 0.341050 0.504560 -0.599337
O2    O     O_R   0.419850 0.658950 0.495440 -0.599337
O3    O     O_R   0.388090 0.353760 0.493600 -0.575584
O4    O     O_R   0.611910 0.646240 0.506400 -0.575584
O5    O     O_R   0.650890 0.490020 0.640860 -0.602956
O6    O     O_R   0.349110 0.509980 0.359140 -0.602956
O7    O     O_R   0.458830 0.502730 0.629890 -0.584426
O8    O     O_R   0.541170 0.497270 0.370110 -0.584427
Zn1   Zn    Zn3+2 0.628240 0.491510 0.507320 1.037584
Zn2   Zn    Zn3+2 0.371760 0.508490 0.492680 1.037584

loop_
_geom_bond_atom_site_label_1
_geom_bond_atom_site_label_2
_ccdc_geom_bond_type
C3    C39   A    
C2    C7    A    
C23   C36   A    
C10   H5    S    
Br4   C2    S    
C33   C35   A    
C13   I1    S    
C1    C39   S    
C29   C31   A    
C11   N2    A    
C9    C19   A    
C23   H8    S    
C12   O4    A    
O2    Zn2   S    
O1    Zn1   S    
C24   C32   A    
C9    H4    S    
C31   C36   A    
C26   H6    S    
C34   C37   A    
C14   C18   A    
C13   N1    A    
O6    Zn2   S    
O5    Zn1   S    
C17   C21   S    
C4    H10   S    
C16   O5    A    
C11   I2    S    
C22   I5    S    
C3    C40   A    
C10   C18   A    
C7    C8    A    
C17   O6    A    
C30   C35   A    
Br1   C6    S    
Br2   C5    S    
C21   C28   A    
C4    C38   A    
C18   C19   A    
C8    C40   A    
C33   C34   A    
C37   H3    S    
N1    Zn1   S    
O4    Zn1   S    
C14   N2    A    
C29   C33   A    
C12   C38   S    
C1    O1    A    
C20   C27   A    
C34   H9    S    
O3    Zn2   S    
C25   H7    S    
C6    C8    A    
C27   I4    S    
C24   I6    S    
C28   I3    S    
C5    C39   A    
C16   O7    A    
C9    C11   A    
C15   C19   A    
C23   C35   A    
C21   C26   A    
C17   O8    A    
C22   C25   A    
O8    Zn1   S    
O7    Zn2   S    
C12   O2    A    
Br6   C14   S    
Br3   C40   S    
C30   C32   A    
C32   C37   A    
C6    C38   A    
C24   C26   A    
C5    C7    A    
C22   C31   A    
C10   C13   A    
C27   C29   A    
C28   C30   A    
C36   H1    S    
C15   N1    A    
C1    O3    A    
C20   C25   A    
Br5   C15   S    
C3    H2    S    
C2    C4    A    
C16   C20   S    
N2    Zn2   S    
