data_mof_unit_5030.cif
_audit_creation_date              2012-12-10T18:15:12-0500
_audit_creation_method            fapswitch 2.2
_symmetry_space_group_name_H-M    P1
_symmetry_Int_Tables_number       1
_space_group_crystal_system       triclinic
_cell_length_a                    12.728877
_cell_length_b                    13.1344
_cell_length_c                    23.397014
_cell_angle_alpha                 92.02479
_cell_angle_beta                  103.537537
_cell_angle_gamma                 81.949465
_cell_volume                      3765.48669868

loop_
_atom_site_label
_atom_site_type_symbol
_atom_type_description
_atom_site_fract_x
_atom_site_fract_y
_atom_site_fract_z
_atom_type_partial_charge
C1    C     C_R   0.438726 0.691059 0.491260 0.851927
C2    C     C_R   0.354137 0.619346 0.013961 0.666171
C3    C     C_R   0.357106 0.625148 0.954803 0.026045
C4    C     C_R   0.433489 0.554496 0.932249 -0.104345
C5    C     C_R   0.504261 0.477936 0.969843 -0.092080
C6    C     C_R   0.583056 0.408793 0.948707 -0.051707
C7    C     C_R   0.654578 0.334308 0.987282 0.169416
C8    C     C_R   0.634856 0.318268 0.042925 0.174492
C9    C     C_R   0.442451 0.557071 0.873398 0.566645
C10   C     C_R   0.585345 0.415249 0.888980 0.529662
C11   C     C_R   0.471532 0.419908 0.755549 -0.220740
C12   C     C_R   0.501224 0.502355 0.610314 0.934412
C13   C     C_R   0.465210 0.424394 0.695975 0.569627
C14   C     C_R   0.505747 0.503942 0.673108 -0.228244
C15   C     C_R   0.553112 0.580815 0.710716 0.073563
C16   C     C_R   0.564896 0.572171 0.772012 0.226401
C17   C     C_R   0.520847 0.492574 0.793502 0.186491
C18   C     C_R   0.575660 0.516175 0.245487 -0.147157
C19   C     C_R   0.578187 0.524352 0.304987 -0.193562
C20   C     C_R   0.496285 0.489231 0.326853 -0.071680
C21   C     C_R   0.413341 0.443361 0.288725 -0.205429
C22   C     C_R   0.411380 0.433169 0.228918 0.236175
C23   C     C_R   0.561011 0.308823 0.506933 0.913504
C24   C     C_R   0.492615 0.471312 0.207456 0.304147
C25   C     C_R   0.703793 0.058674 0.466612 -0.177322
C26   C     C_R   0.596915 0.199112 0.504898 -0.067620
C27   C     C_R   0.300764 0.838303 0.499361 -0.191723
C28   C     C_R   0.272625 0.943496 0.506464 0.245548
C29   C     C_R   0.346760 0.009968 0.502060 -0.185770
C30   C     C_R   0.446717 0.972699 0.486721 -0.001432
C31   C     C_R   0.463610 0.869449 0.468220 0.074382
C32   C     C_R   0.529715 0.034805 0.488317 0.083635
C33   C     C_R   0.621941 0.996964 0.465758 0.135732
C34   C     C_R   0.498788 0.497435 0.389513 0.897674
C35   C     C_R   0.627812 0.900976 0.438997 -0.246064
C36   C     C_R   0.546360 0.839374 0.436810 0.194395
C37   C     C_R   0.523524 0.134031 0.511542 -0.226630
C38   C     C_R   0.690552 0.160333 0.485399 -0.152286
C39   C     C_R   0.398201 0.800553 0.482959 -0.148900
C40   C     C_R   0.089633 0.338883 0.423684 -0.258833
C41   C     C_R   0.798879 0.633289 0.568227 -0.105552
C42   C     C_R   0.902102 0.663992 0.582215 0.605288
C43   C     C_R   0.983808 0.613817 0.556761 -0.254327
C44   C     C_R   0.962737 0.531876 0.516980 -0.130423
C45   C     C_R   0.560595 0.395265 0.126053 0.518168
C46   C     C_R   0.855554 0.502979 0.503915 0.063709
C47   C     C_R   0.043326 0.477546 0.489489 0.027964
C48   C     C_R   0.015132 0.394925 0.451109 0.036913
C49   C     C_R   0.911870 0.367961 0.439200 -0.327357
C50   C     C_R   0.833375 0.420935 0.464033 0.622312
C51   C     C_R   0.151044 0.500537 0.497981 -0.036176
C52   C     C_R   0.193305 0.364727 0.432735 0.350543
C53   C     C_R   0.422515 0.540786 0.110684 0.555654
C54   C     C_R   0.423998 0.544411 0.051137 -0.177370
C55   C     C_R   0.497872 0.472009 0.029041 -0.131408
C56   C     C_R   0.564419 0.393349 0.066152 -0.031118
H1    H     H_    0.643638 0.558882 0.333638 0.169347
H2    H     H_    0.350862 0.414460 0.305539 0.161754
H3    H     H_    0.749796 0.209411 0.481308 0.200535
H4    H     H_    0.693291 0.875853 0.417064 0.155136
H5    H     H_    0.774580 0.030257 0.449527 0.142751
H6    H     H_    0.458711 0.165215 0.532242 0.174397
H7    H     H_    0.248673 0.785658 0.508843 0.159844
H8    H     H_    0.322646 0.090425 0.509490 0.149309
H9    H     H_    0.890435 0.305095 0.409250 0.182608
H10   H     H_    0.066876 0.275180 0.394661 0.155295
H11   H     H_    0.180537 0.561502 0.526661 0.129708
H12   H     H_    0.735311 0.672551 0.587786 0.165731
H13   H     H_    0.062477 0.640334 0.569001 0.167971
H14   H     H_    0.437655 0.359545 0.772651 0.188089
H15   H     H_    0.638062 0.545116 0.228622 0.149615
N1    N     N_R   0.490258 0.467565 0.146203 -0.360197
N2    N     N_R   0.517494 0.489106 0.853983 -0.336162
N3    N     N_R   0.222200 0.444670 0.469780 -0.107276
N4    N     N_R   0.776960 0.554790 0.529910 -0.145071
O1    O     O_R   0.366740 0.627150 0.485570 -0.626068
O2    O     O_2   0.355662 0.610868 0.133756 -0.470132
O3    O     O_2   0.376862 0.625748 0.834881 -0.559781
O4    O     O_2   0.651876 0.346974 0.864771 -0.554804
O5    O     O_R   0.544830 0.662520 0.504870 -0.611647
O6    O     O_R   0.410930 0.482340 0.574190 -0.564611
O7    O     O_R   0.589010 0.517710 0.593490 -0.620542
O8    O     O_R   0.455170 0.337480 0.495130 -0.621480
O9    O     O_R   0.633260 0.372850 0.514430 -0.538742
O10   O     O_R   0.410990 0.482290 0.406510 -0.646449
O11   O     O_R   0.589070 0.517660 0.425810 -0.552308
O12   O     O_2   0.629115 0.328834 0.164863 -0.563217
Zn1   Zn    Zn3+2 0.381090 0.476380 0.487110 0.970228
Zn2   Zn    Zn3+2 0.618910 0.523620 0.512890 0.991231
F1    F     F_    0.281797 0.687587 0.035240 -0.620932
C57   C     C_3   0.324202 0.381053 0.188631 -0.869321
H16   H     H_    0.269516 0.351937 0.213066 0.234056
H17   H     H_    0.362606 0.314791 0.166467 0.245285
H18   H     H_    0.273582 0.435976 0.154891 0.267646
C58   C     C_3   0.167009 0.985150 0.522270 -0.876097
H19   H     H_    0.117156 0.923139 0.524704 0.244723
H20   H     H_    0.183922 0.024265 0.565667 0.258175
H21   H     H_    0.118961 0.041483 0.488524 0.236974
C59   C     C_3   0.278343 0.708233 0.917682 -0.660747
H22   H     H_    0.324288 0.761729 0.900878 0.251979
H23   H     H_    0.223120 0.672735 0.880896 0.257646
H24   H     H_    0.224862 0.756245 0.942257 0.261246
C60   C     C_3   0.543285 0.751566 0.393664 -0.846284
H25   H     H_    0.544531 0.780588 0.349833 0.232861
H26   H     H_    0.617017 0.694705 0.408247 0.255529
H27   H     H_    0.468044 0.715103 0.387343 0.220422
C61   C     C_3   0.268669 0.299784 0.400911 -0.855428
H28   H     H_    0.344285 0.330082 0.401698 0.283915
H29   H     H_    0.289143 0.221315 0.420047 0.224382
H30   H     H_    0.227503 0.293618 0.353720 0.206721
F2    F     F_    0.922968 0.742724 0.620404 -0.652158
F3    F     F_    0.737079 0.387695 0.446099 -0.666351
C62   C     C_3   0.756969 0.277315 0.972093 -0.763786
H31   H     H_    0.818435 0.246015 0.011513 0.219883
H32   H     H_    0.736308 0.212832 0.941424 0.269631
H33   H     H_    0.799111 0.331073 0.952773 0.262613
C63   C     C_3   0.682349 0.217177 0.074442 -0.775556
H34   H     H_    0.620683 0.187793 0.093770 0.261275
H35   H     H_    0.703620 0.155498 0.043811 0.222436
H36   H     H_    0.756568 0.227117 0.108991 0.266320
F4    F     F_    0.420533 0.349837 0.660586 -0.646035
C64   C     C_3   0.587607 0.673253 0.686455 -0.805438
H37   H     H_    0.551994 0.685071 0.638834 0.229231
H38   H     H_    0.558190 0.744904 0.707789 0.244643
H39   H     H_    0.677878 0.664648 0.694594 0.251996
C65   C     C_3   0.622814 0.647793 0.814019 -0.802620
H40   H     H_    0.572897 0.724697 0.809098 0.250139
H41   H     H_    0.638584 0.624420 0.860659 0.229063
H42   H     H_    0.703406 0.653370 0.804693 0.241558

loop_
_geom_bond_atom_site_label_1
_geom_bond_atom_site_label_2
_ccdc_geom_bond_type
C55   C56   A    
C65   H40   S    
C15   C64   S    
C41   C42   A    
C58   H19   S    
C51   N3    A    
C43   C44   A    
C8    C56   A    
C37   H6    S    
C11   H14   S    
C7    C8    A    
C53   C54   A    
C19   H1    S    
O7    Zn2   S    
C49   H9    S    
C36   C60   S    
C18   C24   A    
C28   C29   A    
C45   O12   S    
C52   N3    A    
C63   H35   S    
C5    C6    A    
C10   N2    A    
C57   H17   S    
C15   C16   A    
C18   C19   A    
C34   O11   A    
C23   C26   S    
O5    Zn2   S    
C2    F1    S    
C47   C48   A    
C45   C56   A    
C27   C39   A    
C16   C17   A    
C22   C57   S    
O1    Zn1   S    
C44   C47   A    
C62   H33   S    
C20   C34   S    
O8    Zn1   S    
C29   H8    S    
C43   H13   S    
C40   H10   S    
C21   C22   A    
C45   N1    A    
C17   N2    S    
C61   H29   S    
C9    N2    A    
C46   N4    A    
C44   C46   A    
C8    C63   S    
C41   H12   S    
C58   H21   S    
C23   O9    A    
C52   C61   S    
C2    C54   A    
C63   H36   S    
C57   H16   S    
N4    Zn2   S    
C26   C38   A    
C51   H11   S    
C65   H42   S    
C40   C52   A    
C35   H4    S    
C35   C36   A    
C53   O2    S    
C42   F2    S    
C29   C30   A    
C25   C38   A    
C41   N4    A    
C13   F4    S    
C59   H22   S    
C61   H28   S    
C50   F3    S    
C12   O7    A    
C60   H26   S    
C25   H5    S    
C32   C37   A    
C23   O8    A    
C48   C49   A    
C59   H23   S    
C12   C14   S    
C28   C58   S    
C61   H30   S    
C22   C24   A    
O9    Zn2   S    
C64   H38   S    
C3    C4    A    
C60   H25   S    
C24   N1    S    
C62   H31   S    
O10   Zn1   S    
C18   H15   S    
C40   C48   A    
C54   C55   A    
C11   C17   A    
C65   H41   S    
C31   C36   A    
C1    O1    A    
C5    C55   A    
C4    C5    A    
O11   Zn2   S    
C6    C10   A    
C47   C51   A    
C10   O4    S    
C58   H20   S    
C26   C37   A    
C6    C7    A    
C46   C50   A    
C32   C33   A    
C7    C62   S    
C19   C20   A    
C2    C3    A    
C4    C9    A    
C21   H2    S    
C63   H34   S    
C57   H18   S    
C30   C32   A    
C11   C13   A    
C30   C31   A    
C64   H39   S    
C33   C35   A    
C31   C39   A    
C12   O6    A    
C60   H27   S    
C9    O3    S    
O6    Zn1   S    
C1    C39   S    
C38   H3    S    
C3    C59   S    
C59   H24   S    
C20   C21   A    
C49   C50   A    
C42   C43   A    
C27   C28   A    
C1    O5    A    
C14   C15   A    
C27   H7    S    
N3    Zn1   S    
C64   H37   S    
C13   C14   A    
C53   N1    A    
C16   C65   S    
C34   O10   A    
C25   C33   A    
C62   H32   S    
