data_mof_unit_7479.cif
_audit_creation_date              2012-12-10T17:19:16-0500
_audit_creation_method            fapswitch 2.2
_symmetry_space_group_name_H-M    P1
_symmetry_Int_Tables_number       1
_space_group_crystal_system       triclinic
_cell_length_a                    18.348599
_cell_length_b                    18.348353
_cell_length_c                    34.359861
_cell_angle_alpha                 89.999809
_cell_angle_beta                  90.001121
_cell_angle_gamma                 90.000544
_cell_volume                      11567.8165975

loop_
_atom_site_label
_atom_site_type_symbol
_atom_type_description
_atom_site_fract_x
_atom_site_fract_y
_atom_site_fract_z
_atom_type_partial_charge
C1    C     C_R   0.633742 0.996750 0.520492 -0.050568
C2    C     C_R   0.866256 0.496814 0.979485 -0.050564
C3    C     C_R   0.507092 0.933189 0.958844 -0.000659
C4    C     C_R   0.933185 0.507127 0.041154 -0.000646
C5    C     C_R   0.066818 0.507084 0.958833 -0.000654
C6    C     C_R   0.492874 0.933200 0.041164 -0.000686
C7    C     C_R   0.492898 0.066833 0.958844 -0.000652
C8    C     C_R   1.000000 0.499999 0.644338 0.963250
C9    C     C_R   0.000001 0.499999 0.355664 0.963335
C10   C     C_R   0.499994 0.000000 0.644336 0.963321
C11   C     C_R   0.500001 0.000001 0.355663 0.963110
C12   C     C_R   0.499999 0.999999 0.144337 0.963108
C13   C     C_R   0.503229 0.133760 0.020514 -0.050486
C14   C     C_R   0.500001 0.000005 0.855664 0.963311
C15   C     C_R   0.000002 0.500000 0.144336 0.963362
C16   C     C_R   0.000001 0.500000 0.855662 0.963256
C17   C     C_R   0.860150 0.639848 0.750000 0.777916
C18   C     C_R   0.139825 0.360175 0.250000 0.790647
C19   C     C_R   0.360154 0.860148 0.750001 0.777890
C20   C     C_R   0.639821 0.139826 0.249999 0.790451
C21   C     C_R   0.139848 0.360151 0.750000 0.777906
C22   C     C_R   0.860179 0.639828 0.250001 0.790611
C23   C     C_R   0.639849 0.139849 0.750000 0.777903
C24   C     C_R   0.503265 0.866255 0.979512 -0.050562
C25   C     C_R   0.360175 0.860177 0.250000 0.790470
C26   C     C_R   0.860152 0.360150 0.250000 0.777875
C27   C     C_R   0.139825 0.639824 0.750001 0.790529
C28   C     C_R   0.360151 0.139848 0.250000 0.777919
C29   C     C_R   0.639825 0.860175 0.750000 0.790600
C30   C     C_R   0.139850 0.639849 0.250000 0.777889
C31   C     C_R   0.860175 0.360175 0.750000 0.790536
C32   C     C_R   0.639847 0.860149 0.250001 0.777897
C33   C     C_R   0.360175 0.139825 0.750000 0.790598
C34   C     C_R   0.269272 0.623152 0.796037 -0.094295
C35   C     C_R   0.866253 0.503337 0.020484 -0.050632
C36   C     C_R   0.729279 0.378034 0.205193 -0.126960
C37   C     C_R   0.376950 0.269378 0.795942 -0.094340
C38   C     C_R   0.621743 0.729048 0.205404 -0.127195
C39   C     C_R   0.730722 0.376856 0.796029 -0.094293
C40   C     C_R   0.270737 0.621951 0.205209 -0.126972
C41   C     C_R   0.623056 0.730624 0.795945 -0.094347
C42   C     C_R   0.378259 0.270944 0.205406 -0.127182
C43   C     C_R   0.269434 0.377004 0.204107 -0.094368
C44   C     C_R   0.729110 0.621793 0.794646 -0.127133
C45   C     C_R   0.376759 0.730815 0.203889 -0.094261
C46   C     C_R   0.133751 0.503196 0.979488 -0.050554
C47   C     C_R   0.621884 0.270806 0.794728 -0.127037
C48   C     C_R   0.730614 0.623036 0.204070 -0.094367
C49   C     C_R   0.270892 0.378205 0.794646 -0.127133
C50   C     C_R   0.623243 0.269182 0.203881 -0.094257
C51   C     C_R   0.378112 0.729198 0.794735 -0.127035
C52   C     C_R   0.769176 0.123239 0.296114 -0.094242
C53   C     C_R   0.229195 0.878120 0.705274 -0.127042
C54   C     C_R   0.876970 0.769400 0.295926 -0.094344
C55   C     C_R   0.121794 0.229108 0.705354 -0.127126
C56   C     C_R   0.230803 0.876778 0.296100 -0.094253
C57   C     C_R   0.496748 0.866262 0.020512 -0.050445
C58   C     C_R   0.770806 0.121878 0.705276 -0.127039
C59   C     C_R   0.122999 0.230564 0.295893 -0.094364
C60   C     C_R   0.878200 0.770889 0.705352 -0.127131
C61   C     C_R   0.769370 0.876945 0.704052 -0.094343
C62   C     C_R   0.229062 0.121742 0.294599 -0.127183
C63   C     C_R   0.876854 0.230717 0.703973 -0.094296
C64   C     C_R   0.121958 0.770736 0.294794 -0.126985
C65   C     C_R   0.230622 0.123051 0.704055 -0.094339
C66   C     C_R   0.770882 0.878200 0.294651 -0.127189
C67   C     C_R   0.123129 0.769298 0.703986 -0.094290
C68   C     C_R   0.496721 0.133767 0.979512 -0.050553
C69   C     C_R   0.878034 0.229267 0.294800 -0.126994
C70   C     C_R   0.332335 0.614006 0.818088 -0.119678
C71   C     C_R   0.666614 0.386734 0.182786 -0.161310
C72   C     C_R   0.386144 0.332489 0.817948 -0.119620
C73   C     C_R   0.612938 0.666276 0.183093 -0.161221
C74   C     C_R   0.667656 0.386006 0.818075 -0.119680
C75   C     C_R   0.333405 0.613250 0.182805 -0.161294
C76   C     C_R   0.613863 0.667513 0.817951 -0.119636
C77   C     C_R   0.387079 0.333727 0.183105 -0.161165
C78   C     C_R   0.332571 0.386225 0.182127 -0.119571
C79   C     C_R   0.314245 0.740141 0.772349 0.070412
C80   C     C_R   0.666357 0.613002 0.816972 -0.161208
C81   C     C_R   0.385876 0.667783 0.181811 -0.119749
C82   C     C_R   0.613140 0.333517 0.817094 -0.161245
C83   C     C_R   0.667474 0.613808 0.182093 -0.119607
C84   C     C_R   0.333648 0.386998 0.816971 -0.161205
C85   C     C_R   0.614136 0.332207 0.181797 -0.119726
C86   C     C_R   0.386852 0.666493 0.817106 -0.161257
C87   C     C_R   0.832205 0.114121 0.318192 -0.119704
C88   C     C_R   0.166474 0.886876 0.682917 -0.161226
C89   C     C_R   0.886157 0.832507 0.317936 -0.119526
C90   C     C_R   0.686067 0.259348 0.227265 0.063512
C91   C     C_R   0.113002 0.166353 0.683028 -0.161210
C92   C     C_R   0.167771 0.885896 0.318175 -0.119706
C93   C     C_R   0.833517 0.113131 0.682911 -0.161248
C94   C     C_R   0.113782 0.167428 0.317875 -0.119570
C95   C     C_R   0.886988 0.833643 0.683024 -0.161217
C96   C     C_R   0.832478 0.886137 0.682045 -0.119636
C97   C     C_R   0.166282 0.112923 0.316900 -0.161168
C98   C     C_R   0.886006 0.167648 0.681930 -0.119683
C99   C     C_R   0.113249 0.833413 0.317191 -0.161292
C100  C     C_R   0.167512 0.113858 0.682050 -0.119630
C101  C     C_R   0.259905 0.314292 0.772304 0.070416
C102  C     C_R   0.833646 0.887003 0.316970 -0.161290
C103  C     C_R   0.113974 0.832370 0.681945 -0.119668
C104  C     C_R   0.886734 0.166596 0.317204 -0.161325
C105  C     C_R   0.499989 0.000012 0.520536 -0.019361
C106  C     C_R   0.499990 0.000016 0.479459 -0.019337
C107  C     C_R   0.000004 0.499998 0.520544 -0.019349
C108  C     C_R   0.000005 0.499999 0.479466 -0.019373
C109  C     C_R   0.000003 0.500003 0.020534 -0.019375
C110  C     C_R   0.000003 0.500002 0.979456 -0.019349
C111  C     C_R   0.499988 0.000011 0.020542 -0.019343
C112  C     C_R   0.366243 0.996768 0.479485 -0.050491
C113  C     C_R   0.740548 0.685963 0.227363 0.063550
C114  C     C_R   0.499992 0.000011 0.979465 -0.019363
C115  C     C_R   0.704346 0.002646 0.541406 0.165693
C116  C     C_R   0.719938 0.065129 0.563522 -0.112980
C117  C     C_R   0.785920 0.070549 0.583573 -0.135169
C118  C     C_R   0.837192 0.014349 0.581150 -0.151947
C119  C     C_R   0.822565 0.952866 0.558499 -0.121354
C120  C     C_R   0.756175 0.946471 0.538997 -0.063739
C121  C     C_R   0.295665 0.002753 0.458545 0.165543
C122  C     C_R   0.280229 0.065205 0.436372 -0.113159
C123  C     C_R   0.214317 0.070671 0.416257 -0.134849
C124  C     C_R   0.685755 0.259860 0.772347 0.070414
C125  C     C_R   0.162948 0.014561 0.418683 -0.152231
C126  C     C_R   0.177410 0.953120 0.441396 -0.121540
C127  C     C_R   0.243737 0.946666 0.460952 -0.063548
C128  C     C_R   0.997201 0.704333 0.541445 0.165604
C129  C     C_R   0.934725 0.719796 0.563592 -0.113158
C130  C     C_R   0.929250 0.785723 0.583692 -0.134881
C131  C     C_R   0.985382 0.837072 0.581283 -0.152139
C132  C     C_R   0.046849 0.822581 0.558597 -0.121416
C133  C     C_R   0.053304 0.756245 0.539049 -0.063528
C134  C     C_R   0.997442 0.295638 0.458605 0.165775
C135  C     C_R   0.313935 0.740649 0.227270 0.063525
C136  C     C_R   0.934926 0.280004 0.436527 -0.112990
C137  C     C_R   0.929498 0.214004 0.416494 -0.135317
C138  C     C_R   0.985729 0.162763 0.418892 -0.151893
C139  C     C_R   0.047250 0.177435 0.441505 -0.121241
C140  C     C_R   0.053646 0.243837 0.460994 -0.063729
C141  C     C_R   0.295629 0.997373 0.541396 0.165704
C142  C     C_R   0.280038 0.934883 0.563506 -0.112963
C143  C     C_R   0.214059 0.929458 0.583559 -0.135132
C144  C     C_R   0.162788 0.985660 0.581140 -0.151916
C145  C     C_R   0.177412 0.047147 0.558492 -0.121361
C146  C     C_R   0.740097 0.685707 0.772305 0.070414
C147  C     C_R   0.243800 0.053548 0.538992 -0.063764
C148  C     C_R   0.704315 0.997286 0.458555 0.165570
C149  C     C_R   0.719729 0.934848 0.436368 -0.113110
C150  C     C_R   0.785646 0.929369 0.416262 -0.134948
C151  C     C_R   0.837041 0.985450 0.418708 -0.152265
C152  C     C_R   0.822602 0.046877 0.441435 -0.121583
C153  C     C_R   0.756268 0.053346 0.460982 -0.063595
C154  C     C_R   0.002790 0.295662 0.541444 0.165604
C155  C     C_R   0.065262 0.280186 0.563592 -0.113139
C156  C     C_R   0.070724 0.214258 0.583692 -0.134901
C157  C     C_R   0.259474 0.314055 0.227379 0.063558
C158  C     C_R   0.014583 0.162920 0.581281 -0.152146
C159  C     C_R   0.953119 0.177423 0.558595 -0.121423
C160  C     C_R   0.946676 0.243762 0.539047 -0.063533
C161  C     C_R   0.002536 0.704363 0.458608 0.165777
C162  C     C_R   0.065045 0.720025 0.436531 -0.112959
C163  C     C_R   0.070447 0.786029 0.416499 -0.135365
C164  C     C_R   0.014197 0.837249 0.418900 -0.151896
C165  C     C_R   0.952680 0.822547 0.441509 -0.121215
C166  C     C_R   0.946311 0.756141 0.460997 -0.063716
C167  C     C_R   0.204363 0.502570 0.041394 0.165779
C168  C     C_R   0.314320 0.259931 0.227722 0.070424
C169  C     C_R   0.220006 0.565092 0.063466 -0.112982
C170  C     C_R   0.286008 0.570520 0.083497 -0.135299
C171  C     C_R   0.337241 0.514281 0.081103 -0.151886
C172  C     C_R   0.322560 0.452754 0.058497 -0.121231
C173  C     C_R   0.256157 0.446359 0.039009 -0.063728
C174  C     C_R   0.795673 0.502799 0.958551 0.165617
C175  C     C_R   0.780206 0.565275 0.936403 -0.113164
C176  C     C_R   0.714278 0.570746 0.916303 -0.134891
C177  C     C_R   0.662933 0.514612 0.918715 -0.152165
C178  C     C_R   0.677429 0.453145 0.941401 -0.121423
C179  C     C_R   0.685975 0.740555 0.772647 0.063552
C180  C     C_R   0.743766 0.446693 0.960948 -0.063513
C181  C     C_R   0.497241 0.204338 0.041453 0.165528
C182  C     C_R   0.434791 0.219769 0.063627 -0.113160
C183  C     C_R   0.429324 0.285679 0.083745 -0.134831
C184  C     C_R   0.485431 0.337050 0.081319 -0.152253
C185  C     C_R   0.546869 0.322594 0.058605 -0.121555
C186  C     C_R   0.553325 0.256269 0.039047 -0.063537
C187  C     C_R   0.497370 0.795647 0.958600 0.165692
C188  C     C_R   0.434885 0.780049 0.936488 -0.112955
C189  C     C_R   0.429467 0.714065 0.916438 -0.135194
C190  C     C_R   0.259822 0.685792 0.227619 0.070418
C191  C     C_R   0.485671 0.662798 0.918860 -0.151927
C192  C     C_R   0.547156 0.677431 0.941508 -0.121349
C193  C     C_R   0.553549 0.743823 0.961008 -0.063766
C194  C     C_R   0.795640 0.497482 0.041387 0.165806
C195  C     C_R   0.779967 0.434970 0.063460 -0.112939
C196  C     C_R   0.713958 0.429571 0.083485 -0.135406
C197  C     C_R   0.662743 0.485826 0.081081 -0.151869
C198  C     C_R   0.677456 0.547345 0.058475 -0.121205
C199  C     C_R   0.743868 0.553712 0.038994 -0.063737
C200  C     C_R   0.204334 0.497211 0.958556 0.165594
C201  C     C_R   0.740604 0.313981 0.772690 0.063533
C202  C     C_R   0.219802 0.434735 0.936409 -0.113151
C203  C     C_R   0.285726 0.429268 0.916307 -0.134874
C204  C     C_R   0.337067 0.485407 0.918715 -0.152172
C205  C     C_R   0.322572 0.546873 0.941400 -0.121428
C206  C     C_R   0.256238 0.553321 0.960950 -0.063515
C207  C     C_R   0.502762 0.795688 0.041454 0.165520
C208  C     C_R   0.565205 0.780299 0.063643 -0.113182
C209  C     C_R   0.570697 0.714398 0.083766 -0.134795
C210  C     C_R   0.514624 0.662991 0.081330 -0.152266
C211  C     C_R   0.453196 0.677402 0.058600 -0.121601
C212  C     C_R   0.685688 0.740071 0.227716 0.070431
C213  C     C_R   0.446713 0.743721 0.039037 -0.063562
C214  C     C_R   0.502631 0.204373 0.958601 0.165701
C215  C     C_R   0.565119 0.219957 0.936490 -0.112955
C216  C     C_R   0.570549 0.285937 0.916436 -0.135146
C217  C     C_R   0.514354 0.337215 0.918855 -0.151932
C218  C     C_R   0.452868 0.322597 0.941504 -0.121361
C219  C     C_R   0.446462 0.256209 0.961006 -0.063771
C220  C     C_R   0.003191 0.633748 0.520513 -0.050550
C221  C     C_R   0.314028 0.259446 0.772646 0.063550
C222  C     C_R   0.740184 0.314201 0.227611 0.070427
C223  C     C_R   0.259394 0.686022 0.772693 0.063527
C224  C     C_R   0.814200 0.240180 0.272386 0.070421
C225  C     C_R   0.186014 0.759402 0.727316 0.063539
C226  C     C_R   0.759904 0.814293 0.272303 0.070440
C227  C     C_R   0.240554 0.185973 0.727353 0.063548
C228  C     C_R   0.185794 0.759823 0.272382 0.070423
C229  C     C_R   0.813980 0.240602 0.727311 0.063532
C230  C     C_R   0.240071 0.185680 0.272279 0.070421
C231  C     C_R   0.003330 0.366247 0.479513 -0.050599
C232  C     C_R   0.759442 0.814025 0.727352 0.063551
C233  C     C_R   0.814289 0.759903 0.727695 0.070418
C234  C     C_R   0.185947 0.240525 0.272620 0.063563
C235  C     C_R   0.759860 0.185752 0.727655 0.070416
C236  C     C_R   0.240645 0.813942 0.272726 0.063523
C237  C     C_R   0.185707 0.240095 0.727696 0.070415
C238  C     C_R   0.814036 0.759456 0.272639 0.063550
C239  C     C_R   0.240139 0.814248 0.727655 0.070417
C240  C     C_R   0.759344 0.186066 0.272732 0.063528
C241  C     C_R   0.304015 0.804010 0.750000 -0.139106
C242  C     C_R   0.366235 0.003279 0.520486 -0.050563
C243  C     C_R   0.695915 0.195919 0.249999 -0.140427
C244  C     C_R   0.195986 0.304012 0.750000 -0.139117
C245  C     C_R   0.804087 0.695925 0.249997 -0.140443
C246  C     C_R   0.695987 0.195987 0.750000 -0.139112
C247  C     C_R   0.304080 0.804084 0.249999 -0.140433
C248  C     C_R   0.804012 0.695986 0.750000 -0.139121
C249  C     C_R   0.195920 0.304080 0.250000 -0.140444
C250  C     C_R   0.304014 0.195986 0.250000 -0.139114
C251  C     C_R   0.695919 0.804080 0.750000 -0.140448
C252  C     C_R   0.195989 0.695987 0.250001 -0.139106
C253  C     C_R   0.633736 0.003274 0.479491 -0.050467
C254  C     C_R   0.804081 0.304081 0.750000 -0.140443
C255  C     C_R   0.695981 0.804006 0.250005 -0.139119
C256  C     C_R   0.304081 0.195920 0.749999 -0.140444
C257  C     C_R   0.804013 0.304011 0.249999 -0.139101
C258  C     C_R   0.195918 0.695919 0.750002 -0.140438
C259  C     C_R   0.436532 0.018949 0.581907 0.261662
C260  C     C_R   0.563426 0.019024 0.418092 0.261653
C261  C     C_R   0.981041 0.436550 0.581914 0.261672
C262  C     C_R   0.981039 0.563451 0.418093 0.261678
C263  C     C_R   0.563442 0.981052 0.581907 0.261659
C264  C     C_R   0.996812 0.366248 0.520512 -0.050559
C265  C     C_R   0.436559 0.981006 0.418088 0.261705
C266  C     C_R   0.018962 0.563447 0.581914 0.261667
C267  C     C_R   0.018968 0.436547 0.418093 0.261673
C268  C     C_R   0.936551 0.518965 0.081906 0.261669
C269  C     C_R   0.063450 0.518963 0.918086 0.261670
C270  C     C_R   0.480982 0.936573 0.081909 0.261669
C271  C     C_R   0.481052 0.063467 0.918092 0.261658
C272  C     C_R   0.063456 0.481045 0.081908 0.261678
C273  C     C_R   0.936556 0.481036 0.918085 0.261667
C274  C     C_R   0.518992 0.063443 0.081911 0.261702
C275  C     C_R   0.996672 0.633751 0.479513 -0.050620
C276  C     C_R   0.518949 0.936555 0.918094 0.261663
C277  C     C_R   0.499989 1.000000 0.601959 -0.189328
C278  C     C_R   0.499997 0.000005 0.398037 -0.189440
C279  C     C_R   1.000000 0.499999 0.601966 -0.189384
C280  C     C_R   0.000003 0.499999 0.398041 -0.189320
C281  C     C_R   0.000003 0.500002 0.101958 -0.189311
C282  C     C_R   0.000002 0.499999 0.898034 -0.189386
C283  C     C_R   0.499993 0.000004 0.101964 -0.189441
C284  C     C_R   0.500002 0.000010 0.898041 -0.189322
C285  C     C_R   0.566808 0.992914 0.541157 -0.000654
C286  C     C_R   0.133754 0.496682 0.020488 -0.050605
C287  C     C_R   0.433181 0.992899 0.458834 -0.000676
C288  C     C_R   0.007084 0.566814 0.541168 -0.000651
C289  C     C_R   0.007128 0.433181 0.458845 -0.000657
C290  C     C_R   0.433167 0.007104 0.541155 -0.000648
C291  C     C_R   0.566800 0.007136 0.458837 -0.000681
C292  C     C_R   0.992923 0.433182 0.541168 -0.000652
C293  C     C_R   0.992880 0.566818 0.458845 -0.000652
C294  C     C_R   0.066822 0.492884 0.041155 -0.000655
C295  C     C_R   0.933189 0.492919 0.958831 -0.000649
C296  C     C_R   0.507100 0.066821 0.041166 -0.000673
Cl1   Cl    Cl    0.365983 0.062550 0.608752 -0.637841
Cl2   Cl    Cl    0.133982 0.562623 0.891255 -0.637804
Cl3   Cl    Cl    0.437241 0.866072 0.108726 -0.637701
Cl4   Cl    Cl    0.437448 0.134016 0.891247 -0.637834
Cl5   Cl    Cl    0.134007 0.437455 0.108759 -0.637832
Cl6   Cl    Cl    0.866022 0.437375 0.891255 -0.637794
Cl7   Cl    Cl    0.562712 0.133948 0.108735 -0.637757
Cl8   Cl    Cl    0.562564 0.866007 0.891253 -0.637818
Cl9   Cl    Cl    0.633922 0.062770 0.391274 -0.637710
Cl10  Cl    Cl    0.937385 0.366014 0.608744 -0.637802
Cl11  Cl    Cl    0.937434 0.633994 0.391242 -0.637828
Cl12  Cl    Cl    0.633987 0.937431 0.608748 -0.637810
Cl13  Cl    Cl    0.366054 0.937286 0.391264 -0.637738
Cl14  Cl    Cl    0.062621 0.633982 0.608745 -0.637773
Cl15  Cl    Cl    0.062571 0.366002 0.391245 -0.637804
Cl16  Cl    Cl    0.866007 0.562564 0.108757 -0.637863
H1    H     H_    0.228446 0.580668 0.797604 0.131594
H2    H     H_    0.768800 0.578165 0.795200 0.124607
H3    H     H_    0.109092 0.680888 0.434660 0.137113
H4    H     H_    0.118639 0.797741 0.399476 0.151929
H5    H     H_    0.018648 0.888644 0.403611 0.107262
H6    H     H_    0.909980 0.862550 0.444140 0.133840
H7    H     H_    0.897842 0.745027 0.477976 0.124916
H8    H     H_    0.180855 0.609128 0.065334 0.137119
H9    H     H_    0.297706 0.618722 0.100516 0.151973
H10   H     H_    0.388633 0.518751 0.096393 0.107265
H11   H     H_    0.362578 0.410066 0.055869 0.133829
H12   H     H_    0.245060 0.397883 0.022032 0.124916
H13   H     H_    0.419232 0.771652 0.202316 0.131636
H14   H     H_    0.819449 0.609226 0.934516 0.137093
H15   H     H_    0.702723 0.618898 0.899215 0.152162
H16   H     H_    0.611595 0.519119 0.903377 0.107298
H17   H     H_    0.637321 0.410543 0.944038 0.133644
H18   H     H_    0.754729 0.398245 0.977972 0.124891
H19   H     H_    0.390858 0.180507 0.065525 0.137098
H20   H     H_    0.381197 0.297202 0.100858 0.152149
H21   H     H_    0.480924 0.388378 0.096667 0.107315
H22   H     H_    0.589445 0.362725 0.055956 0.133608
H23   H     H_    0.601756 0.245335 0.022006 0.124899
H24   H     H_    0.578255 0.231117 0.795280 0.124597
H25   H     H_    0.390875 0.819226 0.934597 0.137125
H26   H     H_    0.381301 0.702405 0.899383 0.151983
H27   H     H_    0.481207 0.611417 0.903559 0.107269
H28   H     H_    0.589813 0.637386 0.944159 0.133819
H29   H     H_    0.601999 0.754885 0.978012 0.124914
H30   H     H_    0.819099 0.390919 0.065334 0.137110
H31   H     H_    0.702237 0.381375 0.100505 0.151912
H32   H     H_    0.611344 0.481376 0.096365 0.107262
H33   H     H_    0.637457 0.590048 0.055840 0.133862
H34   H     H_    0.754990 0.602181 0.022016 0.124912
H35   H     H_    0.771452 0.580570 0.202491 0.131565
H36   H     H_    0.180561 0.390782 0.934524 0.137095
H37   H     H_    0.297281 0.381117 0.899218 0.152157
H38   H     H_    0.388402 0.480903 0.903375 0.107295
H39   H     H_    0.362677 0.589478 0.944035 0.133636
H40   H     H_    0.245275 0.601770 0.977972 0.124900
H41   H     H_    0.609110 0.819591 0.065549 0.137093
H42   H     H_    0.618817 0.702910 0.100891 0.152181
H43   H     H_    0.519151 0.611669 0.096683 0.107315
H44   H     H_    0.410650 0.637242 0.055942 0.133626
H45   H     H_    0.398289 0.754619 0.021983 0.124896
H46   H     H_    0.231200 0.421832 0.795200 0.124608
H47   H     H_    0.609121 0.180770 0.934601 0.137116
H48   H     H_    0.618716 0.297584 0.899380 0.151991
H49   H     H_    0.518827 0.388592 0.903551 0.107272
H50   H     H_    0.410220 0.362652 0.944153 0.133817
H51   H     H_    0.398011 0.245158 0.978010 0.124906
H52   H     H_    0.580766 0.228351 0.202312 0.131644
H53   H     H_    0.421743 0.768885 0.795289 0.124591
H54   H     H_    0.728342 0.080765 0.297683 0.131641
H55   H     H_    0.268891 0.921742 0.704718 0.124606
H56   H     H_    0.919474 0.728595 0.297481 0.131500
H57   H     H_    0.768962 0.421669 0.204645 0.124593
H58   H     H_    0.078167 0.268799 0.704800 0.124609
H59   H     H_    0.271630 0.919260 0.297666 0.131626
H60   H     H_    0.731118 0.078248 0.704723 0.124595
H61   H     H_    0.080507 0.271381 0.297455 0.131495
H62   H     H_    0.921828 0.731198 0.704799 0.124607
H63   H     H_    0.728550 0.919433 0.702487 0.131534
H64   H     H_    0.268755 0.078117 0.295154 0.124598
H65   H     H_    0.919339 0.271541 0.702408 0.131589
H66   H     H_    0.078326 0.731049 0.295345 0.124587
H67   H     H_    0.271442 0.080562 0.702492 0.131536
H68   H     H_    0.419440 0.228559 0.797506 0.131534
H69   H     H_    0.731175 0.921811 0.295219 0.124591
H70   H     H_    0.080638 0.728481 0.702428 0.131568
H71   H     H_    0.921672 0.268946 0.295347 0.124591
H72   H     H_    0.066045 0.839007 0.663989 0.136390
H73   H     H_    0.935746 0.158961 0.334137 0.131427
H74   H     H_    0.160848 0.065904 0.664115 0.136310
H75   H     H_    0.841323 0.936070 0.333855 0.131328
H76   H     H_    0.933925 0.161021 0.663965 0.136417
H77   H     H_    0.064233 0.841048 0.334122 0.131422
H78   H     H_    0.839139 0.934090 0.664109 0.136315
H79   H     H_    0.578097 0.768718 0.204869 0.124595
H80   H     H_    0.158578 0.063837 0.333766 0.131297
H81   H     H_    0.065803 0.160740 0.335787 0.136249
H82   H     H_    0.936052 0.841329 0.666140 0.131333
H83   H     H_    0.161178 0.933787 0.336166 0.136521
H84   H     H_    0.841175 0.064094 0.666000 0.131366
H85   H     H_    0.934124 0.839179 0.335862 0.136308
H86   H     H_    0.063936 0.158666 0.666145 0.131336
H87   H     H_    0.838791 0.066235 0.336188 0.136560
H88   H     H_    0.158816 0.935911 0.666006 0.131366
H89   H     H_    0.566257 0.338791 0.163796 0.136558
H90   H     H_    0.771546 0.419341 0.797594 0.131587
H91   H     H_    0.435884 0.658840 0.834023 0.131371
H92   H     H_    0.660806 0.565841 0.164168 0.136305
H93   H     H_    0.341336 0.436065 0.833853 0.131335
H94   H     H_    0.433756 0.661199 0.163813 0.136540
H95   H     H_    0.564107 0.341173 0.834007 0.131370
H96   H     H_    0.339258 0.434204 0.164214 0.136246
H97   H     H_    0.658669 0.563935 0.833854 0.131338
H98   H     H_    0.565908 0.660850 0.835885 0.136315
H99   H     H_    0.436167 0.341435 0.166243 0.131302
H100  H     H_    0.661033 0.433925 0.836041 0.136420
H101  H     H_    0.231060 0.578311 0.204665 0.124591
H102  H     H_    0.341041 0.564236 0.165874 0.131425
H103  H     H_    0.434101 0.339153 0.835881 0.136315
H104  H     H_    0.563840 0.658552 0.166240 0.131294
H105  H     H_    0.338954 0.566092 0.836060 0.136432
H106  H     H_    0.658985 0.435745 0.165850 0.131430
H107  H     H_    0.680757 0.109135 0.565414 0.137124
H108  H     H_    0.797576 0.118713 0.600631 0.152001
H109  H     H_    0.888571 0.018815 0.596451 0.107274
H110  H     H_    0.862614 0.910213 0.555847 0.133813
H111  H     H_    0.745118 0.898024 0.521990 0.124913
H112  H     H_    0.580568 0.771444 0.797510 0.131533
H113  H     H_    0.319488 0.109140 0.434474 0.137100
H114  H     H_    0.202789 0.118801 0.399145 0.152152
H115  H     H_    0.111619 0.019068 0.403337 0.107314
H116  H     H_    0.137282 0.910542 0.444046 0.133619
H117  H     H_    0.254675 0.898233 0.477993 0.124899
H118  H     H_    0.890777 0.680549 0.565478 0.137094
H119  H     H_    0.881099 0.797275 0.600780 0.152158
H120  H     H_    0.980873 0.888409 0.596621 0.107292
H121  H     H_    0.089447 0.862692 0.555961 0.133636
H122  H     H_    0.101752 0.745285 0.522026 0.124892
H123  H     H_    0.421886 0.231253 0.204853 0.124600
H124  H     H_    0.890896 0.319160 0.434655 0.137119
H125  H     H_    0.881300 0.202313 0.399470 0.151981
H126  H     H_    0.981258 0.111372 0.403601 0.107272
H127  H     H_    0.089932 0.137412 0.444136 0.133828
H128  H     H_    0.102118 0.254927 0.477976 0.124912
H129  H     H_    0.319220 0.890876 0.565394 0.137116
H130  H     H_    0.202406 0.881291 0.600615 0.151989
H131  H     H_    0.111411 0.981191 0.596443 0.107271
H132  H     H_    0.137363 0.089801 0.555844 0.133815
H133  H     H_    0.254856 0.102001 0.521989 0.124906
H134  H     H_    0.228616 0.419495 0.202543 0.131501
H135  H     H_    0.680450 0.890934 0.434453 0.137090
H136  H     H_    0.797154 0.881247 0.399142 0.152131
H137  H     H_    0.888375 0.980933 0.403368 0.107318
H138  H     H_    0.862755 0.089428 0.444103 0.133652
H139  H     H_    0.745351 0.101766 0.478037 0.124892
H140  H     H_    0.109219 0.319424 0.565479 0.137097
H141  H     H_    0.118874 0.202696 0.600781 0.152151
H142  H     H_    0.019083 0.111581 0.596619 0.107294
H143  H     H_    0.910512 0.137321 0.555958 0.133645
H144  H     H_    0.898230 0.254732 0.522023 0.124898
O1    O     O_3   1.000000 0.500000 0.750000 -0.519247
O2    O     O_R   0.060740 0.500000 0.337440 -0.609804
O3    O     O_R   0.500000 0.939260 0.662560 -0.609801
O4    O     O_R   0.500000 0.060740 0.337440 -0.609782
O5    O     O_R   0.560740 0.000000 0.162560 -0.609811
O6    O     O_R   0.439260 0.000000 0.837440 -0.609815
O7    O     O_R   1.000000 0.560740 0.162560 -0.609800
O8    O     O_R   1.000000 0.439260 0.837440 -0.609820
O9    O     O_R   0.439260 0.000000 0.162560 -0.609791
O10   O     O_R   0.560740 0.000000 0.837440 -0.609808
O11   O     O_R   1.000000 0.439260 0.162560 -0.609809
O12   O     O_3   1.000000 0.500000 0.250000 -0.519261
O13   O     O_R   1.000000 0.560740 0.837440 -0.609821
O14   O     O_R   0.853850 0.585450 0.727070 -0.635006
O15   O     O_R   0.146150 0.414550 0.272930 -0.622419
O16   O     O_R   0.414550 0.853850 0.727070 -0.635001
O17   O     O_R   0.585450 0.146150 0.272930 -0.622397
O18   O     O_R   0.146150 0.414550 0.727070 -0.635001
O19   O     O_R   0.853850 0.585450 0.272930 -0.622396
O20   O     O_R   0.585450 0.146150 0.727070 -0.634999
O21   O     O_R   0.414550 0.853850 0.272930 -0.622392
O22   O     O_R   0.853850 0.414550 0.272930 -0.634983
O23   O     O_3   0.500000 0.000000 0.750000 -0.519250
O24   O     O_R   0.146150 0.585450 0.727070 -0.622400
O25   O     O_R   0.414550 0.146150 0.272930 -0.635004
O26   O     O_R   0.585450 0.853850 0.727070 -0.622420
O27   O     O_R   0.146150 0.585450 0.272930 -0.634998
O28   O     O_R   0.853850 0.414550 0.727070 -0.622416
O29   O     O_R   0.585450 0.853850 0.272930 -0.635033
O30   O     O_R   0.414550 0.146150 0.727070 -0.622427
O31   O     O_R   0.353850 0.085450 0.227070 -0.635005
O32   O     O_R   0.646150 0.914550 0.772930 -0.622422
O33   O     O_R   0.914550 0.353850 0.227070 -0.634996
O34   O     O_3   0.500000 0.000000 0.250000 -0.519249
O35   O     O_R   0.085450 0.646150 0.772930 -0.622424
O36   O     O_R   0.646150 0.914550 0.227070 -0.634979
O37   O     O_R   0.353850 0.085450 0.772930 -0.622417
O38   O     O_R   0.085450 0.646150 0.227070 -0.634986
O39   O     O_R   0.914550 0.353850 0.772930 -0.622413
O40   O     O_R   0.353850 0.914550 0.772930 -0.634993
O41   O     O_R   0.646150 0.085450 0.227070 -0.622392
O42   O     O_R   0.914550 0.646150 0.772930 -0.635007
O43   O     O_R   0.085450 0.353850 0.227070 -0.622423
O44   O     O_R   0.646150 0.085450 0.772930 -0.635000
O45   O     O_R   0.060740 0.500000 0.662560 -0.609813
O46   O     O_R   0.353850 0.914550 0.227070 -0.622404
O47   O     O_R   0.085450 0.353850 0.772930 -0.635009
O48   O     O_R   0.914550 0.646150 0.227070 -0.622438
O49   O     O_R   0.939260 0.500000 0.337440 -0.609798
O50   O     O_R   0.500000 0.060740 0.662560 -0.609824
O51   O     O_R   0.500000 0.939260 0.337440 -0.609817
O52   O     O_R   0.939260 0.500000 0.662560 -0.609824
Zn1   Zn    Zn3+2 0.000000 0.586740 0.782740 1.011512
Zn2   Zn    Zn3+2 0.500000 0.913260 0.717260 1.011554
Zn3   Zn    Zn3+2 0.913260 0.500000 0.282740 1.011577
Zn4   Zn    Zn3+2 0.086740 0.500000 0.717260 1.011523
Zn5   Zn    Zn3+2 0.500000 0.913260 0.282740 1.011467
Zn6   Zn    Zn3+2 0.500000 0.086740 0.717260 1.011545
Zn7   Zn    Zn3+2 0.086740 0.500000 0.282740 1.011572
Zn8   Zn    Zn3+2 0.913260 0.500000 0.717260 1.011515
Zn9   Zn    Zn3+2 1.000000 0.413260 0.217260 1.011568
Zn10  Zn    Zn3+2 0.413260 0.000000 0.782740 1.011548
Zn11  Zn    Zn3+2 0.586740 0.000000 0.217260 1.011483
Zn12  Zn    Zn3+2 1.000000 0.413260 0.782740 1.011515
Zn13  Zn    Zn3+2 1.000000 0.586740 0.217260 1.011567
Zn14  Zn    Zn3+2 0.586740 0.000000 0.782740 1.011551
Zn15  Zn    Zn3+2 0.413260 0.000000 0.217260 1.011494
Zn16  Zn    Zn3+2 0.500000 0.086740 0.282740 1.011499

loop_
_geom_bond_atom_site_label_1
_geom_bond_atom_site_label_2
_ccdc_geom_bond_type
C231  C264  A    
C193  H29   S    
C126  C127  A    
C6    C270  A    
C42   H123  S    
C3    C276  A    
O22   Zn3   S    
O6    Zn10  S    
O52   Zn8   S    
C75   H102  S    
C17   O42   A    
C63   C98   A    
C143  C144  A    
C70   H105  S    
C264  C292  A    
C39   C74   A    
C142  H129  S    
C182  C183  A    
C7    C68   A    
C31   O28   A    
C50   C90   A    
C55   H58   S    
C91   C100  A    
O47   Zn12  S    
C31   C254  S    
C36   C71   A    
O3    Zn2   S    
C112  C242  A    
C221  C256  A    
O10   Zn14  S    
C93   H84   S    
C187  C193  A    
C253  C291  A    
C157  C168  A    
C229  C254  A    
C180  H18   S    
O45   Zn4   S    
C123  H114  S    
C33   O37   A    
C202  C203  A    
C191  C192  A    
C46   C286  A    
C69   H71   S    
C58   C235  A    
C202  H36   S    
C192  H28   S    
O48   Zn13  S    
C94   C97   A    
C204  H38   S    
C181  C182  A    
C15   O7    A    
C120  H111  S    
C144  H131  S    
C127  H117  S    
C215  C216  A    
C61   H63   S    
C116  H107  S    
C18   O15   A    
C108  C293  A    
C262  C293  A    
C78   H96   S    
C55   C237  A    
O35   Zn1   S    
C27   O24   A    
C268  Cl16  S    
C72   H103  S    
C175  H14   S    
C216  H48   S    
C158  C159  A    
C225  C239  A    
C265  Cl13  S    
C148  C153  A    
C41   H112  S    
C219  H51   S    
C267  Cl15  S    
C19   O16   A    
C188  H25   S    
C13   C296  A    
C237  C244  A    
C2    C295  A    
C45   C81   A    
C60   C233  A    
C113  C212  A    
C196  C197  A    
C157  C249  A    
C8    O45   A    
C34   H1    S    
C139  C140  A    
C25   O21   A    
C265  C287  A    
C276  C284  A    
C5    C46   A    
C132  H121  S    
O12   Zn7   S    
C62   H64   S    
C141  C242  S    
C27   O35   A    
C124  C201  A    
C144  C145  A    
C23   C246  S    
C159  H143  S    
C130  C131  A    
C23   O44   A    
O1    Zn8   S    
C37   C221  A    
C59   H61   S    
C175  C176  A    
C25   O46   A    
C41   C76   A    
O23   Zn2   S    
C26   C257  S    
C186  H23   S    
C113  C245  A    
C36   H57   S    
C238  C245  A    
C156  C158  A    
C230  C234  A    
C211  H44   S    
C79   C241  A    
C124  C246  A    
C198  H33   S    
C123  C125  A    
C19   C241  S    
C195  C196  A    
C60   C95   A    
O26   Zn2   S    
C203  H37   S    
C200  C202  A    
C155  C156  A    
C1    C115  S    
C38   C212  A    
O2    Zn7   S    
C185  H22   S    
C73   C83   A    
C11   O51   A    
C224  C257  A    
O29   Zn5   S    
C20   C243  S    
C9    O49   A    
C4    C109  A    
C263  C285  A    
C95   C96   A    
C6    C111  A    
C153  H139  S    
C122  H113  S    
C128  C129  A    
C47   C124  A    
C61   C96   A    
C67   C103  A    
C167  C169  A    
C38   H79   S    
C103  H72   S    
C28   O31   A    
C199  H34   S    
C171  H10   S    
C273  C282  A    
C26   O33   A    
C110  C295  A    
C271  Cl4   S    
C167  C286  S    
C143  H130  S    
C129  H118  S    
C170  C171  A    
C182  H19   S    
C261  C292  A    
C267  C280  A    
C61   C232  A    
C139  H127  S    
C184  C185  A    
C65   C227  A    
C20   O17   A    
C217  H49   S    
C189  C191  A    
C31   O39   A    
C174  C175  A    
C95   H82   S    
C161  C275  S    
C35   C194  S    
C30   O27   A    
C64   C99   A    
C30   C252  S    
C24   C57   A    
C16   O8    A    
C107  C108  A    
C9    C280  S    
C128  C220  S    
C11   C278  S    
O27   Zn7   S    
C151  H137  S    
C165  H6    S    
C19   O40   A    
C220  C275  A    
C3    C24   A    
C162  H3    S    
C39   H90   S    
C269  Cl2   S    
C56   H59   S    
C65   H67   S    
C16   O13   A    
O12   Zn9   S    
O11   Zn9   S    
C149  H135  S    
C209  H42   S    
C135  C247  A    
C273  Cl6   S    
C239  C241  A    
C141  C147  A    
O5    Zn11  S    
C217  C218  A    
C105  C285  A    
C18   O43   A    
C135  C190  A    
C71   H106  S    
C62   C97   A    
O34   Zn16  S    
C86   H91   S    
C209  C210  A    
C268  C281  A    
C160  H144  S    
C140  H128  S    
C224  C240  A    
C226  C255  A    
C112  C287  A    
C13   C181  S    
C208  H41   S    
C100  H74   S    
C259  C277  A    
C12   C283  S    
C81   H94   S    
C174  C180  A    
C8    C279  S    
C107  C292  A    
C99   H77   S    
O33   Zn9   S    
C129  C130  A    
O9    Zn15  S    
C136  H124  S    
C263  Cl12  S    
C259  Cl1   S    
C15   O11   A    
O7    Zn13  S    
C41   C179  A    
O38   Zn13  S    
C274  C283  A    
C76   C80   A    
O40   Zn10  S    
C136  C137  A    
C43   C157  A    
C3    C114  A    
C181  C186  A    
O28   Zn8   S    
C79   C223  A    
C227  C256  A    
C266  C279  A    
C168  C250  A    
C48   C83   A    
C167  C173  A    
C260  Cl9   S    
C220  C288  A    
C212  C255  A    
C112  C121  S    
C51   H53   S    
C117  C118  A    
C63   H65   S    
C172  H11   S    
C10   C277  S    
C197  C198  A    
C266  Cl14  S    
C28   C250  S    
C222  C257  A    
C154  C264  S    
C52   C240  A    
C45   H13   S    
C164  H5    S    
C266  C288  A    
C152  C153  A    
C42   C77   A    
C166  H7    S    
O18   Zn4   S    
C150  C151  A    
C56   C236  A    
C10   O50   A    
C92   C99   A    
C272  C294  A    
C270  Cl3   S    
C13   C68   A    
C2    C35   A    
O34   Zn5   S    
C37   H68   S    
O13   Zn1   S    
O1    Zn12  S    
C52   H54   S    
C203  C204  A    
C274  Cl7   S    
C53   C239  A    
C1    C285  A    
C161  C162  A    
C77   C78   A    
C34   C223  A    
C43   C78   A    
O19   Zn3   S    
C29   C251  S    
C7    C114  A    
C164  C165  A    
C58   C93   A    
C225  C258  A    
C121  C127  A    
C21   O18   A    
C49   C101  A    
C89   H85   S    
C242  C290  A    
C67   C225  A    
C18   C249  S    
C146  C248  A    
C234  C249  A    
C273  C295  A    
O15   Zn7   S    
C196  H31   S    
C274  C296  A    
C55   C91   A    
C275  C293  A    
C50   C85   A    
C158  H142  S    
O30   Zn6   S    
C1    C253  A    
C208  C209  A    
O16   Zn2   S    
C151  C152  A    
C59   C94   A    
C68   C214  S    
C210  H43   S    
C34   C70   A    
C235  C246  A    
C66   H69   S    
C63   C229  A    
C194  C195  A    
C4    C35   A    
C6    C57   A    
O14   Zn8   S    
C74   C82   A    
C64   H66   S    
C51   C86   A    
C145  C147  A    
C42   C168  A    
C11   O4    A    
O4    Zn16  S    
C125  H115  S    
C126  H116  S    
C9    O2    A    
C150  H136  S    
C207  C208  A    
C44   C80   A    
C191  H27   S    
C94   H81   S    
C259  C290  A    
C87   H87   S    
C92   H83   S    
C88   H88   S    
C240  C243  A    
C83   H92   S    
C229  C235  A    
C170  H9    S    
C223  C258  A    
C179  C251  A    
C156  H141  S    
C119  H110  S    
O17   Zn16  S    
C262  C280  A    
C66   C226  A    
C21   O47   A    
C232  C251  A    
C73   H104  S    
C54   C238  A    
C121  C122  A    
O34   Zn11  S    
C85   H89   S    
O12   Zn13  S    
O49   Zn3   S    
C24   C187  S    
C125  C126  A    
C133  H122  S    
C97   H80   S    
C98   H76   S    
C131  C132  A    
C131  H120  S    
O24   Zn4   S    
C162  C163  A    
C10   O3    A    
C101  C221  A    
C272  C281  A    
C27   C258  S    
C155  H140  S    
C205  H39   S    
C33   C256  S    
C65   C100  A    
C48   H35   S    
C272  Cl5   S    
C26   O22   A    
O23   Zn6   S    
C178  C180  A    
C119  C120  A    
C32   O29   A    
C4    C268  A    
O1    Zn4   S    
C105  C106  A    
C5    C269  A    
C17   C248  S    
C40   C75   A    
C32   C255  S    
C214  C219  A    
C91   H86   S    
C14   C284  S    
C84   H93   S    
C53   H55   S    
O12   Zn3   S    
C7    C271  A    
C187  C188  A    
C149  C150  A    
O51   Zn5   S    
C58   H60   S    
C185  C186  A    
C183  H20   S    
C232  C233  A    
O32   Zn14  S    
C146  C179  A    
C111  C114  A    
O44   Zn14  S    
C20   O41   A    
C265  C278  A    
C231  C289  A    
C138  C139  A    
C145  H132  S    
C87   C104  A    
C40   H101  S    
C213  H45   S    
O36   Zn11  S    
C177  C178  A    
C5    C110  A    
C37   C72   A    
C49   H46   S    
C142  C143  A    
C105  C290  A    
C195  H30   S    
C128  C133  A    
O50   Zn6   S    
C201  C254  A    
C48   C113  A    
C228  C252  A    
C171  C172  A    
C165  C166  A    
C226  C238  A    
O31   Zn15  S    
C89   C102  A    
C169  C170  A    
C66   C102  A    
C163  C164  A    
C218  H50   S    
C183  C184  A    
O34   Zn15  S    
C54   H56   S    
C205  C206  A    
C286  C294  A    
C29   O26   A    
C90   C222  A    
C104  H73   S    
C14   O6    A    
C134  C140  A    
C215  H47   S    
C109  C294  A    
C17   O14   A    
C227  C237  A    
C207  C213  A    
C260  C278  A    
C116  C117  A    
C32   O36   A    
C47   C82   A    
C118  C119  A    
C8    O52   A    
C169  H8    S    
C23   O20   A    
C141  C142  A    
C159  C160  A    
C29   O32   A    
C132  C133  A    
O23   Zn14  S    
C261  C279  A    
C28   O25   A    
C44   C146  A    
C216  C217  A    
C198  C199  A    
C270  C283  A    
C118  H109  S    
C161  C166  A    
C152  H138  S    
C12   O5    A    
C45   C135  A    
C148  C253  S    
C71   C85   A    
C90   C243  A    
C77   H99   S    
C22   O48   A    
C236  C247  A    
C262  Cl11  S    
C147  H133  S    
O21   Zn5   S    
C76   H98   S    
C51   C79   A    
C189  H26   S    
C271  C284  A    
C228  C236  A    
C74   H100  S    
C267  C289  A    
C148  C149  A    
C101  C244  A    
C54   C89   A    
C14   O10   A    
C214  C215  A    
C75   C81   A    
C134  C136  A    
C62   C230  A    
C263  C277  A    
C206  H40   S    
C188  C189  A    
C177  H16   S    
O20   Zn6   S    
C22   O19   A    
C154  C160  A    
C108  C289  A    
C46   C200  S    
C194  C199  A    
C115  C116  A    
C190  C252  A    
C154  C155  A    
C80   H97   S    
C72   C84   A    
C134  C231  S    
C204  C205  A    
C276  Cl8   S    
C21   C244  S    
C25   C247  S    
C176  C177  A    
C211  C213  A    
C12   O9    A    
C115  C120  A    
C130  H119  S    
C261  Cl10  S    
C15   C281  S    
C59   C234  A    
C137  H125  S    
O46   Zn15  S    
C70   C86   A    
C36   C222  A    
C64   C228  A    
C88   C103  A    
C172  C173  A    
C178  H17   S    
C49   C84   A    
C138  H126  S    
C200  C206  A    
C111  C296  A    
O25   Zn16  S    
O37   Zn10  S    
C52   C87   A    
C184  H21   S    
C43   H134  S    
C44   H2    S    
C163  H4    S    
C22   C245  S    
C233  C248  A    
C60   H62   S    
C137  C138  A    
C57   C207  S    
C82   H95   S    
O8    Zn12  S    
C69   C224  A    
C192  C193  A    
C173  H12   S    
C39   C201  A    
C107  C288  A    
C106  C287  A    
C106  C291  A    
C2    C174  S    
C50   H52   S    
C218  C219  A    
C197  H32   S    
C47   H24   S    
C30   O38   A    
O1    Zn1   S    
C33   O30   A    
C53   C88   A    
C117  H108  S    
C16   C282  S    
O39   Zn12  S    
C260  C291  A    
C176  H15   S    
C269  C282  A    
C56   C92   A    
C40   C190  A    
C102  H75   S    
C210  C211  A    
O41   Zn11  S    
C67   H70   S    
C109  C110  A    
O42   Zn1   S    
C96   H78   S    
O43   Zn9   S    
C122  C123  A    
C230  C250  A    
C93   C98   A    
O23   Zn10  S    
C69   C104  A    
C38   C73   A    
