data_mof_unit_67149.cif
_audit_creation_date              2013-03-05T15:58:57-0500
_audit_creation_method            fapswitch 2.2
_symmetry_space_group_name_H-M    P1
_symmetry_Int_Tables_number       1
_space_group_crystal_system       triclinic
_cell_length_a                    8.467945
_cell_length_b                    13.197176
_cell_length_c                    15.190213
_cell_angle_alpha                 96.897274
_cell_angle_beta                  97.301031
_cell_angle_gamma                 99.669892
_cell_volume                      1642.4080373

loop_
_atom_site_label
_atom_site_type_symbol
_atom_site_description
_atom_site_fract_x
_atom_site_fract_y
_atom_site_fract_z
_atom_type_partial_charge
P1    P     P_3+3 0.998730 0.403530 0.291970 0.471555
O1    O     O_2   0.827880 0.435260 0.277750 -0.358465
O2    O     O_3   0.100280 0.438960 0.391170 -0.426119
O3    O     O_3   0.625580 0.634130 0.333250 -0.308575
O4    O     O_2   0.669083 0.525608 0.185059 -0.298349
O5    O     O_3   0.927114 0.270405 0.279413 -0.539023
O6    O     O_3   0.680098 0.714352 0.168651 -0.491788
C1    C     C_3   0.668546 0.877986 0.115892 -0.051405
H1    H     H_    0.800437 0.908272 0.135611 0.177699
H2    H     H_    0.648353 0.837438 0.046576 0.174720
P2    P     P_3+3 0.687380 0.751030 0.571310 0.524738
P3    P     P_3+3 0.114661 0.822782 0.386500 0.628406
O7    O     O_2   0.857130 0.766340 0.543890 -0.343188
O8    O     O_3   0.056550 0.691050 0.379010 -0.361574
O9    O     O_2   0.987129 0.872666 0.431659 -0.283432
O10   O     O_3   0.735632 0.778885 0.687315 -0.532987
O11   O     O_3   0.080603 0.841578 0.274371 -0.421591
C2    C     C_3   0.182611 0.786511 0.229374 0.150926
H3    H     H_    0.174989 0.705777 0.244597 0.070292
H4    H     H_    0.308055 0.827120 0.248917 0.145408
C3    C     C_3   0.140382 0.779757 0.128670 0.355939
C4    C     C_3   0.315709 0.791597 0.684950 0.476797
H5    H     H_    0.363567 0.744008 0.633291 0.007386
C5    C     C_3   0.450482 0.867682 0.748786 -0.102175
H6    H     H_    0.530588 0.823338 0.782476 0.122489
H7    H     H_    0.396744 0.908298 0.801595 0.201939
Ba1   Ba    Ba6+2 0.843750 0.550210 0.455600 1.662268
C6    C     C_3   0.927437 0.238295 0.363849 0.324500
H8    H     H_    0.850700 0.279758 0.403659 0.079923
H9    H     H_    0.052503 0.251877 0.400555 0.157336
C7    C     C_3   0.862979 0.122744 0.349718 -0.652929
H10   H     H_    0.729806 0.106899 0.338683 0.262993
H11   H     H_    0.904496 0.087773 0.408833 0.228250
H12   H     H_    0.906121 0.085272 0.290334 0.317263
C8    C     C_3   0.779165 0.695228 0.726791 0.218616
H13   H     H_    0.910989 0.699065 0.728555 0.146177
H14   H     H_    0.713297 0.617922 0.692282 0.087310
C9    C     C_3   0.737502 0.709703 0.821468 -0.104038
H15   H     H_    0.762616 0.793467 0.849827 0.214808
H16   H     H_    0.607221 0.678463 0.818897 0.140712
P4    P     P_3+3 0.190990 0.596560 0.708040 0.483915
O12   O     O_2   0.361830 0.564780 0.722310 -0.389892
O13   O     O_3   0.089430 0.561130 0.608830 -0.409673
O14   O     O_3   0.564130 0.365960 0.666760 -0.364045
O15   O     O_3   0.221944 0.732172 0.736690 -0.553048
P5    P     P_3+3 0.078899 0.173783 0.619297 0.523022
O16   O     O_3   0.601940 0.368240 0.453770 -0.408905
O17   O     O_3   0.133170 0.309040 0.621000 -0.371801
O18   O     O_2   0.185263 0.125140 0.557073 -0.306819
O19   O     O_3   0.156501 0.144263 0.723612 -0.456690
Ba2   Ba    Ba6+2 0.346090 0.449880 0.544410 1.632586
P6    P     P_3+3 0.577183 0.611345 0.215046 0.578611
C10   C     C_3   0.607370 0.802064 0.178972 0.861461
H17   H     H_    0.475158 0.779509 0.160339 -0.832177
O20   O     O_3   0.587780 0.631850 0.546230 -0.413009
C11   C     C_3   0.436635 0.258890 0.260419 0.618254
H18   H     H_    0.451282 0.341014 0.291991 0.020311
C12   C     C_3   0.523358 0.251075 0.178249 -0.336242
H19   H     H_    0.506953 0.169271 0.148516 0.278073
H20   H     H_    0.653574 0.279053 0.198658 0.207466
P7    P     P_3+3 0.510417 0.234743 0.432935 0.492820
O21   O     O_2   0.332590 0.233690 0.456160 -0.340864
O22   O     O_3   0.498344 0.194013 0.317443 -0.555425
H21   H     H_    0.221880 0.736340 0.095085 0.049791
C13   C     C_3   0.053453 0.165944 0.786189 0.118010
H22   H     H_    0.059091 0.251276 0.800483 0.056072
H23   H     H_    0.926242 0.127274 0.761164 0.109523
C14   C     C_3   0.110613 0.126266 0.873403 0.217344
H24   H     H_    0.234217 0.169920 0.900884 0.136640
P8    P     P_3+3 0.617963 0.387688 0.783825 0.493660
C15   C     C_3   0.618611 0.203634 0.816970 0.316312
H25   H     H_    0.745327 0.233840 0.848143 0.009511
O23   O     O_2   0.525716 0.471519 0.818932 -0.333496
O24   O     O_3   0.520775 0.278927 0.822379 -0.483030
H26   H     H_    0.620299 0.173854 0.745954 0.164523
H27   H     H_    0.628672 0.059581 0.871282 0.258317
C16   C     C_3   0.550611 0.118651 0.867391 -0.627960
H28   H     H_    0.428936 0.082881 0.831564 0.267220
H29   H     H_    0.541263 0.151727 0.936755 0.262990
C17   C     C_R   0.839891 0.428951 0.827951 0.133178
C18   C     C_R   0.909384 0.430844 0.919329 0.043429
C19   C     C_R   0.043439 0.443128 0.105907 0.023225
C20   C     C_R   0.884259 0.393922 0.072453 -0.009962
C21   C     C_R   0.817790 0.390869 0.982656 -0.089805
C22   C     C_R   0.107781 0.456156 0.200006 0.255124
H30   H     H_    0.808091 0.359240 0.115907 0.163718
H31   H     H_    0.692357 0.356700 0.963432 0.186598
C23   C     C_R   0.265561 0.511795 0.227983 -0.467597
C24   C     C_R   0.092811 0.528008 0.796519 0.325463
C25   C     C_R   0.163621 0.532389 0.889682 -0.053358
C26   C     C_R   0.072461 0.479967 0.949820 0.044386
C27   C     C_R   0.316317 0.592396 0.928469 0.277778
C28   C     C_R   0.390711 0.580437 0.012844 -0.154510
C29   C     C_R   0.299218 0.539586 0.074999 -0.049711
C30   C     C_R   0.138575 0.486888 0.043564 0.089354
C31   C     C_R   0.362133 0.553270 0.167998 0.199992
C32   C     C_R   0.935420 0.472157 0.768359 -0.484162
H32   H     H_    0.513004 0.621548 0.034410 0.227024
H33   H     H_    0.316352 0.521169 0.298193 0.166391
H34   H     H_    0.880577 0.469720 0.699598 0.152209
C33   C     C_R   0.759881 0.179548 0.545048 -0.464171
C34   C     C_R   0.419261 0.813480 0.481180 -0.427424
C35   C     C_R   0.391319 0.980727 0.437146 0.310651
C36   C     C_R   0.324968 0.877329 0.441607 0.106469
C37   C     C_R   0.580966 0.850750 0.519767 0.313841
C38   C     C_R   0.645865 0.960955 0.523656 0.034682
C39   C     C_R   0.547534 0.027817 0.483656 -0.117913
C40   C     C_R   0.607960 0.139014 0.494243 0.251904
C41   C     C_R   0.861871 0.115055 0.576578 0.126075
C42   C     C_R   0.803723 0.007099 0.567118 -0.047630
H35   H     H_    0.880170 0.959857 0.596382 0.188783
H36   H     H_    0.805824 0.262298 0.553108 0.144501
H37   H     H_    0.366779 0.732409 0.479009 0.152114
N1    N     N_R   0.650945 0.852761 0.271063 0.253938
O25   O     O_R   0.561398 0.825417 0.329923 -0.465170
O26   O     O_R   0.796453 0.904080 0.298486 -0.344433
N2    N     N_R   0.546725 0.945502 0.706931 0.204599
O27   O     O_R   0.701677 0.968595 0.733820 -0.402743
O28   O     O_R   0.479277 0.013278 0.668159 -0.444040
N3    N     N_R   0.830917 0.657773 0.881078 0.244238
O29   O     O_R   0.756242 0.602397 0.933809 -0.335351
O30   O     O_R   0.985161 0.693849 0.902142 -0.358096
N4    N     N_R   0.586467 0.965895 0.117549 0.263868
O31   O     O_R   0.542845 0.000011 0.043085 -0.339715
O32   O     O_R   0.589809 0.023441 0.193320 -0.363281
I1    I     I_    0.193768 0.190177 0.211893 -0.166273
I2    I     I_    0.431871 0.318215 0.066315 -0.401490
I3    I     I_    0.963259 0.152628 0.974154 -0.336439
N5    N     N_R   0.113070 0.015303 0.858298 0.280620
O33   O     O_R   0.230819 0.980365 0.900574 -0.337911
O34   O     O_R   0.983589 0.949584 0.820481 -0.305900
I4    I     I_    0.369458 0.751491 0.924144 -0.270042
N6    N     N_R   0.310682 0.028305 0.370485 0.257787
O35   O     O_R   0.170857 0.051947 0.380360 -0.359646
O36   O     O_R   0.344745 0.010536 0.289963 -0.323144
N7    N     N_R   0.976391 0.724335 0.099379 0.281059
O37   O     O_R   0.931518 0.631643 0.118384 -0.351549
O38   O     O_R   0.877804 0.763508 0.047236 -0.345895
I5    I     I_    0.170817 0.930862 0.089713 0.023121
I6    I     I_    0.159894 0.885612 0.635512 -0.154927

loop_
_geom_bond_atom_site_label_1
_geom_bond_atom_site_label_2
_geom_bond_distance
_ccdc_geom_bond_type
P4    C24   1.907723 S    
C23   C31   1.399074 A    
C28   C29   1.396473 A    
C17   C32   1.397871 A    
C2    C3    1.514384 S    
P4    O12   1.568977 D    
C8    H13   1.105640 S    
C21   H31   1.070249 S    
C18   C21   1.406885 A    
N1    O25   1.289381 A    
N4    O31   1.300227 A    
C10   H17   1.099726 S    
C10   N1    1.449741 S    
C33   H36   1.082588 S    
P5    O18   1.543250 D    
C5    N2    1.459624 S    
O3    P6    1.767557 S    
C6    H8    1.107801 S    
C27   I4    2.082887 S    
C5    H7    1.099687 S    
O6    P6    1.758507 S    
P3    C36   1.853672 S    
N2    O28   1.298360 A    
O10   C8    1.397833 S    
C9    H15   1.111837 S    
Ba1   O20   2.990161 S    
N4    O32   1.294949 A    
C38   C39   1.445049 A    
C12   H20   1.094148 S    
C4    I6    2.089542 S    
C11   H18   1.111266 S    
C34   C37   1.400357 A    
C2    H3    1.110270 S    
P7    O22   1.756873 S    
P7    C40   1.892944 S    
C42   H35   1.065076 S    
C3    H21   1.103165 S    
O17   Ba2   2.825910 S    
O5    C6    1.398101 S    
C20   C21   1.401096 A    
N3    O30   1.297432 A    
C1    H1    1.110442 S    
C13   H23   1.109044 S    
P3    O11   1.745425 S    
P2    C37   1.903530 S    
C39   C40   1.453044 A    
C7    H11   1.103062 S    
O4    P6    1.534747 D    
O14   P8    1.754928 S    
O1    Ba1   2.910810 S    
C19   C30   1.431183 A    
C11   I1    2.103056 S    
O8    Ba1   2.825321 S    
C14   I3    2.126862 S    
C3    N7    1.443923 S    
C2    H4    1.092762 S    
P7    O21   1.587877 D    
O12   Ba2   2.911376 S    
C9    N3    1.436809 S    
C33   C40   1.397871 A    
C12   I2    2.129316 S    
C9    H16   1.104969 S    
P4    O13   1.611089 S    
C29   C30   1.414020 A    
Ba2   O21   2.980460 S    
Ba1   Ba2   4.618622 S    
C16   H29   1.108760 S    
P1    C22   1.905779 S    
P5    O17   1.763074 S    
C11   O22   1.403499 S    
P8    C17   1.877730 S    
P1    O5    1.738658 S    
C8    C9    1.521479 S    
C5    H6    1.087003 S    
N7    O38   1.291063 A    
O2    Ba2   2.891196 S    
C14   H24   1.109188 S    
O16   Ba2   2.989382 S    
C12   H19   1.097889 S    
C16   H28   1.101363 S    
C24   C32   1.397107 A    
P1    O2    1.610932 S    
C29   C31   1.423806 A    
P8    O24   1.734373 S    
P2    O10   1.737294 S    
C25   C27   1.412973 A    
C7    H10   1.099026 S    
P3    O9    1.545596 D    
P2    Ba1   3.538108 S    
C13   C14   1.533734 S    
C20   H30   1.069016 S    
P8    O23   1.540468 D    
O11   C2    1.408230 S    
C7    H12   1.108619 S    
H27   C16   1.105623 S    
C34   C36   1.390906 A    
O14   Ba2   2.898077 S    
P3    O8    1.711229 S    
C13   H22   1.112737 S    
N6    O35   1.296067 A    
C4    C5    1.533250 S    
O6    C10   1.401508 S    
C15   C16   1.509123 S    
O3    Ba1   2.898758 S    
P2    O20   1.630666 S    
N3    O29   1.299841 A    
P1    Ba1   3.489188 S    
N5    O33   1.296914 A    
C38   C42   1.413941 A    
C22   C23   1.398575 A    
Ba1   O16   2.877199 S    
P4    O15   1.757114 S    
C32   H34   1.082269 S    
C8    H14   1.110317 S    
C6    C7    1.510450 S    
C17   C18   1.432726 A    
C1    C10   1.540390 S    
O16   P7    1.774744 S    
C15   O24   1.398107 S    
N1    O26   1.293006 A    
C1    N4    1.448439 S    
C19   C22   1.442615 A    
C37   C38   1.457180 A    
P5    O19   1.750441 S    
C6    H9    1.107584 S    
C35   N6    1.416646 S    
C15   H25   1.102877 S    
C34   H37   1.082295 S    
N2    O27   1.296510 A    
C15   H26   1.105592 S    
P2    O7    1.534712 D    
O13   Ba2   3.017313 S    
C25   C26   1.435491 A    
P1    O1    1.568727 D    
O2    Ba1   3.016439 S    
C27   C28   1.393279 A    
C11   C12   1.528191 S    
P6    C31   1.866305 S    
Ba2   O20   2.876648 S    
C14   N5    1.458872 S    
O19   C13   1.405797 S    
C23   H33   1.082393 S    
C26   C30   1.448621 A    
C18   C26   1.416447 A    
Ba1   O13   2.890418 S    
C4    O15   1.400229 S    
C1    H2    1.101091 S    
C19   C20   1.396215 A    
P5    C41   1.869976 S    
C35   C36   1.398786 A    
N6    O36   1.295291 A    
C3    I5    2.131381 S    
C4    H5    1.105632 S    
O7    Ba1   2.980133 S    
C35   C39   1.419871 A    
C24   C25   1.455535 A    
C41   C42   1.410705 A    
C33   C41   1.392621 A    
C28   H32   1.075374 S    
P4    Ba2   3.489758 S    
N7    O37   1.296413 A    
N5    O34   1.298145 A    
