data_mof_unit_52086.cif
_audit_creation_date              2012-12-10T17:02:29-0500
_audit_creation_method            fapswitch 2.2
_symmetry_space_group_name_H-M    P1
_symmetry_Int_Tables_number       1
_space_group_crystal_system       triclinic
_cell_length_a                    10.760171
_cell_length_b                    11.114036
_cell_length_c                    9.755259
_cell_angle_alpha                 111.369238
_cell_angle_beta                  93.228317
_cell_angle_gamma                 90.275033
_cell_volume                      1084.29125006

loop_
_atom_site_label
_atom_site_type_symbol
_atom_type_description
_atom_site_fract_x
_atom_site_fract_y
_atom_site_fract_z
_atom_type_partial_charge
C1    C     C_R   0.485832 0.254871 0.441752 0.894065
C2    C     C_R   0.514170 0.745128 0.558248 0.894063
C3    C     C_2   0.492551 0.116108 0.407298 -0.275892
C4    C     C_2   0.507452 0.883891 0.592700 -0.275892
C5    C     C_2   0.472883 0.062897 0.507414 0.254079
C6    C     C_2   0.527119 0.937102 0.492584 0.254078
C7    C     C_2   0.471430 0.524368 0.073833 0.363475
C8    C     C_2   0.528570 0.475632 0.926167 0.363476
C9    C     C_R   0.261808 0.503244 0.510308 0.822361
C10   C     C_R   0.738192 0.496756 0.489692 0.822359
C11   C     C_R   0.105777 0.351574 0.653661 0.311155
C12   C     C_R   0.894223 0.648424 0.346336 0.311156
C13   C     C_R   0.045470 0.236776 0.644699 -0.150693
C14   C     C_R   0.954531 0.763220 0.355296 -0.150691
C15   C     C_R   0.941227 0.189544 0.548255 -0.180078
C16   C     C_R   0.058772 0.810453 0.451741 -0.180078
C17   C     C_R   0.886260 0.266044 0.477043 0.263156
C18   C     C_R   0.113740 0.733956 0.522957 0.263159
C19   C     C_R   0.937568 0.389713 0.501683 -0.007973
C20   C     C_R   0.062432 0.610287 0.498318 -0.007974
C21   C     C_R   0.060151 0.419506 0.564396 -0.054283
C22   C     C_R   0.939849 0.580493 0.435604 -0.054285
C23   C     C_R   0.872164 0.481337 0.459986 -0.067712
C24   C     C_R   0.127836 0.518663 0.540014 -0.067714
Cu1   Cu    Cu3+1 0.521920 0.521810 0.644910 1.090670
Cu2   Cu    Cu3+1 0.478080 0.478190 0.355090 1.090671
H1    H     H_    0.098230 0.904995 0.468741 0.196832
H2    H     H_    0.901770 0.095002 0.531254 0.196831
H3    H     H_    0.078988 0.184315 0.712970 0.221366
H4    H     H_    0.921013 0.815679 0.287022 0.221365
H5    H     H_    0.469434 0.939606 0.696807 0.213900
H6    H     H_    0.530572 0.060394 0.303191 0.213901
H7    H     H_    0.537474 0.650095 0.920091 0.240951
H8    H     H_    0.462526 0.349905 0.079908 0.240952
N1    N     N_2   0.445130 0.445420 0.137360 -0.273540
N2    N     N_2   0.554870 0.554580 0.862640 -0.273541
O1    O     O_R   0.511700 0.332340 0.577400 -0.514963
O2    O     O_R   0.488300 0.667660 0.422600 -0.514963
O3    O     O_R   0.474680 0.295500 0.332650 -0.569770
O4    O     O_R   0.525320 0.704500 0.667350 -0.569771
O5    O     O_R   0.338170 0.518410 0.622370 -0.531676
O6    O     O_R   0.661830 0.481590 0.377630 -0.531676
O7    O     O_R   0.301150 0.481570 0.377630 -0.547540
O8    O     O_R   0.698850 0.518430 0.622370 -0.547541
Br1   Br    Br    0.212557 0.433988 0.826725 -0.391075
Br2   Br    Br    0.787444 0.566007 0.173272 -0.391075
Br3   Br    Br    0.769162 0.184493 0.314190 -0.455227
Br4   Br    Br    0.230836 0.815511 0.685807 -0.455226
Br5   Br    Br    0.645819 0.861529 0.346137 -0.480950
Br6   Br    Br    0.354182 0.138467 0.653859 -0.480946
Br7   Br    Br    0.609743 0.311966 0.859552 -0.370637
Br8   Br    Br    0.390256 0.688033 0.140448 -0.370639

loop_
_geom_bond_atom_site_label_1
_geom_bond_atom_site_label_2
_ccdc_geom_bond_type
Cu2   O7    S    
C19   C23   A    
C9    C24   S    
C2    O4    A    
C10   C23   S    
C10   O6    A    
C2    O2    A    
C9    O5    A    
C1    O1    A    
Cu1   O1    S    
C16   H1    S    
C7    C8    S    
Cu1   O4    S    
C16   C18   A    
C11   C13   A    
C8    Br7   S    
C15   H2    S    
C3    H6    S    
C14   H4    S    
C2    C4    S    
Cu1   O8    S    
C13   H3    S    
C19   C21   A    
C20   C22   A    
C7    Br8   S    
C18   C20   A    
C13   C15   A    
C6    Br5   S    
C5    C6    S    
Cu2   O3    S    
C14   C16   A    
C5    Br6   S    
C11   Br1   S    
C4    H5    S    
C9    O7    A    
C1    O3    A    
Cu1   N2    S    
C10   O8    A    
C12   C22   A    
Cu2   N1    S    
H7    N2    S    
Cu2   O6    S    
C4    C6    D    
H8    N1    S    
C8    N2    D    
C21   C24   A    
Cu1   O5    S    
C1    C3    S    
C15   C17   A    
C20   C24   A    
C22   C23   A    
Cu2   O2    S    
C17   C19   A    
Cu1   Cu2   S    
C7    N1    D    
C11   C21   A    
C17   Br3   S    
C12   C14   A    
C3    C5    D    
C12   Br2   S    
C18   Br4   S    
