data_mof_unit_20149.cif
_audit_creation_date              2012-12-10T17:58:18-0500
_audit_creation_method            fapswitch 2.2
_symmetry_space_group_name_H-M    P1
_symmetry_Int_Tables_number       1
_space_group_crystal_system       triclinic
_cell_length_a                    9.512714
_cell_length_b                    10.827419
_cell_length_c                    15.467361
_cell_angle_alpha                 89.653674
_cell_angle_beta                  74.494337
_cell_angle_gamma                 89.941448
_cell_volume                      1535.0983286

loop_
_atom_site_label
_atom_site_type_symbol
_atom_type_description
_atom_site_fract_x
_atom_site_fract_y
_atom_site_fract_z
_atom_type_partial_charge
C1    C     C_R   0.999949 0.262058 0.500133 0.787354
C2    C     C_R   0.000008 0.737943 0.499968 0.786546
C3    C     C_R   0.569194 0.412053 0.087989 -0.259113
C4    C     C_R   0.415924 0.523645 0.904105 -0.266974
C5    C     C_R   0.712840 0.387633 0.042309 -0.165881
C6    C     C_R   0.270592 0.542530 0.948983 -0.183605
C7    C     C_R   0.872253 0.063982 0.500001 -0.188845
C8    C     C_R   0.127590 0.936023 0.500365 -0.188750
C9    C     C_R   0.872274 0.936249 0.499880 -0.191747
C10   C     C_R   0.127568 0.063757 0.500488 -0.191948
C11   C     C_R   0.999946 0.871780 0.500049 -0.017455
C12   C     C_R   0.999931 0.128224 0.500239 -0.017434
C13   C     C_R   0.548578 0.428173 0.559405 -0.027041
C14   C     C_R   0.451414 0.571848 0.440615 -0.026540
C15   C     C_R   0.399702 0.428282 0.559427 -0.031114
C16   C     C_R   0.600290 0.571731 0.440587 -0.030780
C17   C     C_R   0.918266 0.497106 0.672140 0.831863
C18   C     C_R   0.081740 0.501439 0.327730 0.829676
C19   C     C_R   0.872549 0.479297 0.769640 -0.124663
C20   C     C_R   0.126529 0.506717 0.229300 -0.121294
C21   C     C_R   0.912219 0.391130 0.905499 0.486195
C22   C     C_R   0.074848 0.551829 0.087233 0.474437
C23   C     C_R   0.965256 0.424511 0.815225 -0.309105
C24   C     C_R   0.027263 0.537138 0.180323 -0.297238
C25   C     C_R   0.727975 0.504651 0.815116 -0.267997
C26   C     C_R   0.272476 0.484997 0.184515 -0.262218
C27   C     C_R   0.669646 0.469673 0.905107 0.009929
C28   C     C_R   0.322602 0.491418 0.090563 0.022110
C29   C     C_R   0.765253 0.416045 0.951316 0.069497
C30   C     C_R   0.222316 0.528691 0.041943 0.075564
C31   C     C_R   0.519421 0.487491 0.950271 0.092167
C32   C     C_R   0.470226 0.464412 0.044113 0.087755
Cu1   Cu    Cu3+1 0.140660 0.500020 0.500000 0.935375
Cu2   Cu    Cu3+1 0.859340 0.499980 0.500000 0.935992
H1    H     H_    0.783341 0.346637 0.079237 0.184137
H2    H     H_    0.195925 0.568795 0.910051 0.190042
H3    H     H_    0.346007 0.466195 0.225038 0.163654
H4    H     H_    0.663485 0.553227 0.778343 0.163176
H5    H     H_    0.913378 0.552768 0.214189 0.161870
H6    H     H_    0.077566 0.404012 0.780408 0.160992
H7    H     H_    0.538140 0.384032 0.157406 0.144420
H8    H     H_    0.442118 0.533581 0.832247 0.147951
H9    H     H_    0.772433 0.112126 0.499858 0.148948
H10   H     H_    0.227409 0.887880 0.500511 0.149019
H11   H     H_    0.772502 0.888284 0.499632 0.148660
H12   H     H_    0.227337 0.111723 0.500742 0.148606
H13   H     H_    0.584007 0.370421 0.606880 0.120625
H14   H     H_    0.415973 0.629629 0.393163 0.119078
H15   H     H_    0.322863 0.370764 0.606943 0.112492
H16   H     H_    0.677125 0.629259 0.393082 0.112576
N1    N     N_R   0.352080 0.500030 0.499980 -0.155433
N2    N     N_R   0.647920 0.499970 0.500020 -0.155637
O1    O     O_R   0.118740 0.319660 0.500000 -0.588939
O2    O     O_R   0.881260 0.680340 0.500000 -0.588962
O3    O     O_R   0.881170 0.319630 0.500010 -0.587156
O4    O     O_R   0.118830 0.680370 0.499990 -0.587168
O5    O     O_R   0.055570 0.500030 0.629830 -0.584122
O6    O     O_R   0.944430 0.499970 0.370170 -0.584069
O7    O     O_R   0.818000 0.500000 0.629840 -0.585997
O8    O     O_R   0.182000 0.500000 0.370160 -0.588209
O9    O     O_3   0.006709 0.339335 0.949706 -0.576352
C33   C     C_3   0.007009 0.209883 0.938940 0.034199
H17   H     H_    0.050346 0.184405 0.867004 0.136107
H18   H     H_    0.894575 0.171664 0.964174 0.103299
C34   C     C_3   0.101630 0.150155 0.993597 -0.334912
H19   H     H_    0.065478 0.182723 0.064121 0.222198
H20   H     H_    0.087395 0.048320 0.994052 0.164223
C35   C     C_3   0.263150 0.179937 0.954839 -0.762751
H21   H     H_    0.302027 0.145359 0.885038 0.226091
H22   H     H_    0.327643 0.134847 0.996334 0.223375
H23   H     H_    0.281503 0.280897 0.955043 0.287900
O10   O     O_3   0.973983 0.578834 0.040083 -0.601136
C36   C     C_3   0.952400 0.707703 0.039824 0.005027
H24   H     H_    0.056431 0.755763 0.006195 0.137300
H25   H     H_    0.910493 0.742951 0.109560 0.137357
C37   C     C_3   0.839742 0.735822 0.988075 -0.278243
H26   H     H_    0.876736 0.695784 0.919712 0.228899
H27   H     H_    0.733943 0.692328 0.023306 0.227214
C38   C     C_3   0.817488 0.874461 0.979700 -0.969649
H28   H     H_    0.784675 0.917730 0.047056 0.254644
H29   H     H_    0.730279 0.891028 0.945521 0.261333
H30   H     H_    0.919622 0.918071 0.939123 0.248600

loop_
_geom_bond_atom_site_label_1
_geom_bond_atom_site_label_2
_ccdc_geom_bond_type
C9    H11   S    
C27   C29   A    
C36   H24   S    
C37   C38   S    
C4    H8    S    
C37   H27   S    
C8    C11   A    
C23   H6    S    
C24   H5    S    
C1    O1    A    
C33   H18   S    
C18   O6    A    
C31   C32   A    
C35   H21   S    
C34   H20   S    
C10   H12   S    
C14   C16   A    
C15   N1    A    
C21   O9    S    
Cu1   O4    S    
Cu2   O3    S    
C36   H25   S    
O9    C33   S    
C1    C12   S    
C2    C11   S    
C22   O10   S    
C5    C29   A    
Cu1   O1    S    
C7    C12   A    
C27   C31   A    
C16   N2    A    
C28   C32   A    
C37   H26   S    
C4    C6    A    
C2    O2    A    
C38   H29   S    
C14   H14   S    
C21   C29   A    
C19   C23   A    
C33   H17   S    
C25   H4    S    
C13   N2    A    
C14   N1    A    
C34   C35   S    
Cu1   Cu2   S    
C9    C11   A    
C10   C12   A    
C17   O7    A    
C18   O8    A    
C6    C30   A    
Cu2   O2    S    
Cu1   O8    S    
C7    H9    S    
C13   C15   A    
Cu2   O7    S    
C36   C37   S    
C22   C24   A    
C25   C27   A    
C13   H13   S    
C7    C9    A    
C3    H7    S    
Cu1   O5    S    
C22   C30   A    
C33   C34   S    
Cu2   N2    S    
C8    H10   S    
C16   H16   S    
O10   C36   S    
C3    C5    A    
C38   H30   S    
C26   H3    S    
Cu1   N1    S    
C26   C28   A    
C21   C23   A    
C1    O3    A    
C2    O4    A    
C20   C26   A    
C35   H23   S    
C5    H1    S    
C28   C30   A    
C17   C19   S    
C6    H2    S    
C18   C20   S    
C15   H15   S    
C3    C32   A    
C19   C25   A    
C4    C31   A    
C38   H28   S    
C8    C10   A    
C34   H19   S    
Cu2   O6    S    
C35   H22   S    
C20   C24   A    
C17   O5    A    
