data_mof_unit_59888.cif
_audit_creation_date              2012-12-10T17:31:28-0500
_audit_creation_method            fapswitch 2.2
_symmetry_space_group_name_H-M    P1
_symmetry_Int_Tables_number       1
_space_group_crystal_system       triclinic
_cell_length_a                    19.147007
_cell_length_b                    18.611132
_cell_length_c                    12.40803
_cell_angle_alpha                 90.089389
_cell_angle_beta                  129.529165
_cell_angle_gamma                 89.08024
_cell_volume                      3409.70594168

loop_
_atom_site_label
_atom_site_type_symbol
_atom_type_description
_atom_site_fract_x
_atom_site_fract_y
_atom_site_fract_z
_atom_type_partial_charge
C1    C     C_R   0.606723 0.894178 0.645408 0.863459
C2    C     C_R   0.610157 0.102772 0.650411 0.861111
C3    C     C_R   0.106736 0.394183 0.645425 0.863423
C4    C     C_R   0.110159 0.602771 0.650414 0.861097
C5    C     C_R   0.241723 0.769007 0.042694 0.029799
C6    C     C_R   0.237421 0.226766 0.037986 -0.004891
C7    C     C_R   0.741761 0.268981 0.042738 0.029848
C8    C     C_R   0.737425 0.726748 0.037953 -0.004887
C9    C     C_R   0.657466 0.280780 0.012469 0.033417
C10   C     C_R   0.666155 0.742531 0.043296 0.012309
C11   C     C_R   0.157421 0.780823 0.012388 0.033384
C12   C     C_R   0.166138 0.242525 0.043291 0.012298
C13   C     C_R   0.577465 0.265078 0.875821 0.299645
C14   C     C_R   0.586548 0.778309 0.926836 0.310563
C15   C     C_R   0.077428 0.765066 0.875748 0.299737
C16   C     C_R   0.086526 0.278292 0.926810 0.310553
C17   C     C_R   0.583440 0.228399 0.782225 -0.112043
C18   C     C_R   0.578989 0.796323 0.810003 -0.063105
C19   C     C_R   0.083427 0.728410 0.782169 -0.111969
C20   C     C_R   0.078996 0.296314 0.810002 -0.063123
C21   C     C_R   0.314772 0.812797 0.143556 -0.086253
C22   C     C_R   0.317577 0.192508 0.154594 -0.060826
C23   C     C_R   0.814804 0.312775 0.143595 -0.086244
C24   C     C_R   0.817592 0.692502 0.154570 -0.060810
C25   C     C_R   0.236669 0.845455 0.232096 -0.205396
C26   C     C_R   0.246965 0.169536 0.256166 -0.216099
C27   C     C_R   0.736708 0.345390 0.232186 -0.205293
C28   C     C_R   0.746991 0.669569 0.256217 -0.216052
C29   C     C_R   0.676348 0.158973 0.740256 -0.163222
C30   C     C_R   0.657509 0.824859 0.714346 -0.164721
C31   C     C_R   0.176351 0.658973 0.740262 -0.163220
C32   C     C_R   0.157546 0.324879 0.714401 -0.164690
C33   C     C_R   0.675477 0.034355 0.282410 -0.190895
C34   C     C_R   0.175467 0.534369 0.282403 -0.190866
C35   C     C_R   0.345173 0.988049 0.624906 0.113835
C36   C     C_R   0.845176 0.488032 0.624903 0.113920
C37   C     C_R   0.307482 0.989061 0.690056 -0.247696
C38   C     C_R   0.807482 0.489014 0.690050 -0.247640
C39   C     C_R   0.385482 0.100066 0.344054 0.793721
C40   C     C_R   0.384649 0.901215 0.341750 0.770335
C41   C     C_R   0.885489 0.600072 0.344064 0.793731
C42   C     C_R   0.884657 0.401208 0.341761 0.770382
C43   C     C_R   0.360539 0.001686 0.833158 0.060072
C44   C     C_R   0.860531 0.501636 0.833151 0.060055
C45   C     C_R   0.456035 0.010733 0.916525 -0.049062
C46   C     C_R   0.956029 0.510713 0.916521 -0.049054
C47   C     C_R   0.492055 0.011683 0.843086 0.157295
C48   C     C_R   0.992051 0.511679 0.843085 0.157308
C49   C     C_R   0.518812 0.016911 0.068659 -0.081146
C50   C     C_R   0.018805 0.516902 0.068654 -0.081136
C51   C     C_R   0.608377 0.039067 0.136252 -0.049210
C52   C     C_R   0.108365 0.539073 0.136244 -0.049180
C53   C     C_R   0.633128 0.058957 0.057596 0.308272
C54   C     C_R   0.133114 0.558965 0.057586 0.308322
C55   C     C_R   0.586087 0.030170 0.925056 0.323521
C56   C     C_R   0.086078 0.530174 0.925050 0.323524
C57   C     C_R   0.499779 0.000672 0.159801 0.049296
C58   C     C_R   0.999780 0.500657 0.159802 0.049291
C59   C     C_R   0.653834 0.011163 0.363009 0.553368
C60   C     C_R   0.153830 0.511174 0.363006 0.553361
C61   C     C_R   0.657699 0.314338 0.115900 -0.000902
C62   C     C_R   0.676204 0.716809 0.161085 0.012077
C63   C     C_R   0.157648 0.814430 0.115781 -0.001016
C64   C     C_R   0.176179 0.216781 0.161054 0.012089
C65   C     C_R   0.313095 0.850294 0.241377 -0.063146
C66   C     C_R   0.316138 0.155184 0.250845 -0.071827
C67   C     C_R   0.813119 0.350268 0.241417 -0.063193
C68   C     C_R   0.816157 0.655199 0.250868 -0.071762
C69   C     C_R   0.761067 0.154230 0.772231 -0.072649
C70   C     C_R   0.711983 0.791840 0.686359 -0.078979
C71   C     C_R   0.261084 0.654212 0.772286 -0.072646
C72   C     C_R   0.212068 0.291886 0.686489 -0.079022
C73   C     C_R   0.338978 0.661497 0.910868 -0.009667
C74   C     C_R   0.268687 0.233064 0.768612 0.000150
C75   C     C_R   0.838973 0.161510 0.910805 -0.009629
C76   C     C_R   0.768585 0.732970 0.768435 0.000249
C77   C     C_R   0.331399 0.691632 0.005965 -0.098203
C78   C     C_R   0.278688 0.212539 0.885588 -0.170040
C79   C     C_R   0.831422 0.191625 0.005944 -0.098253
C80   C     C_R   0.778630 0.712443 0.885448 -0.170070
C81   C     C_R   0.747552 0.221437 0.959013 0.104779
C82   C     C_R   0.726741 0.745486 0.916981 0.074970
C83   C     C_R   0.247526 0.721448 0.959001 0.104779
C84   C     C_R   0.226762 0.245530 0.917050 0.074935
C85   C     C_R   0.667802 0.201149 0.827084 -0.009387
C86   C     C_R   0.654793 0.791436 0.815225 -0.004691
C87   C     C_R   0.167790 0.701161 0.827061 -0.009470
C88   C     C_R   0.154814 0.291453 0.815264 -0.004624
Cu1   Cu    Cu3+1 0.526340 1.000000 0.421010 1.024760
Cu2   Cu    Cu3+1 0.026340 0.500000 0.421010 1.024760
Cu3   Cu    Cu3+1 0.473640 0.000000 0.578990 1.012044
Cu4   Cu    Cu3+1 0.973640 0.500000 0.578990 1.012083
H1    H     H_    0.235238 0.872446 0.308266 0.156999
H2    H     H_    0.248889 0.144585 0.337081 0.166492
H3    H     H_    0.735281 0.372355 0.308382 0.157030
H4    H     H_    0.748919 0.644634 0.337158 0.166513
H5    H     H_    0.745950 0.044615 0.335052 0.230401
H6    H     H_    0.245938 0.544638 0.335044 0.230402
H7    H     H_    0.433822 0.987109 0.122278 0.164792
H8    H     H_    0.933832 0.487072 0.122290 0.164787
H9    H     H_    0.301669 0.980080 0.513329 0.125444
H10   H     H_    0.801676 0.480063 0.513326 0.125450
H11   H     H_    0.234988 0.982260 0.626442 0.153825
H12   H     H_    0.734988 0.482191 0.626434 0.153821
H13   H     H_    0.391632 0.695097 0.114552 0.158412
H14   H     H_    0.322613 0.166791 0.945387 0.144530
H15   H     H_    0.891665 0.195073 0.114528 0.158443
H16   H     H_    0.822542 0.666667 0.945208 0.144497
N1    N     N_R   0.566260 1.000000 0.302220 -0.226835
N2    N     N_R   0.066260 0.500000 0.302220 -0.226839
N3    N     N_R   0.434410 1.000000 0.697680 -0.187887
N4    N     N_R   0.934410 0.500000 0.697680 -0.187878
O1    O     O_R   0.608610 0.924520 0.551740 -0.537916
O2    O     O_R   0.608610 0.075480 0.551740 -0.552377
O3    O     O_R   0.108610 0.424520 0.551740 -0.537935
O4    O     O_R   0.108610 0.575480 0.551740 -0.552388
O5    O     O_R   0.564110 0.924510 0.685150 -0.525875
O6    O     O_R   0.564110 0.075490 0.685150 -0.545048
O7    O     O_R   0.064110 0.424510 0.685150 -0.525871
O8    O     O_R   0.064110 0.575490 0.685150 -0.545026
O9    O     O_R   0.435880 0.075470 0.314850 -0.591575
O10   O     O_R   0.435880 0.924530 0.314850 -0.594528
O11   O     O_R   0.935880 0.575470 0.314850 -0.591581
O12   O     O_R   0.935880 0.424530 0.314850 -0.594524
O13   O     O_R   0.391380 0.075460 0.448260 -0.590789
O14   O     O_R   0.391380 0.924540 0.448260 -0.596557
O15   O     O_R   0.891380 0.575460 0.448260 -0.590765
O16   O     O_R   0.891380 0.424540 0.448260 -0.596565
Cl1   Cl    Cl    0.737443 0.102865 0.138140 -0.589820
Cl2   Cl    Cl    0.237430 0.602871 0.138129 -0.589768
C89   C     C_1   0.310228 0.012838 0.882239 0.187291
N5    N     N_1   0.268622 0.021846 0.919515 -0.281639
C90   C     C_1   0.810197 0.512744 0.882221 0.187243
N6    N     N_1   0.768570 0.521717 0.919484 -0.281528
Cl3   Cl    Cl    0.667086 0.988787 0.920032 -0.512782
Cl4   Cl    Cl    0.167079 0.488782 0.920041 -0.512799
Cl5   Cl    Cl    0.471894 0.306233 0.806712 -0.580452
Cl6   Cl    Cl    0.490865 0.798687 0.914814 -0.630958
Cl7   Cl    Cl    0.971772 0.806015 0.806636 -0.580675
Cl8   Cl    Cl    0.990827 0.298685 0.914759 -0.630951
C91   C     C_1   0.579499 0.318540 0.108725 0.362043
N7    N     N_1   0.516924 0.322836 0.103178 -0.198500
C92   C     C_1   0.616068 0.733306 0.190330 0.383919
N8    N     N_1   0.569272 0.744896 0.217275 -0.262423
C93   C     C_1   0.079423 0.818749 0.108533 0.362178
N9    N     N_1   0.016831 0.823146 0.102932 -0.198383
C94   C     C_1   0.116042 0.233257 0.190314 0.383833
N10   N     N_1   0.069254 0.244826 0.217283 -0.262495
C95   C     C_1   0.378777 0.831295 0.122677 0.269218
N11   N     N_1   0.428233 0.846356 0.103074 -0.199257
C96   C     C_1   0.404643 0.204435 0.189444 0.294112
N12   N     N_1   0.474614 0.213200 0.218936 -0.247580
C97   C     C_1   0.878829 0.331265 0.122753 0.269265
N13   N     N_1   0.928309 0.346320 0.103195 -0.199267
C98   C     C_1   0.904691 0.704368 0.189315 0.293978
N14   N     N_1   0.974700 0.713071 0.218711 -0.247531
C99   C     C_1   0.767576 0.153554 0.662390 0.384860
N15   N     N_1   0.773295 0.155243 0.575016 -0.213073
C100  C     C_1   0.706993 0.813755 0.569630 0.391444
N16   N     N_1   0.703597 0.830380 0.476552 -0.194308
C101  C     C_1   0.267613 0.653532 0.662473 0.384869
N17   N     N_1   0.273351 0.655217 0.575123 -0.213011
C102  C     C_1   0.207114 0.313776 0.569798 0.391486
N18   N     N_1   0.203751 0.330378 0.476753 -0.194256
C103  C     C_1   0.425336 0.634919 0.956489 0.355297
N19   N     N_1   0.493818 0.612528 0.991603 -0.254703
C104  C     C_1   0.317416 0.192693 0.734558 0.297029
N20   N     N_1   0.356069 0.160636 0.706480 -0.266475
C105  C     C_1   0.925313 0.134884 0.956405 0.355276
N21   N     N_1   0.993786 0.112437 0.991533 -0.254714
C106  C     C_1   0.817251 0.692567 0.734286 0.297069
N22   N     N_1   0.855852 0.660491 0.706122 -0.266416
C107  C     C_1   0.505757 0.231202 0.635223 0.361687
N23   N     N_1   0.443532 0.235617 0.517946 -0.267709
C108  C     C_1   0.488849 0.796554 0.675597 0.355381
N24   N     N_1   0.416336 0.794207 0.569563 -0.248019
C109  C     C_1   0.005782 0.731234 0.635153 0.361633
N25   N     N_1   0.943600 0.735665 0.517863 -0.267790
C110  C     C_1   0.988866 0.296540 0.675578 0.355321
N26   N     N_1   0.916355 0.294192 0.569545 -0.248059
Cl9   Cl    Cl    0.741142 0.994480 0.541868 -0.541112
Cl10  Cl    Cl    0.241141 0.494490 0.541863 -0.541079

loop_
_geom_bond_atom_site_label_1
_geom_bond_atom_site_label_2
_ccdc_geom_bond_type
C26   H2    S    
C83   C87   A    
C106  N22   T    
C25   H1    S    
C99   N15   T    
C39   O13   A    
Cu3   O14   S    
C105  N21   T    
C14   C18   A    
C53   C55   A    
C27   H3    S    
C102  N18   T    
C48   C56   A    
C62   C92   S    
C101  N17   T    
C2    O6    A    
C42   O12   A    
C32   C72   A    
C16   Cl8   S    
C107  N23   T    
C15   C19   A    
C103  N19   T    
C2    C29   S    
C17   C85   A    
C28   C68   A    
Cu4   O7    S    
C5    C11   A    
C11   C63   A    
C6    C12   A    
C12   C64   A    
C55   Cl3   S    
Cu1   O10   S    
C77   C83   A    
C23   C67   A    
C92   N8    T    
C57   H7    S    
Cu1   N1    S    
C49   C57   A    
C36   H10   S    
C70   C100  S    
C25   C63   A    
C53   Cl1   S    
Cu3   N3    S    
C59   Cl9   S    
C29   C69   A    
C9    C13   A    
C22   C66   A    
C38   H12   S    
C27   C61   A    
C94   N10   T    
C8    C24   A    
C22   C96   S    
C11   C15   A    
C72   C102  S    
C57   N1    A    
C12   C16   A    
C52   C54   A    
C49   C51   A    
C36   N4    A    
C69   C99   S    
C96   N12   T    
Cu3   O5    S    
C21   C95   S    
C30   C86   A    
C71   C101  S    
C19   C109  S    
C29   C85   A    
C24   C98   S    
C42   O16   A    
C21   C65   A    
C18   C108  S    
C41   C68   S    
C31   C71   A    
C18   C86   A    
C33   C59   A    
C34   C60   A    
C10   C62   A    
C1    O1    A    
Cu4   O16   S    
C74   C104  S    
C30   C70   A    
C17   C107  S    
C38   C44   A    
C93   N9    T    
C20   C110  S    
C15   Cl7   S    
C45   C47   A    
C60   Cl10  S    
Cu2   Cu4   S    
C54   Cl2   S    
Cu1   O1    S    
C6    C84   A    
C28   C62   A    
C79   H15   S    
C26   C66   A    
C14   Cl6   S    
C31   C87   A    
C72   C74   A    
C10   C14   A    
C104  N20   T    
C79   C81   A    
Cu4   N4    S    
C44   C46   A    
C82   C86   A    
C59   N1    A    
C51   C53   A    
C50   C58   A    
C37   C43   A    
C76   C106  S    
C47   N3    A    
C5    C83   A    
C75   C105  S    
C50   C52   A    
C100  N16   T    
C45   C49   A    
C16   C20   A    
C40   O14   A    
Cu3   O6    S    
C58   H8    S    
C1    O5    A    
Cu2   O3    S    
C43   C45   A    
C3    O7    A    
C73   C103  S    
C7    C81   A    
C56   Cl4   S    
Cu2   O4    S    
C40   C65   S    
C23   C97   S    
C64   C94   S    
C70   C76   A    
C42   C67   S    
C39   C66   S    
C9    C61   A    
C32   C88   A    
Cu1   Cu3   S    
Cu2   N2    S    
C89   N5    T    
Cu4   O15   S    
C35   N3    A    
C35   C37   A    
C47   C55   A    
C41   O15   A    
C61   C91   S    
C44   C90   S    
C7    C9    A    
C80   H16   S    
Cu1   O2    S    
Cu3   O13   S    
C48   N4    A    
C58   N2    A    
Cu2   O12   S    
C4    O4    A    
C76   C80   A    
C35   H9    S    
C37   H11   S    
C54   C56   A    
C26   C64   A    
C33   C51   A    
C40   O10   A    
C46   C50   A    
C34   C52   A    
C39   O9    A    
C13   C17   A    
C28   H4    S    
C41   O11   A    
C43   C89   S    
Cu4   O8    S    
C19   C87   A    
C108  N24   T    
C3    O3    A    
C95   N11   T    
C36   C38   A    
C2    O2    A    
C90   N6    T    
C84   C88   A    
Cu1   O9    S    
C60   N2    A    
C7    C23   A    
C20   C88   A    
C77   H13   S    
C1    C30   S    
C34   H6    S    
C80   C82   A    
C78   H14   S    
C69   C75   A    
C33   H5    S    
C3    C32   S    
C4    C31   S    
C27   C67   A    
C24   C68   A    
C110  N26   T    
C46   C48   A    
C78   C84   A    
C8    C82   A    
C5    C21   A    
C8    C10   A    
C109  N25   T    
C74   C78   A    
C71   C73   A    
C98   N14   T    
C25   C65   A    
C73   C77   A    
C4    O8    A    
C97   N13   T    
C91   N7    T    
C75   C79   A    
C63   C93   S    
Cu2   O11   S    
C81   C85   A    
C13   Cl5   S    
C6    C22   A    
