data_mof_unit_48682.cif
_audit_creation_date              2012-10-26T19:59:41-0400
_audit_creation_method            fapswitch 2.2
_symmetry_space_group_name_H-M    P1
_symmetry_Int_Tables_number       1
_space_group_crystal_system       triclinic
_cell_length_a                    10.851701
_cell_length_b                    8.791516
_cell_length_c                    7.402789
_cell_angle_alpha                 102.358648
_cell_angle_beta                  93.152267
_cell_angle_gamma                 91.65011
_cell_volume                      688.241818986

loop_
_atom_site_label
_atom_site_type_symbol
_atom_type_description
_atom_site_fract_x
_atom_site_fract_y
_atom_site_fract_z
_atom_type_partial_charge
C1    C     C_R   0.502445 0.200790 0.452489 0.577844
C2    C     C_R   0.506048 0.799802 0.544003 0.554890
C3    C     C_R   0.737819 0.506449 0.496315 0.561022
C4    C     C_R   0.136634 0.720749 0.810718 -0.075581
C5    C     C_R   0.074191 0.815860 0.949905 0.233156
C6    C     C_R   0.947040 0.827567 0.926893 -0.046705
C7    C     C_R   0.881723 0.741056 0.770202 -0.103390
C8    C     C_R   0.940465 0.630320 0.638171 -0.010237
C9    C     C_R   0.070947 0.624618 0.654631 -0.018014
C10   C     C_R   0.130195 0.524291 0.512447 -0.013268
C11   C     C_R   0.061574 0.434945 0.360256 -0.086466
C12   C     C_R   0.934542 0.431886 0.347356 0.179709
C13   C     C_R   0.871993 0.525682 0.490464 -0.001287
C14   C     C_2   0.517610 0.035762 0.419225 0.239643
C15   C     C_2   0.504329 0.965719 0.561854 -0.101359
C16   C     C_R   0.263316 0.511558 0.505928 0.550720
Cu1   Cu    Cu3+1 0.513920 0.517380 0.684380 1.068187
Cu2   Cu    Cu3+1 0.486080 0.482620 0.315620 1.143817
H1    H     H_    0.108598 0.358629 0.253478 0.190500
H2    H     H_    0.508818 0.089013 0.002758 0.352818
H3    H     H_    0.610731 0.594259 0.043067 0.297745
H4    H     H_    0.235904 0.723731 0.828685 0.191895
H5    H     H_    0.897587 0.904072 0.030002 0.236002
H6    H     H_    0.784765 0.763279 0.754726 0.170909
H7    H     H_    0.484232 0.033255 0.696372 0.095317
H8    H     H_    0.393701 0.396130 0.953285 0.231151
H9    H     H_    0.206580 0.113931 0.030181 0.343743
H10   H     H_    0.850955 0.136238 0.364985 0.354027
N1    N     N_2   0.465100 0.456430 0.038520 -0.241711
N2    N     N_2   0.534900 0.543570 0.961480 -0.191021
O1    O     O_R   0.509050 0.286130 0.619770 -0.541022
O2    O     O_2   0.225238 0.808416 0.242980 -0.236143
O3    O     O_3   0.257102 0.049203 0.097336 -0.507676
O4    O     O_2   0.770545 0.352902 0.050148 -0.218978
O5    O     O_2   0.953524 0.199370 0.044828 -0.302640
O6    O     O_3   0.788753 0.160588 0.273504 -0.439822
O7    O     O_2   0.671928 0.850077 0.211401 -0.312259
O8    O     O_2   0.454262 0.833558 0.094889 -0.230852
O9    O     O_3   0.590238 0.065498 0.054647 -0.413915
O10   O     O_R   0.485540 0.256780 0.308360 -0.453819
O11   O     O_R   0.331410 0.514680 0.655740 -0.537329
O12   O     O_R   0.307900 0.485330 0.344330 -0.496510
O13   O     O_R   0.514460 0.743220 0.691640 -0.488246
O14   O     O_R   0.490950 0.713870 0.380230 -0.429507
O15   O     O_R   0.692100 0.514670 0.655670 -0.512181
O16   O     O_R   0.668590 0.485320 0.344260 -0.449308
O17   O     O_2   0.069856 0.006323 0.287776 -0.287879
S1    S     S_3+6 0.155962 0.920785 0.152870 0.029164
S2    S     S_3+6 0.861380 0.285289 0.168611 0.056931
S3    S     S_3+6 0.558782 0.941125 0.191550 0.087935

loop_
_geom_bond_atom_site_label_1
_geom_bond_atom_site_label_2
_ccdc_geom_bond_type
O5    S2    D    
C11   C12   A    
Cu1   O13   S    
C6    C7    A    
O8    S3    D    
Cu2   O14   S    
C4    H4    S    
C9    C10   A    
C3    O16   A    
O17   S1    D    
C3    C13   S    
C2    O13   A    
Cu1   Cu2   S    
C7    C8    A    
Cu2   N1    S    
C10   C16   S    
H9    O3    S    
C2    C15   S    
O2    S1    D    
C11   H1    S    
N1    N2    D    
Cu1   N2    S    
C6    H5    S    
Cu2   O16   S    
O7    S3    D    
Cu1   O15   S    
C12   S2    S    
Cu2   O12   S    
C5    C6    A    
Cu1   O1    S    
C5    S1    S    
Cu1   O11   S    
C15   H7    S    
C10   C11   A    
C14   S3    S    
C7    H6    S    
C8    C13   A    
C16   O12   A    
C1    O1    A    
O9    S3    S    
C12   C13   A    
H10   O6    S    
H8    N1    S    
H3    N2    S    
O3    S1    S    
H2    O9    S    
Cu2   O10   S    
C14   C15   D    
C8    C9    A    
O4    S2    D    
C1    C14   S    
C1    O10   A    
C4    C9    A    
C16   O11   A    
C3    O15   A    
O6    S2    S    
C2    O14   A    
C4    C5    A    
