data_mof_unit_23992.cif
_audit_creation_date              2012-10-26T18:27:08-0400
_audit_creation_method            fapswitch 2.2
_symmetry_space_group_name_H-M    P1
_symmetry_Int_Tables_number       1
_space_group_crystal_system       triclinic
_cell_length_a                    15.159092
_cell_length_b                    10.953039
_cell_length_c                    9.697816
_cell_angle_alpha                 89.771111
_cell_angle_beta                  90.197325
_cell_angle_gamma                 90.105922
_cell_volume                      1610.18208519

loop_
_atom_site_label
_atom_site_type_symbol
_atom_type_description
_atom_site_fract_x
_atom_site_fract_y
_atom_site_fract_z
_atom_type_partial_charge
C1    C     C_R   0.496787 0.265550 0.500372 0.544460
C2    C     C_R   0.183336 0.448406 0.612103 0.032064
C3    C     C_R   0.230381 0.499037 0.498891 -0.048940
C4    C     C_R   0.328342 0.499642 0.499719 0.578785
C5    C     C_R   0.183412 0.549632 0.385219 0.030990
C6    C     C_2   0.508582 0.936736 0.383599 0.145436
C7    C     C_2   0.514867 0.866337 0.498010 -0.050883
C8    C     C_2   0.519781 0.069344 0.398834 -0.161038
C9    C     C_2   0.481919 0.134648 0.499922 0.017791
C10   C     C_2   0.454138 0.424250 0.924133 0.069089
C11   C     C_2   0.443374 0.438718 0.077812 0.027420
C12   C     C_R   0.904281 0.549792 0.384316 0.042136
C13   C     C_R   0.503039 0.734673 0.499210 0.567716
C14   C     C_R   0.670892 0.500518 0.500173 0.533366
C15   C     C_R   0.812075 0.546226 0.385199 -0.127410
C16   C     C_R   0.766809 0.502147 0.500444 -0.026637
C17   C     C_R   0.813090 0.459445 0.615518 -0.139714
C18   C     C_R   0.904860 0.458285 0.615012 0.015594
C19   C     C_R   0.951252 0.503852 0.499619 0.039365
C20   C     C_2   0.416223 0.083641 0.598564 0.582056
C21   C     C_3   0.606561 0.651248 0.891557 -0.253586
C22   C     C_2   0.230504 0.385444 0.726264 0.572424
C23   C     C_R   0.950576 0.410612 0.727772 -0.137916
C24   C     C_2   0.230777 0.608065 0.268781 0.586561
C25   C     C_3   0.880035 0.771103 0.165268 -0.312711
C26   C     C_3   0.509873 0.956322 0.128685 -0.296731
C27   C     C_R   0.041976 0.406597 0.726860 -0.100691
C28   C     C_R   0.090410 0.452966 0.613918 0.001934
C29   C     C_R   0.044308 0.502312 0.499442 0.010347
C30   C     C_R   0.090434 0.548961 0.384419 -0.033888
C31   C     C_R   0.042337 0.595924 0.271193 -0.095399
C32   C     C_R   0.950362 0.596740 0.270174 0.128501
Cu1   Cu    Cu3+1 0.500020 0.500020 0.638630 1.001251
Cu2   Cu    Cu3+1 0.499980 0.499980 0.361370 0.981424
H1    H     H_    0.774890 0.578810 0.296894 0.161965
H2    H     H_    0.075342 0.633466 0.181810 0.156829
H3    H     H_    0.310993 0.973837 0.629165 0.352982
H4    H     H_    0.470808 0.677576 0.872057 0.280446
H5    H     H_    0.618314 0.728538 0.963031 0.112180
H6    H     H_    0.621817 0.682511 0.785575 0.174426
H7    H     H_    0.651957 0.575678 0.920235 0.138754
H8    H     H_    0.260729 0.381589 0.928847 0.338288
H9    H     H_    0.293467 0.756600 0.196384 0.333379
H10   H     H_    0.935976 0.626734 0.060686 0.258132
H11   H     H_    0.939930 0.829631 0.170532 0.156731
H12   H     H_    0.531675 0.907416 0.596519 0.070508
H13   H     H_    0.839526 0.785634 0.259011 0.155116
H14   H     H_    0.840310 0.798581 0.073910 0.141243
H15   H     H_    0.429897 0.841708 0.245845 0.292503
H16   H     H_    0.497053 0.900167 0.035620 0.151640
H17   H     H_    0.580591 0.983031 0.128324 0.142356
H18   H     H_    0.467356 0.038771 0.123599 0.163822
H19   H     H_    0.561401 0.115446 0.323827 0.122109
H20   H     H_    0.421677 0.347153 0.875839 0.158838
H21   H     H_    0.388252 0.393283 0.127320 0.154529
H22   H     H_    0.559078 0.519181 0.110481 0.242655
H23   H     H_    0.777629 0.424436 0.704299 0.126012
H24   H     H_    0.915521 0.374815 0.816454 0.112443
H25   H     H_    0.073723 0.366362 0.815978 0.162703
N1    N     N_2   0.499020 0.498660 0.846910 -0.144220
N2    N     N_2   0.499000 0.498630 0.153040 -0.335304
N3    N     N_2   0.515593 0.612139 0.902818 -0.415457
N4    N     N_2   0.904810 0.644138 0.152966 -0.535995
N5    N     N_2   0.490012 0.885313 0.250927 -0.475208
O1    O     O_R   0.500020 0.321960 0.617040 -0.469679
O2    O     O_R   0.351764 0.001685 0.552545 -0.671935
O3    O     O_2   0.269622 0.290132 0.703964 -0.487086
O4    O     O_R   0.229392 0.435126 0.858792 -0.672450
O5    O     O_2   0.236424 0.555124 0.158404 -0.511587
O6    O     O_R   0.267246 0.724207 0.285291 -0.678882
O7    O     O_R   0.499980 0.321920 0.382900 -0.519544
O8    O     O_R   0.370270 0.499990 0.617090 -0.467516
O9    O     O_R   0.370240 0.499950 0.382940 -0.474759
O10   O     O_R   0.500020 0.678080 0.617100 -0.523500
O11   O     O_R   0.499980 0.678040 0.382960 -0.463355
O12   O     O_R   0.629760 0.500050 0.617060 -0.516374
O13   O     O_R   0.629730 0.500010 0.382910 -0.518814
O14   O     O_2   0.417585 0.115167 0.719365 -0.502086

loop_
_geom_bond_atom_site_label_1
_geom_bond_atom_site_label_2
_ccdc_geom_bond_type
C23   H24   S    
Cu1   O1    S    
C21   H6    S    
C1    O7    A    
C20   O2    S    
C28   C29   A    
C26   H16   S    
Cu2   O13   S    
C30   C31   A    
C15   C16   A    
N1    N3    S    
C18   C19   A    
C25   N4    S    
C14   O13   A    
C6    N5    S    
C26   N5    S    
Cu1   O12   S    
Cu1   O8    S    
C13   O11   A    
C8    C9    D    
C2    C22   S    
C1    O1    A    
C23   C27   A    
C25   H13   S    
Cu2   O11   S    
H15   N5    S    
C12   C32   A    
H8    O4    S    
C15   H1    S    
C24   O5    D    
Cu1   Cu2   S    
H10   N4    S    
C24   O6    S    
C18   C23   A    
C7    H12   S    
C1    C9    S    
C16   C17   A    
C6    C8    S    
C3    C5    A    
Cu2   N2    S    
C14   O12   A    
C10   N1    D    
C29   C30   A    
C26   H18   S    
C9    C20   S    
C31   C32   A    
C21   H5    S    
C12   C15   A    
H3    O2    S    
C17   C18   A    
C21   N3    S    
C25   H14   S    
C22   O4    S    
C4    O9    A    
C21   H7    S    
Cu1   N1    S    
C14   C16   S    
C3    C4    S    
C19   C29   A    
C25   H11   S    
C4    O8    A    
C11   H21   S    
C5    C30   A    
H22   N2    S    
C32   N4    S    
C11   N2    D    
C8    H19   S    
C6    C7    D    
H9    O6    S    
C20   O14   D    
C2    C3    A    
C27   H25   S    
C26   H17   S    
C5    C24   S    
C12   C19   A    
C10   H20   S    
C22   O3    D    
C10   C11   S    
Cu2   O9    S    
Cu1   O10   S    
C7    C13   S    
C13   O10   A    
C27   C28   A    
C31   H2    S    
C2    C28   A    
Cu2   O7    S    
C17   H23   S    
H4    N3    S    
