data_mof_unit_40387.cif
_audit_creation_date              2013-03-05T16:00:01-0500
_audit_creation_method            fapswitch 2.2
_symmetry_space_group_name_H-M    P1
_symmetry_Int_Tables_number       1
_space_group_crystal_system       triclinic
_cell_length_a                    20.644243
_cell_length_b                    21.781255
_cell_length_c                    14.898733
_cell_angle_alpha                 89.739593
_cell_angle_beta                  130.383561
_cell_angle_gamma                 90.457075
_cell_volume                      5102.87588635

loop_
_atom_site_label
_atom_site_type_symbol
_atom_site_description
_atom_site_fract_x
_atom_site_fract_y
_atom_site_fract_z
_atom_type_partial_charge
O1    O     O_R   0.600040 0.935040 0.546740 -0.608906
O2    O     O_R   0.399960 0.064960 0.453260 -0.608467
O3    O     O_R   0.399960 0.935040 0.453260 -0.588245
O4    O     O_R   0.600040 0.064960 0.546740 -0.589510
O5    O     O_R   0.100040 0.435040 0.546740 -0.558724
O6    O     O_R   0.899960 0.564960 0.453260 -0.609479
O7    O     O_R   0.899960 0.435040 0.453260 -0.592307
O8    O     O_R   0.100040 0.564960 0.546740 -0.600985
O9    O     O_R   0.555010 0.935070 0.653220 -0.576766
O10   O     O_R   0.444990 0.064930 0.346780 -0.576610
O11   O     O_R   0.444990 0.935070 0.346780 -0.586204
O12   O     O_R   0.555010 0.064930 0.653220 -0.585898
O13   O     O_R   0.055010 0.435070 0.653220 -0.583575
O14   O     O_R   0.944990 0.564930 0.346780 -0.581279
O15   O     O_R   0.944990 0.435070 0.346780 -0.586113
O16   O     O_R   0.055010 0.564930 0.653220 -0.586136
C1    C     C_R   0.603447 0.914223 0.632210 0.801205
C2    C     C_R   0.396732 0.085932 0.368080 0.802688
C3    C     C_R   0.396218 0.914199 0.367723 0.800712
C4    C     C_R   0.603766 0.085814 0.632278 0.801916
C5    C     C_R   0.102370 0.413392 0.630921 0.824377
C6    C     C_R   0.896623 0.585832 0.367888 0.799846
C7    C     C_R   0.896138 0.414256 0.367607 0.793392
C8    C     C_R   0.103594 0.585939 0.632065 0.808465
Cu1   Cu    Cu3+1 0.526640 0.000000 0.436960 0.922641
Cu2   Cu    Cu3+1 0.473360 0.000000 0.563040 0.923663
Cu3   Cu    Cu3+1 0.026640 0.500000 0.436960 0.938893
Cu4   Cu    Cu3+1 0.973360 0.500000 0.563040 0.923783
C9    C     C_R   0.662805 0.136245 0.706207 -0.111235
C10   C     C_R   0.337240 0.863717 0.293977 -0.113175
C11   C     C_R   0.334904 0.134020 0.290894 -0.099603
C12   C     C_R   0.665926 0.866752 0.710677 -0.099810
C13   C     C_R   0.162067 0.636745 0.705342 -0.103977
C14   C     C_R   0.836785 0.364044 0.293290 -0.109750
C15   C     C_R   0.834375 0.633501 0.289795 -0.098157
C16   C     C_R   0.162301 0.363949 0.706537 -0.115457
C17   C     C_R   0.764931 0.214861 0.753389 0.189700
C18   C     C_R   0.237194 0.783852 0.249149 0.194290
C19   C     C_R   0.202412 0.186598 0.202727 0.204177
C20   C     C_R   0.801213 0.817148 0.804740 0.200675
C21   C     C_R   0.260831 0.717452 0.749032 0.199418
C22   C     C_R   0.734316 0.285602 0.245574 0.190339
C23   C     C_R   0.699469 0.683547 0.196466 0.202209
C24   C     C_R   0.293161 0.309356 0.793310 0.177198
C25   C     C_R   0.707984 0.167557 0.679676 -0.154537
C26   C     C_R   0.293634 0.831517 0.322176 -0.157677
C27   C     C_R   0.268597 0.148245 0.290157 -0.174570
C28   C     C_R   0.734301 0.854300 0.715136 -0.181472
C29   C     C_R   0.204590 0.669677 0.676135 -0.175578
C30   C     C_R   0.791583 0.332674 0.319730 -0.156054
C31   C     C_R   0.766158 0.646104 0.285630 -0.180236
C32   C     C_R   0.226341 0.346749 0.704295 -0.136826
C33   C     C_R   0.671894 0.154123 0.803455 -0.246157
C34   C     C_R   0.326823 0.846585 0.195407 -0.244833
C35   C     C_R   0.340195 0.163825 0.212982 -0.252240
C36   C     C_R   0.659553 0.836308 0.787079 -0.254328
C37   C     C_R   0.172803 0.653607 0.804290 -0.247394
C38   C     C_R   0.827310 0.346497 0.195609 -0.243892
C39   C     C_R   0.840901 0.664116 0.213675 -0.254070
C40   C     C_R   0.157531 0.335595 0.786096 -0.259262
C41   C     C_R   0.717578 0.206884 0.867841 0.054133
C42   C     C_R   0.281917 0.793490 0.131624 0.052246
C43   C     C_R   0.279309 0.206568 0.131003 0.055905
C44   C     C_R   0.721054 0.794359 0.870717 0.055404
C45   C     C_R   0.217249 0.706874 0.867769 0.051947
C46   C     C_R   0.781442 0.293870 0.130862 0.053041
C47   C     C_R   0.779547 0.706244 0.130354 0.056073
C48   C     C_R   0.217795 0.292555 0.868007 0.059305
C49   C     C_R   0.771753 0.233405 0.850645 0.100300
C50   C     C_R   0.229455 0.765809 0.150918 0.096688
C51   C     C_R   0.205015 0.212363 0.117386 0.103234
C52   C     C_R   0.796980 0.790384 0.887986 0.104079
C53   C     C_R   0.269205 0.734970 0.847969 0.100741
C54   C     C_R   0.727270 0.267295 0.148026 0.100405
C55   C     C_R   0.703696 0.710333 0.113243 0.102617
C56   C     C_R   0.291649 0.285723 0.880892 0.102184
C57   C     C_R   0.715944 0.230395 0.955501 0.028652
C58   C     C_R   0.282720 0.770630 0.042818 0.024875
C59   C     C_R   0.286251 0.237879 0.053390 0.026158
C60   C     C_R   0.712819 0.762054 0.946322 0.025499
C61   C     C_R   0.216518 0.729568 0.956727 0.024607
C62   C     C_R   0.782964 0.270510 0.043007 0.027628
C63   C     C_R   0.787807 0.738619 0.054839 0.026072
C64   C     C_R   0.210905 0.261981 0.946230 0.025788
C65   C     C_R   0.346848 0.787136 0.036129 0.160401
C66   C     C_R   0.650202 0.215426 0.959660 0.159087
C67   C     C_R   0.632956 0.752899 0.918934 0.159628
C68   C     C_R   0.365107 0.245234 0.077296 0.152984
C69   C     C_R   0.848637 0.285551 0.038723 0.154794
C70   C     C_R   0.152367 0.713028 0.963358 0.160575
C71   C     C_R   0.132049 0.254888 0.922418 0.148238
C72   C     C_R   0.867688 0.747828 0.082322 0.155872
C73   C     C_R   0.333181 0.775466 0.932960 -0.215645
C74   C     C_R   0.662534 0.227638 0.061693 -0.215205
C75   C     C_R   0.631437 0.734809 0.007481 -0.251781
C76   C     C_R   0.364613 0.261541 0.986218 -0.249250
C77   C     C_R   0.836307 0.273248 0.936716 -0.214503
C78   C     C_R   0.165643 0.725158 0.066115 -0.229813
C79   C     C_R   0.132423 0.237617 0.013022 -0.251537
C80   C     C_R   0.869270 0.766029 0.993878 -0.250280
H1    H     H_    0.379266 0.792946 0.926452 0.165212
H2    H     H_    0.614995 0.211343 0.066183 0.163540
H3    H     H_    0.570585 0.733099 0.986826 0.164720
H4    H     H_    0.424457 0.261748 0.003972 0.163546
H5    H     H_    0.883780 0.289589 0.932127 0.164882
H6    H     H_    0.119430 0.707797 0.072460 0.164228
H7    H     H_    0.072534 0.237332 0.995137 0.167691
H8    H     H_    0.930157 0.767825 0.014643 0.164346
H9    H     H_    0.352662 0.876100 0.167025 0.182392
H10   H     H_    0.644505 0.125417 0.830549 0.182082
H11   H     H_    0.608337 0.848443 0.785205 0.178571
H12   H     H_    0.389969 0.150669 0.212418 0.177737
H13   H     H_    0.854570 0.375354 0.168511 0.182553
H14   H     H_    0.147553 0.623803 0.833179 0.179454
H15   H     H_    0.108678 0.349875 0.787819 0.178854
H16   H     H_    0.892102 0.652000 0.215508 0.176502
H17   H     H_    0.301558 0.844732 0.398839 0.179899
H18   H     H_    0.701003 0.153834 0.603964 0.178916
H19   H     H_    0.738428 0.876825 0.653974 0.139996
H20   H     H_    0.265510 0.126449 0.352841 0.140769
H21   H     H_    0.798793 0.346188 0.395712 0.177417
H22   H     H_    0.195935 0.657031 0.598714 0.144469
H23   H     H_    0.227153 0.365299 0.637697 0.215426
H24   H     H_    0.761979 0.623515 0.346695 0.140161
N1    N     N_R   0.433280 0.000000 0.657760 -0.204613
N2    N     N_R   0.566720 1.000000 0.342240 -0.204880
N3    N     N_R   0.933280 0.500000 0.657760 -0.205691
N4    N     N_R   0.066720 0.500000 0.342240 -0.222079
C81   C     C_R   0.321481 0.025665 0.661547 -0.135951
C82   C     C_R   0.677530 0.972280 0.337543 -0.135003
C83   C     C_R   0.823295 0.528843 0.663527 -0.128896
C84   C     C_R   0.176891 0.467226 0.339461 -0.124302
C85   C     C_R   0.348180 0.006718 0.599139 0.075172
C86   C     C_R   0.651611 0.992416 0.400394 0.076128
C87   C     C_R   0.848555 0.508239 0.600040 0.075073
C88   C     C_R   0.150711 0.488354 0.401431 0.095422
C89   C     C_R   0.489990 0.993549 0.779804 0.294463
C90   C     C_R   0.509745 0.006151 0.220109 0.295787
C91   C     C_R   0.990308 0.493441 0.779884 0.297718
C92   C     C_R   0.010692 0.506417 0.220428 0.281021
C93   C     C_R   0.461204 0.001162 0.844422 -0.071875
C94   C     C_R   0.538084 0.997838 0.155049 -0.072777
C95   C     C_R   0.962182 0.501634 0.845224 -0.076813
C96   C     C_R   0.039578 0.497289 0.156218 -0.057717
C97   C     C_R   0.383028 0.031246 0.785732 0.073065
C98   C     C_R   0.615614 0.966875 0.213323 0.072276
C99   C     C_R   0.885472 0.533521 0.787865 0.073388
C100  C     C_R   0.116790 0.465405 0.214505 -0.000918
C101  C     C_R   0.509193 0.985443 0.966588 0.046194
C102  C     C_R   0.490002 0.013445 0.032771 0.046665
C103  C     C_R   0.010107 0.485388 0.967255 0.043546
C104  C     C_R   0.992120 0.513775 0.034437 0.047494
C105  C     C_R   0.428166 0.059686 0.976898 -0.233655
C106  C     C_R   0.570455 0.938806 0.021953 -0.233650
C107  C     C_R   0.932227 0.561380 0.980234 -0.242893
C108  C     C_R   0.071047 0.438621 0.021894 -0.207507
C109  C     C_R   0.371806 0.066939 0.854292 0.210363
C110  C     C_R   0.625868 0.930591 0.144299 0.212670
C111  C     C_R   0.876534 0.570106 0.857954 0.217057
C112  C     C_R   0.128341 0.431120 0.144583 0.159412
H25   H     H_    0.424037 0.091403 0.028388 0.158171
H26   H     H_    0.574385 0.907222 0.970057 0.158418
H27   H     H_    0.929406 0.593153 0.032994 0.157205
H28   H     H_    0.074546 0.407467 0.969143 0.154761
C113  C     C_3   0.310925 0.748441 0.719933 -0.887622
H29   H     H_    0.292493 0.731074 0.636090 0.233777
H30   H     H_    0.299292 0.798666 0.710405 0.251896
H31   H     H_    0.379864 0.739626 0.790934 0.224747
C114  C     C_3   0.681573 0.256301 0.271685 -0.868780
H32   H     H_    0.699024 0.274114 0.354684 0.245405
H33   H     H_    0.613191 0.266174 0.199170 0.225984
H34   H     H_    0.691563 0.205878 0.281215 0.244440
C115  C     C_3   0.623817 0.692064 0.189431 -0.905344
H35   H     H_    0.634391 0.671334 0.266235 0.236911
H36   H     H_    0.612098 0.741779 0.188372 0.227894
H37   H     H_    0.566596 0.669896 0.108561 0.240375
C116  C     C_3   0.365954 0.297491 0.795200 -0.860328
H38   H     H_    0.353399 0.316340 0.715830 0.267878
H39   H     H_    0.425029 0.319501 0.873664 0.239782
H40   H     H_    0.375719 0.247343 0.797295 0.218893
C117  C     C_3   0.817650 0.244112 0.727204 -0.869261
H41   H     H_    0.800463 0.226049 0.644511 0.245945
H42   H     H_    0.807370 0.294501 0.717083 0.244732
H43   H     H_    0.886053 0.234476 0.799995 0.225377
C118  C     C_3   0.186116 0.753612 0.277273 -0.894796
H44   H     H_    0.203934 0.771443 0.360487 0.245817
H45   H     H_    0.117341 0.762593 0.205439 0.232321
H46   H     H_    0.197423 0.703342 0.287494 0.227255
C119  C     C_3   0.129053 0.197430 0.199964 -0.897024
H47   H     H_    0.141096 0.177675 0.278429 0.237654
H48   H     H_    0.119281 0.247526 0.199087 0.233341
H49   H     H_    0.070236 0.175782 0.120436 0.237800
C120  C     C_3   0.877099 0.808954 0.812210 -0.901268
H50   H     H_    0.866596 0.829719 0.735479 0.237562
H51   H     H_    0.934090 0.831284 0.893108 0.241923
H52   H     H_    0.889173 0.759301 0.813506 0.226785
C121  C     C_3   0.435853 0.808396 0.140068 -0.868653
H53   H     H_    0.483215 0.783291 0.141721 0.230602
H54   H     H_    0.443674 0.858160 0.132375 0.236734
H55   H     H_    0.452387 0.797943 0.225665 0.247182
C122  C     C_3   0.561058 0.195412 0.854030 -0.856603
H56   H     H_    0.513763 0.221785 0.850767 0.234117
H57   H     H_    0.546274 0.205380 0.769426 0.251570
H58   H     H_    0.551346 0.145936 0.860910 0.232962
C123  C     C_3   0.547796 0.751872 0.795101 -0.877029
H59   H     H_    0.510648 0.710744 0.783120 0.241308
H60   H     H_    0.510522 0.793193 0.779518 0.227763
H61   H     H_    0.554434 0.747824 0.727230 0.247284
C124  C     C_3   0.451441 0.245896 0.199710 -0.863870
H62   H     H_    0.488640 0.286521 0.209879 0.247043
H63   H     H_    0.446804 0.250601 0.269459 0.249752
H64   H     H_    0.487505 0.204065 0.213954 0.225999
C125  C     C_3   0.937753 0.305722 0.144203 -0.853418
H65   H     H_    0.985092 0.279613 0.147205 0.232457
H66   H     H_    0.947196 0.355263 0.137362 0.238519
H67   H     H_    0.952773 0.295550 0.228903 0.248087
C126  C     C_3   0.063645 0.691168 0.859607 -0.863608
H68   H     H_    0.015897 0.715832 0.857681 0.230850
H69   H     H_    0.046964 0.701638 0.773922 0.249281
H70   H     H_    0.056512 0.641332 0.867743 0.233356
C127  C     C_3   0.045576 0.255330 0.800143 -0.860364
H71   H     H_    0.007315 0.215288 0.789266 0.246985
H72   H     H_    0.010712 0.297712 0.786862 0.225100
H73   H     H_    0.049837 0.250301 0.730087 0.249605
C128  C     C_3   0.952809 0.748744 0.206198 -0.865378
H74   H     H_    0.989978 0.789914 0.218414 0.249502
H75   H     H_    0.946122 0.752627 0.274038 0.249479
H76   H     H_    0.990081 0.707454 0.221625 0.220712
C129  C     C_3   0.309843 0.119412 0.804110 -0.811643
H77   H     H_    0.341181 0.159616 0.863533 0.215026
H78   H     H_    0.288514 0.135074 0.717778 0.215071
H79   H     H_    0.254468 0.106103 0.796526 0.271223
C130  C     C_3   0.685213 0.876478 0.193283 -0.809136
H80   H     H_    0.651038 0.836270 0.134520 0.213919
H81   H     H_    0.740050 0.887381 0.198204 0.269218
H82   H     H_    0.707684 0.861904 0.280722 0.214743
C131  C     C_3   0.818555 0.624972 0.810289 -0.812419
H83   H     H_    0.853824 0.664756 0.869827 0.213423
H84   H     H_    0.796237 0.639768 0.723033 0.214504
H85   H     H_    0.763613 0.614819 0.805497 0.268187
C132  C     C_3   0.193846 0.381017 0.194766 -0.833420
H86   H     H_    0.257103 0.401012 0.235717 0.232393
H87   H     H_    0.196687 0.353243 0.259910 0.253753
H88   H     H_    0.178076 0.349088 0.125258 0.229177
C133  C     C_3   0.415184 0.013778 0.151586 -0.774410
H89   H     H_    0.399057 0.062835 0.142480 0.207804
H90   H     H_    0.377031 0.992254 0.063163 0.206515
H91   H     H_    0.390799 0.991093 0.189498 0.258385
C134  C     C_3   0.584585 0.985996 0.848644 -0.773089
H92   H     H_    0.622544 0.007134 0.937364 0.207005
H93   H     H_    0.600715 0.936942 0.857258 0.208732
H94   H     H_    0.609012 0.009123 0.811090 0.258148
C135  C     C_3   0.916220 0.514772 0.151521 -0.765333
H95   H     H_    0.900901 0.563935 0.144146 0.206989
H96   H     H_    0.877876 0.494243 0.062268 0.208332
H97   H     H_    0.891638 0.491300 0.188687 0.258228
C136  C     C_3   0.084934 0.486140 0.848532 -0.780624
H98   H     H_    0.122864 0.507546 0.937040 0.197067
H99   H     H_    0.101454 0.437205 0.857844 0.208068
H100  H     H_    0.109263 0.509076 0.810742 0.260537
C137  C     C_2   0.716294 0.008856 0.527028 0.324158
H101  H     H_    0.709721 0.995590 0.590371 0.124226
O17   O     O_2   0.778400 0.039786 0.562196 -0.559727
C138  C     C_2   0.284010 0.990280 0.472469 0.329041
H102  H     H_    0.289623 0.005285 0.408911 0.121824
O18   O     O_2   0.223366 0.957536 0.437484 -0.559833
C139  C     C_2   0.214173 0.504011 0.527880 0.466184
H103  H     H_    0.219037 0.550798 0.555814 0.041716
O19   O     O_2   0.263005 0.465758 0.601451 -0.529017
C140  C     C_2   0.783411 0.492125 0.473259 0.321712
H104  H     H_    0.790848 0.503976 0.410268 0.127105
O20   O     O_2   0.719955 0.462898 0.437559 -0.561110
C141  C     C_2   0.229352 0.034062 0.597450 0.451157
H105  H     H_    0.187861 0.052782 0.508862 0.076597
O21   O     O_2   0.198584 0.017934 0.641462 -0.514405
C142  C     C_2   0.769326 0.962316 0.401176 0.450749
H106  H     H_    0.810598 0.943904 0.490001 0.077368
O22   O     O_2   0.800104 0.976641 0.356378 -0.513929
C143  C     C_2   0.731857 0.540155 0.600378 0.445591
H107  H     H_    0.691020 0.559120 0.511985 0.074978
O23   O     O_2   0.700840 0.526375 0.645068 -0.520225
C144  C     C_2   0.268312 0.456989 0.402632 0.386542
H108  H     H_    0.297725 0.479465 0.371649 0.065110
O24   O     O_2   0.310243 0.421654 0.485856 -0.486425

loop_
_geom_bond_atom_site_label_1
_geom_bond_atom_site_label_2
_geom_bond_distance
_ccdc_geom_bond_type
C25   H18   1.083637 S    
C33   H10   1.077696 S    
C85   C138  1.484487 S    
C84   C144  1.483441 S    
C18   C50   1.422366 A    
C47   C63   1.425343 A    
C113  H29   1.111009 S    
C17   C49   1.422157 A    
C35   H12   1.074213 S    
O2    C2    1.307390 A    
C122  H57   1.108689 S    
C122  H56   1.110317 S    
C54   C74   1.396721 A    
C81   C141  1.487665 S    
C53   C73   1.396510 A    
C96   C100  1.412685 A    
C99   C111  1.420941 A    
C124  H64   1.110770 S    
C68   C76   1.394728 A    
O4    Cu1   1.936114 S    
C93   C101  1.440374 A    
C5    C16   1.470972 S    
C43   C59   1.424337 A    
C117  H41   1.110993 S    
C126  H70   1.110883 S    
C95   C99   1.406784 A    
C6    C15   1.468336 S    
C10   C34   1.391644 A    
O11   C3    1.310075 A    
C144  H108  1.085285 S    
C127  H71   1.111421 S    
C62   C69   1.433316 A    
N3    C91   1.393416 A    
C22   C54   1.422239 A    
C88   C139  1.477276 S    
C123  H61   1.108868 S    
C35   C43   1.399083 A    
C128  H75   1.108861 S    
N3    C87   1.373166 A    
C106  C110  1.400559 A    
C60   C67   1.431178 A    
C83   C87   1.419420 A    
N1    C89   1.392277 A    
N4    C88   1.368257 A    
C110  C130  1.509759 S    
C52   C80   1.397042 A    
C135  H95   1.103666 S    
C19   C119  1.508536 S    
C32   H23   1.079750 S    
C117  H43   1.110177 S    
C48   C56   1.416916 A    
C82   C98   1.416709 A    
O11   Cu1   1.921240 S    
C13   C29   1.398788 A    
C14   C38   1.391865 A    
O6    C6    1.308038 A    
C42   C58   1.425951 A    
C128  H76   1.110730 S    
C45   C53   1.417701 A    
C144  O24   1.220749 D    
C42   C50   1.417926 A    
C15   C39   1.392358 A    
C132  H86   1.108247 S    
C100  C112  1.425350 A    
C105  C109  1.400610 A    
C121  H54   1.110912 S    
C94   C98   1.407698 A    
C67   C123  1.513902 S    
C70   C126  1.514902 S    
C89   C93   1.432455 A    
C66   C74   1.395558 A    
O8    C8    1.309239 A    
O5    Cu3   1.942907 S    
C91   C95   1.432585 A    
C38   C46   1.396506 A    
O6    Cu4   1.942906 S    
C41   C57   1.425667 A    
C138  H102  1.075038 S    
C116  H39   1.110001 S    
C102  C105  1.404581 A    
C67   C75   1.394741 A    
C11   C35   1.391817 A    
C38   H13   1.077609 S    
C103  C104  1.418791 A    
C36   C44   1.399177 A    
O13   Cu4   1.932016 S    
O3    C3    1.308907 A    
C64   C71   1.431061 A    
C112  C132  1.511501 S    
C71   C127  1.513832 S    
C130  H80   1.108130 S    
C36   H11   1.074557 S    
C81   C97   1.416249 A    
O16   Cu4   1.921238 S    
C16   C32   1.398052 A    
Cu4   N3    2.046754 S    
C93   C97   1.407692 A    
C20   C120  1.508936 S    
C77   H5    1.082989 S    
C24   C32   1.400924 A    
O15   C7    1.309902 A    
C55   C75   1.396983 A    
C96   C104  1.441191 A    
C113  H30   1.110485 S    
C101  C106  1.404566 A    
C115  H35   1.110916 S    
C133  H89   1.103099 S    
O1    Cu1   1.942907 S    
C31   H24   1.083614 S    
C44   C60   1.425438 A    
C82   C86   1.418524 A    
C30   H21   1.083654 S    
C33   C41   1.396691 A    
C60   C63   1.425785 A    
C134  H92   1.109424 S    
C21   C29   1.402669 A    
C59   C68   1.430994 A    
C75   H3    1.082882 S    
O9    Cu2   1.932016 S    
C124  H62   1.111444 S    
C28   H19   1.083600 S    
C4    C9    1.468111 S    
C125  H66   1.110933 S    
C23   C55   1.420641 A    
O10   C2    1.311779 A    
C134  H93   1.103631 S    
C80   H8    1.082878 S    
C1    C12   1.468278 S    
C107  C111  1.401131 A    
C131  H83   1.108098 S    
C84   C100  1.419017 A    
C114  H32   1.110993 S    
C108  C112  1.402049 A    
C69   C77   1.395583 A    
C90   C94   1.432721 A    
C117  H42   1.110464 S    
C73   H1    1.083016 S    
C137  O17   1.221143 D    
C72   C80   1.394764 A    
C59   C64   1.425296 A    
C39   H16   1.074553 S    
C118  H46   1.110453 S    
C34   C42   1.396874 A    
C107  H27   1.079419 S    
Cu1   Cu2   2.723167 S    
C109  C129  1.509252 S    
C19   C27   1.401273 A    
C51   C79   1.397140 A    
C121  H53   1.110329 S    
C87   C140  1.485424 S    
O7    Cu4   1.936116 S    
C34   H9    1.077487 S    
C21   C113  1.510020 S    
C132  H87   1.110327 S    
Cu2   N1    2.046754 S    
C48   C64   1.424139 A    
C119  H49   1.110071 S    
C65   C121  1.514767 S    
Cu1   N2    2.046753 S    
C129  H77   1.106792 S    
C63   C72   1.431036 A    
C22   C114  1.509897 S    
C50   C78   1.396618 A    
C46   C62   1.425765 A    
C97   C109  1.420645 A    
Cu3   N4    2.046753 S    
C39   C47   1.399295 A    
O15   Cu3   1.921240 S    
C65   C73   1.395449 A    
C104  C107  1.405372 A    
C125  H65   1.110173 S    
C84   C88   1.418013 A    
C116  H40   1.108937 S    
C17   C117  1.509798 S    
O12   C4    1.309857 A    
C120  H51   1.110031 S    
C141  H105  1.085213 S    
C111  C131  1.509559 S    
O13   C5    1.311091 A    
O2    Cu2   1.942906 S    
C103  C108  1.403173 A    
C83   C99   1.417081 A    
C24   C56   1.419517 A    
C130  H81   1.109823 S    
C66   C122  1.514607 S    
C108  H28   1.078205 S    
C37   H14   1.077592 S    
C115  H36   1.109250 S    
C22   C30   1.402849 A    
C81   C85   1.417680 A    
C61   C70   1.433533 A    
C58   C65   1.433493 A    
O9    C1    1.310798 A    
C27   H20   1.083618 S    
C43   C51   1.417447 A    
C72   C128  1.513880 S    
C120  H50   1.110913 S    
C86   C137  1.484873 S    
C113  H31   1.110423 S    
C121  H55   1.108718 S    
C133  H90   1.109425 S    
C15   C31   1.398294 A    
O14   Cu3   1.932015 S    
C122  H58   1.110943 S    
C140  O20   1.221138 D    
C133  H91   1.085618 S    
C47   C55   1.417635 A    
C82   C142  1.487883 S    
C106  H26   1.079205 S    
C136  H98   1.109580 S    
O10   Cu1   1.932015 S    
C69   C125  1.514684 S    
C92   C135  1.516656 S    
C114  H33   1.110297 S    
C115  H37   1.110026 S    
N1    C85   1.373077 A    
C119  H47   1.110904 S    
C20   C28   1.401283 A    
C76   H4    1.082954 S    
C123  H59   1.111559 S    
N2    C90   1.392600 A    
C7    C14   1.468021 S    
C13   C37   1.391942 A    
C20   C52   1.420833 A    
C132  H88   1.108215 S    
C128  H74   1.111555 S    
C140  H104  1.074628 S    
C83   C143  1.487671 S    
C10   C26   1.398621 A    
O3    Cu2   1.936116 S    
C92   C96   1.432886 A    
C142  O22   1.221061 D    
C16   C40   1.392753 A    
C24   C116  1.509027 S    
C57   C66   1.433117 A    
C14   C30   1.398742 A    
C89   C134  1.516838 S    
C139  H103  1.081597 S    
C129  H78   1.108688 S    
C125  H67   1.108695 S    
C98   C110  1.420958 A    
C127  H73   1.108749 S    
C18   C118  1.510054 S    
C79   H7    1.082897 S    
O1    C1    1.308155 A    
C8    C13   1.468202 S    
C78   H6    1.083002 S    
C68   C124  1.513543 S    
C136  H100  1.085673 S    
C41   C49   1.417654 A    
C94   C102  1.440930 A    
C135  H97   1.087607 S    
C131  H84   1.108401 S    
C126  H68   1.110282 S    
C143  H107  1.085194 S    
C127  H72   1.110739 S    
C90   C133  1.517184 S    
C71   C79   1.394877 A    
C101  C102  1.420145 A    
C56   C76   1.396792 A    
C120  H52   1.109055 S    
C23   C115  1.508917 S    
C58   C61   1.425597 A    
O14   C6    1.310955 A    
C118  H44   1.111022 S    
C12   C28   1.398165 A    
C9    C33   1.392029 A    
C57   C62   1.425181 A    
C23   C31   1.401244 A    
O7    C7    1.309142 A    
C29   H22   1.083208 S    
C91   C136  1.517231 S    
C95   C103  1.441683 A    
C141  O21   1.221023 D    
C12   C36   1.392317 A    
C123  H60   1.110738 S    
C114  H34   1.110468 S    
C44   C52   1.417722 A    
N4    C92   1.389694 A    
C126  H69   1.108700 S    
C130  H82   1.108405 S    
O16   C8    1.309859 A    
C134  H94   1.086328 S    
C118  H45   1.110416 S    
C40   C48   1.398853 A    
C21   C53   1.422011 A    
C129  H79   1.109632 S    
O4    C4    1.309216 A    
C143  O23   1.221059 D    
C26   H17   1.083647 S    
C18   C26   1.402660 A    
O5    C5    1.309365 A    
C142  H106  1.085192 S    
N2    C86   1.372965 A    
C138  O18   1.221164 D    
C116  H38   1.110944 S    
C135  H96   1.109312 S    
C131  H85   1.109825 S    
O12   Cu2   1.921238 S    
Cu3   Cu4   2.723167 S    
C137  H101  1.074895 S    
O8    Cu3   1.936114 S    
C124  H63   1.108866 S    
C45   C61   1.425882 A    
C40   H15   1.073849 S    
C11   C27   1.398978 A    
C2    C11   1.468687 S    
C119  H48   1.109711 S    
C136  H99   1.102167 S    
C3    C10   1.467932 S    
C17   C25   1.402754 A    
C70   C78   1.395546 A    
C105  H25   1.078677 S    
C9    C25   1.398729 A    
C139  O19   1.218693 D    
C74   H2    1.082997 S    
C49   C77   1.396701 A    
C37   C45   1.396777 A    
C19   C51   1.419886 A    
C46   C54   1.417750 A    
