data_mof_unit_15700.cif
_audit_creation_date              2012-12-10T17:01:35-0500
_audit_creation_method            fapswitch 2.2
_symmetry_space_group_name_H-M    P1
_symmetry_Int_Tables_number       1
_space_group_crystal_system       triclinic
_cell_length_a                    9.849026
_cell_length_b                    11.030034
_cell_length_c                    13.022933
_cell_angle_alpha                 89.950662
_cell_angle_beta                  76.007331
_cell_angle_gamma                 111.31279
_cell_volume                      1272.70608569

loop_
_atom_site_label
_atom_site_type_symbol
_atom_type_description
_atom_site_fract_x
_atom_site_fract_y
_atom_site_fract_z
_atom_type_partial_charge
C1    C     C_R   0.439098 0.253704 0.505982 0.821012
C2    C     C_R   0.561241 0.746504 0.491078 0.824906
C3    C     C_2   0.082954 0.511437 0.491539 -0.060444
C4    C     C_2   0.917058 0.488562 0.508449 -0.058193
C5    C     C_R   0.473952 0.495891 0.701999 0.813512
C6    C     C_R   0.526037 0.504075 0.297989 0.806071
C7    C     C_R   0.540646 0.512124 0.184441 -0.100173
C8    C     C_R   0.459336 0.487881 0.815530 -0.101302
C9    C     C_R   0.317704 0.370998 0.987446 -0.022601
C10   C     C_R   0.682219 0.629099 0.012522 -0.022316
C11   C     C_R   0.334002 0.389553 0.879544 -0.243064
C12   C     C_R   0.665987 0.610444 0.120417 -0.240699
C13   C     C_R   0.569561 0.575258 0.858709 -0.094360
C14   C     C_R   0.430376 0.424837 0.141246 -0.092995
C15   C     C_R   0.564198 0.552457 0.967095 0.051918
C16   C     C_R   0.435728 0.447673 0.032870 0.052199
C17   C     C_2   0.402373 0.113413 0.505026 0.101228
C18   C     C_2   0.597788 0.887250 0.485047 0.097982
C19   C     C_2   0.515204 0.070162 0.472638 -0.231570
C20   C     C_2   0.490116 0.931416 0.477257 -0.222492
Cu1   Cu    Cu3+1 0.647370 0.522180 0.481340 0.957703
Cu2   Cu    Cu3+1 0.352630 0.477820 0.518660 0.961574
H1    H     H_    0.752876 0.673521 0.155405 0.159425
H2    H     H_    0.247166 0.326405 0.844544 0.158994
H3    H     H_    0.380109 0.862249 0.474489 0.162273
H4    H     H_    0.630745 0.139842 0.445833 0.174212
H5    H     H_    0.834906 0.413090 0.569450 0.159038
H6    H     H_    0.165114 0.586909 0.430538 0.156107
H7    H     H_    0.949467 0.627369 0.396589 0.192805
H8    H     H_    0.050524 0.372643 0.603415 0.197421
N1    N     N_2   0.131210 0.444490 0.546730 -0.279144
N2    N     N_2   0.868790 0.555510 0.453270 -0.280507
O1    O     O_R   0.578710 0.332530 0.490040 -0.606766
O2    O     O_R   0.421290 0.667470 0.509960 -0.604630
O3    O     O_R   0.329810 0.295070 0.521560 -0.544359
O4    O     O_R   0.670190 0.704930 0.478440 -0.550272
O5    O     O_R   0.604230 0.515670 0.637800 -0.571116
O6    O     O_R   0.395770 0.484330 0.362200 -0.574543
O7    O     O_R   0.355330 0.478200 0.669330 -0.575917
O8    O     O_R   0.644670 0.521800 0.330670 -0.579371
C21   C     C_1   0.323370 0.307083 0.207871 0.261466
N3    N     N_1   0.239617 0.213451 0.261831 -0.284635
C22   C     C_1   0.676522 0.692981 0.791982 0.259595
N4    N     N_1   0.760135 0.786515 0.737828 -0.267605
C23   C     C_1   0.174254 0.275518 0.047075 0.250657
N5    N     N_1   0.058785 0.199171 0.093744 -0.274220
C24   C     C_1   0.825626 0.724626 0.952904 0.250537
N6    N     N_1   0.941086 0.801015 0.906282 -0.280101
N7    N     N_2   0.743011 0.971923 0.494011 -0.418862
H9    H     H_    0.743956 0.049202 0.538722 0.258401
C25   C     C_3   0.860444 0.008604 0.395446 -0.600939
H10   H     H_    0.970156 0.066547 0.411880 0.249764
H11   H     H_    0.836284 0.068928 0.339191 0.225912
H12   H     H_    0.869918 0.920408 0.358339 0.235925
N8    N     N_2   0.247618 0.027647 0.538844 -0.420056
H13   H     H_    0.213384 0.952741 0.492272 0.256284
C26   C     C_3   0.193131 0.987770 0.651736 -0.599931
H14   H     H_    0.070216 0.929028 0.671814 0.256358
H15   H     H_    0.212027 0.074855 0.697398 0.223105
H16   H     H_    0.251665 0.927182 0.675006 0.226797

loop_
_geom_bond_atom_site_label_1
_geom_bond_atom_site_label_2
_ccdc_geom_bond_type
C15   C16   A    
C5    C8    S    
N8    H13   S    
C6    O6    A    
C9    C23   S    
C8    C13   A    
C5    O5    A    
C2    C18   S    
N8    C26   S    
C21   N3    T    
C17   N8    S    
C1    C17   S    
C19   C20   S    
C8    C11   A    
H8    N1    S    
C22   N4    T    
C25   H12   S    
C2    O2    A    
C13   C15   A    
C1    O1    A    
Cu1   O4    S    
C23   N5    T    
C3    N1    D    
Cu2   O3    S    
C9    C11   A    
C12   H1    S    
C26   H14   S    
C4    N2    D    
Cu1   O8    S    
C10   C12   A    
C14   C21   S    
Cu2   O7    S    
C3    H6    S    
C17   C19   D    
C9    C16   A    
H7    N2    S    
C18   C20   D    
C10   C15   A    
C5    O7    A    
C7    C12   A    
Cu2   O2    S    
Cu1   N2    S    
C14   C16   A    
C26   H15   S    
Cu1   O1    S    
C20   H3    S    
C25   H10   S    
Cu2   O6    S    
C24   N6    T    
C11   H2    S    
C13   C22   S    
C6    O8    A    
Cu1   O5    S    
C1    O3    A    
N7    H9    S    
Cu2   N1    S    
C2    O4    A    
C10   C24   S    
C19   H4    S    
C26   H16   S    
C4    H5    S    
N7    C25   S    
Cu1   Cu2   S    
C7    C14   A    
C6    C7    S    
C3    C4    S    
C18   N7    S    
C25   H11   S    
