data_mof_unit_25963.cif
_audit_creation_date              2012-12-11T15:41:14-0500
_audit_creation_method            fapswitch 2.2
_symmetry_space_group_name_H-M    P1
_symmetry_Int_Tables_number       1
_space_group_crystal_system       triclinic
_cell_length_a                    19.114405
_cell_length_b                    10.996947
_cell_length_c                    18.806007
_cell_angle_alpha                 90.046852
_cell_angle_beta                  90.445601
_cell_angle_gamma                 89.911095
_cell_volume                      3952.89893768

loop_
_atom_site_label
_atom_site_type_symbol
_atom_type_description
_atom_site_fract_x
_atom_site_fract_y
_atom_site_fract_z
_atom_type_partial_charge
C1    C     C_R   0.727208 0.956571 0.853432 0.561994
C2    C     C_R   0.275949 0.963211 0.143508 0.574670
C3    C     C_R   0.227207 0.456574 0.853433 0.561987
C4    C     C_R   0.775948 0.463211 0.143509 0.574660
C5    C     C_R   0.702016 0.473508 0.035160 -0.049656
C6    C     C_R   0.299994 0.475337 0.962464 -0.040171
C7    C     C_R   0.202021 0.973539 0.035155 -0.049658
C8    C     C_R   0.800020 0.975265 0.962451 -0.040239
C9    C     C_R   0.693890 0.461329 0.962287 0.068050
C10   C     C_R   0.305198 0.457293 0.035104 0.018823
C11   C     C_R   0.193896 0.961362 0.962283 0.068021
C12   C     C_R   0.805226 0.957219 0.035089 0.018804
C13   C     C_R   0.817317 0.422069 0.950580 -0.175385
C14   C     C_R   0.219846 0.296774 0.025825 -0.117173
C15   C     C_R   0.317321 0.922051 0.950581 -0.175398
C16   C     C_R   0.719835 0.796774 0.025824 -0.117195
C17   C     C_R   0.824786 0.430240 0.024109 -0.139910
C18   C     C_R   0.216196 0.312284 0.952573 -0.102517
C19   C     C_R   0.324788 0.930216 0.024110 -0.139987
C20   C     C_R   0.716181 0.812285 0.952572 -0.102510
C21   C     C_3   0.632084 0.420772 0.050418 -0.223118
C22   C     C_3   0.309793 0.609722 0.970183 -0.181796
C23   C     C_3   0.132075 0.920845 0.050411 -0.223107
C24   C     C_3   0.809892 0.109625 0.970163 -0.181815
C25   C     C_3   0.623197 0.405416 0.970761 0.265405
C26   C     C_3   0.316241 0.589319 0.049649 0.248376
C27   C     C_3   0.123190 0.905487 0.970754 0.265414
C28   C     C_3   0.816342 0.089217 0.049630 0.248430
C29   C     C_R   0.750296 0.425766 0.919745 -0.022666
C30   C     C_R   0.260209 0.376359 0.068435 0.062573
C31   C     C_R   0.250300 0.925771 0.919743 -0.022662
C32   C     C_R   0.760216 0.876335 0.068429 0.062531
C33   C     C_R   0.478541 0.170732 0.433296 0.009748
C34   C     C_R   0.488540 0.174678 0.580692 0.038916
C35   C     C_R   0.978541 0.670732 0.433296 0.009747
C36   C     C_R   0.988540 0.674678 0.580692 0.038916
C37   C     C_R   0.477179 0.280001 0.470030 -0.006037
C38   C     C_R   0.481409 0.283166 0.542164 0.101995
C39   C     C_R   0.977179 0.780001 0.470030 -0.006038
C40   C     C_R   0.981409 0.783166 0.542164 0.101995
C41   C     C_R   0.472698 0.065140 0.546565 -0.180955
C42   C     C_R   0.469787 0.062684 0.472164 -0.177041
C43   C     C_R   0.972698 0.565140 0.546565 -0.180955
C44   C     C_R   0.969787 0.562684 0.472164 -0.177042
C45   C     C_R   0.531008 0.177133 0.851362 0.567179
C46   C     C_R   0.470395 0.177859 0.149676 0.569203
C47   C     C_R   0.031009 0.677133 0.851362 0.567166
C48   C     C_R   0.970392 0.677860 0.149674 0.569200
C49   C     C_3   0.519241 0.391947 0.459338 -0.239106
C50   C     C_3   0.525161 0.396734 0.539312 -0.204477
C51   C     C_3   0.019241 0.891948 0.459338 -0.239105
C52   C     C_3   0.025161 0.896734 0.539312 -0.204477
C53   C     C_R   0.748378 0.409906 0.420827 -0.009920
C54   C     C_R   0.238876 0.431198 0.572467 0.073162
C55   C     C_R   0.248378 0.909906 0.420827 -0.009918
C56   C     C_R   0.738876 0.931198 0.572467 0.073162
C57   C     C_R   0.782253 0.312696 0.454156 0.014550
C58   C     C_R   0.180813 0.433852 0.526899 -0.025159
C59   C     C_R   0.282253 0.812696 0.454156 0.014551
C60   C     C_R   0.680813 0.933852 0.526899 -0.025158
C61   C     C_R   0.780678 0.301155 0.526939 -0.049762
C62   C     C_R   0.187045 0.428480 0.454212 -0.061607
C63   C     C_R   0.280678 0.801155 0.526939 -0.049762
C64   C     C_R   0.687045 0.928480 0.454212 -0.061609
C65   C     C_R   0.701800 0.470047 0.536119 -0.118985
C66   C     C_R   0.312339 0.425202 0.468704 -0.041459
C67   C     C_R   0.201800 0.970047 0.536119 -0.118985
C68   C     C_R   0.812339 0.925202 0.468704 -0.041459
C69   C     C_R   0.701860 0.480548 0.461984 0.337081
C70   C     C_R   0.305462 0.434848 0.542548 0.315363
C71   C     C_R   0.201860 0.980548 0.461984 0.337081
C72   C     C_R   0.805462 0.934848 0.542548 0.315363
C73   C     C_3   0.855470 0.265477 0.450530 0.253943
C74   C     C_3   0.116405 0.357774 0.526068 0.268614
C75   C     C_3   0.355470 0.765477 0.450530 0.253941
C76   C     C_3   0.616405 0.857773 0.526068 0.268615
C77   C     C_3   0.854207 0.255531 0.530920 -0.190097
C78   C     C_3   0.120574 0.358557 0.445682 -0.182086
C79   C     C_3   0.354207 0.755531 0.530920 -0.190096
C80   C     C_3   0.620574 0.858557 0.445682 -0.182087
C81   C     C_R   0.745155 0.384881 0.569662 -0.063405
C82   C     C_R   0.252741 0.413428 0.424179 0.014507
C83   C     C_R   0.245155 0.884881 0.569662 -0.063406
C84   C     C_R   0.752741 0.913428 0.424179 0.014506
C85   C     C_R   0.738304 0.365097 0.852140 0.529364
C86   C     C_R   0.263929 0.355043 0.144359 0.590900
C87   C     C_R   0.238305 0.865098 0.852140 0.529355
C88   C     C_R   0.763933 0.855030 0.144354 0.590896
C89   C     C_R   0.726813 0.956825 0.646850 0.587682
C90   C     C_R   0.271815 0.954971 0.352185 0.571145
C91   C     C_R   0.226813 0.456825 0.646850 0.587682
C92   C     C_R   0.771815 0.454971 0.352185 0.571141
C93   C     C_R   0.527674 0.177193 0.646474 0.535649
C94   C     C_R   0.466096 0.176519 0.357828 0.545542
C95   C     C_R   0.027674 0.677194 0.646474 0.535650
C96   C     C_R   0.966096 0.676519 0.357828 0.545547
C97   C     C_R   0.738503 0.357950 0.644808 0.551868
C98   C     C_R   0.261220 0.361869 0.353758 0.574899
C99   C     C_R   0.238503 0.857950 0.644808 0.551869
C100  C     C_R   0.761220 0.861869 0.353758 0.574900
C101  C     C_2   0.501672 0.164648 0.922752 -0.142818
C102  C     C_2   0.502998 0.171738 0.079836 -0.113433
C103  C     C_2   0.001673 0.664649 0.922752 -0.142842
C104  C     C_2   0.002996 0.671739 0.079834 -0.113389
C105  C     C_2   0.506245 0.068730 0.041908 0.364242
C106  C     C_2   0.520948 0.070682 0.965317 0.354016
C107  C     C_2   0.006246 0.568730 0.041907 0.364259
C108  C     C_2   0.020950 0.570684 0.965316 0.354036
C109  C     C_R   0.765869 0.446483 0.067592 0.040735
C110  C     C_R   0.251566 0.409485 0.921168 0.020947
C111  C     C_R   0.265870 0.946484 0.067591 0.040725
C112  C     C_R   0.751567 0.909463 0.921162 0.020941
Cr1   Cr    Cr6+3 0.769260 0.163750 0.750730 1.064093
Cr2   Cr    Cr6+3 0.230740 0.163750 0.249270 1.082550
Cr3   Cr    Cr6+3 0.269260 0.663750 0.750730 1.064098
Cr4   Cr    Cr6+3 0.730740 0.663750 0.249270 1.082536
Cr5   Cr    Cr6+3 0.612640 0.009910 0.748780 1.095891
Cr6   Cr    Cr6+3 0.387360 0.009910 0.251220 1.091968
Cr7   Cr    Cr6+3 0.112640 0.509910 0.748780 1.095899
Cr8   Cr    Cr6+3 0.887360 0.509910 0.251220 1.091995
Cr9   Cr    Cr6+3 0.614190 0.322400 0.747710 1.086468
Cr10  Cr    Cr6+3 0.385810 0.322400 0.252290 1.071763
Cr11  Cr    Cr6+3 0.114190 0.822400 0.747710 1.086464
Cr12  Cr    Cr6+3 0.885810 0.822400 0.252290 1.071777
H1    H     H_    0.987991 0.968036 0.436601 0.201676
H2    H     H_    0.079271 0.880882 0.558108 0.148702
H3    H     H_    0.487991 0.468037 0.436601 0.201675
H4    H     H_    0.579271 0.380882 0.558108 0.148702
H5    H     H_    0.569578 0.372909 0.432315 0.172749
H6    H     H_    0.498553 0.476903 0.562965 0.216088
H7    H     H_    0.069578 0.872910 0.432315 0.172751
H8    H     H_    0.998553 0.976903 0.562965 0.216088
H9    H     H_    0.668402 0.528571 0.567276 0.219138
H10   H     H_    0.364211 0.418320 0.446947 0.184208
H11   H     H_    0.168402 0.028571 0.567276 0.219139
H12   H     H_    0.864211 0.918320 0.446947 0.184207
H13   H     H_    0.894265 0.330132 0.430240 0.137438
H14   H     H_    0.070865 0.404103 0.548472 0.125851
H15   H     H_    0.394265 0.830132 0.430240 0.137437
H16   H     H_    0.570865 0.904103 0.548471 0.125851
H17   H     H_    0.857679 0.161216 0.550849 0.225821
H18   H     H_    0.126739 0.267401 0.422251 0.267577
H19   H     H_    0.357679 0.661215 0.550849 0.225821
H20   H     H_    0.626739 0.767401 0.422251 0.267577
H21   H     H_    0.889848 0.320624 0.558004 0.095500
H22   H     H_    0.079378 0.414431 0.419709 0.084144
H23   H     H_    0.389848 0.820624 0.558004 0.095499
H24   H     H_    0.579378 0.914431 0.419709 0.084141
H25   H     H_    0.515402 0.257963 0.054997 0.045595
H26   H     H_    0.472115 0.240854 0.943741 0.069902
H27   H     H_    0.015402 0.757964 0.054996 0.045547
H28   H     H_    0.972115 0.740853 0.943740 0.069849
H29   H     H_    0.862831 0.399624 0.919160 0.170552
H30   H     H_    0.188550 0.225533 0.049194 0.167874
H31   H     H_    0.362834 0.899585 0.919164 0.170556
H32   H     H_    0.688527 0.725552 0.049196 0.167889
H33   H     H_    0.876323 0.418956 0.046949 0.214386
H34   H     H_    0.180441 0.256106 0.921988 0.185894
H35   H     H_    0.376324 0.918907 0.046952 0.214379
H36   H     H_    0.680412 0.756129 0.921991 0.185907
H37   H     H_    0.095952 0.988968 0.073906 0.182872
H38   H     H_    0.762309 0.161934 0.954849 0.173452
H39   H     H_    0.595949 0.488868 0.073917 0.182876
H40   H     H_    0.262180 0.661957 0.954863 0.173403
H41   H     H_    0.635805 0.333078 0.079622 0.135600
H42   H     H_    0.359244 0.641482 0.945713 0.137269
H43   H     H_    0.135777 0.833149 0.079619 0.135649
H44   H     H_    0.859353 0.141296 0.945683 0.137303
H45   H     H_    0.620633 0.309144 0.953117 0.112623
H46   H     H_    0.368812 0.610071 0.072168 0.149453
H47   H     H_    0.120609 0.809212 0.953113 0.112627
H48   H     H_    0.868925 0.109877 0.072138 0.149481
H49   H     H_    0.469957 0.981497 0.576506 0.121138
H50   H     H_    0.464311 0.977193 0.445199 0.117180
H51   H     H_    0.969957 0.481497 0.576506 0.121138
H52   H     H_    0.964311 0.477193 0.445199 0.117179
O1    O     O_R   0.784290 0.290360 0.830540 -0.527031
O2    O     O_R   0.215710 0.290360 0.169460 -0.509845
O3    O     O_R   0.284290 0.790360 0.830540 -0.527031
O4    O     O_R   0.715710 0.790360 0.169460 -0.509859
O5    O     O_R   0.554690 0.080440 0.673480 -0.521455
O6    O     O_R   0.445310 0.080440 0.326520 -0.511014
O7    O     O_R   0.054690 0.580440 0.673480 -0.521455
O8    O     O_R   0.945310 0.580440 0.326520 -0.511011
O9    O     O_R   0.543980 0.282110 0.666770 -0.513416
O10   O     O_R   0.456020 0.282110 0.333230 -0.513030
O11   O     O_R   0.043980 0.782110 0.666770 -0.513413
O12   O     O_R   0.956020 0.782110 0.333230 -0.513027
O13   O     O_R   0.679070 0.374030 0.674430 -0.508406
O14   O     O_R   0.320930 0.374030 0.325570 -0.483918
O15   O     O_R   0.179070 0.874030 0.674430 -0.508402
O16   O     O_R   0.820930 0.874030 0.325570 -0.483912
O17   O     O_3   0.665360 0.165350 0.749070 -0.292372
O18   O     O_3   0.334640 0.165350 0.250930 -0.301712
O19   O     O_3   0.165360 0.665350 0.749070 -0.292375
O20   O     O_3   0.834640 0.665350 0.250930 -0.301726
O21   O     O_R   0.762610 0.041070 0.825230 -0.508742
O22   O     O_R   0.237390 0.041070 0.174770 -0.520616
O23   O     O_R   0.262610 0.541070 0.825230 -0.508735
O24   O     O_R   0.737390 0.541070 0.174770 -0.520632
O25   O     O_R   0.667390 0.924160 0.829970 -0.459918
O26   O     O_R   0.332610 0.924160 0.170030 -0.477547
O27   O     O_R   0.167390 0.424160 0.829970 -0.459901
O28   O     O_R   0.832610 0.424160 0.170030 -0.477489
O29   O     O_R   0.553980 0.081420 0.821780 -0.433578
O30   O     O_R   0.446020 0.081420 0.178220 -0.436610
O31   O     O_R   0.053980 0.581420 0.821780 -0.433573
O32   O     O_R   0.946020 0.581420 0.178220 -0.436614
O33   O     O_R   0.543210 0.283170 0.826740 -0.472333
O34   O     O_R   0.456790 0.283170 0.173260 -0.525430
O35   O     O_R   0.043210 0.783170 0.826740 -0.472369
O36   O     O_R   0.956790 0.783170 0.173260 -0.525440
O37   O     O_R   0.678350 0.375000 0.822720 -0.471586
O38   O     O_R   0.321650 0.375000 0.177280 -0.493331
O39   O     O_R   0.178350 0.875000 0.822720 -0.471592
O40   O     O_R   0.821650 0.875000 0.177280 -0.493300
O41   O     O_R   0.785060 0.289300 0.670580 -0.503945
O42   O     O_R   0.214940 0.289300 0.329420 -0.493195
O43   O     O_R   0.285060 0.789300 0.670580 -0.503945
O44   O     O_R   0.714940 0.789300 0.329420 -0.493196
O45   O     O_R   0.763330 0.040090 0.676940 -0.467496
O46   O     O_R   0.236670 0.040090 0.323060 -0.434142
O47   O     O_R   0.263330 0.540090 0.676940 -0.467496
O48   O     O_R   0.736670 0.540090 0.323060 -0.434144
O49   O     O_R   0.668160 0.923110 0.670000 -0.495930
O50   O     O_R   0.331840 0.923110 0.330000 -0.518449
O51   O     O_R   0.168160 0.423110 0.670000 -0.495929
O52   O     O_R   0.831840 0.423110 0.330000 -0.518445
F1    F     F_    0.499647 0.958657 0.074104 -0.588358
F2    F     F_    0.556328 0.973223 0.939058 -0.566678
F3    F     F_    0.999647 0.458658 0.074103 -0.588339
F4    F     F_    0.056333 0.473226 0.939058 -0.566655
F5    F     F_    0.659992 0.565125 0.431521 -0.627026
F6    F     F_    0.363222 0.440636 0.584706 -0.660500
F7    F     F_    0.159992 0.065126 0.431521 -0.627025
F8    F     F_    0.863223 0.940636 0.584706 -0.660500
F9    F     F_    0.858175 0.153956 0.416922 -0.638226
F10   F     F_    0.128191 0.243580 0.554499 -0.617684
F11   F     F_    0.358175 0.653956 0.416922 -0.638229
F12   F     F_    0.628191 0.743580 0.554499 -0.617685
F13   F     F_    0.570935 0.479137 0.943117 -0.604785
F14   F     F_    0.261295 0.640617 0.086862 -0.629469
F15   F     F_    0.070941 0.979238 0.943104 -0.604780
F16   F     F_    0.761436 0.140603 0.086851 -0.629452

loop_
_geom_bond_atom_site_label_1
_geom_bond_atom_site_label_2
_ccdc_geom_bond_type
C58   C62   A    
Cr1   O1    S    
C4    C109  S    
C65   C69   A    
C67   C83   A    
C21   H39   S    
C100  O44   A    
Cr11  O39   S    
C93   O9    A    
C105  F1    S    
C3    O27   A    
C41   C42   A    
C14   C18   A    
C75   F11   S    
Cr2   O18   S    
C2    O26   A    
C34   C93   S    
C98   O14   A    
C53   C69   A    
C33   C94   S    
C76   F12   S    
C9    C25   S    
C63   C79   S    
C35   C96   S    
Cr6   O50   S    
C15   C19   A    
C74   H14   S    
Cr5   O49   S    
Cr8   O20   S    
C75   C79   S    
C73   H13   S    
C12   C28   S    
C33   C42   A    
C46   C102  S    
C104  H27   S    
C13   C29   A    
C24   H44   S    
C37   C38   A    
C14   C30   A    
C90   O46   A    
C55   C90   S    
Cr5   O29   S    
C78   H18   S    
C1    C112  S    
Cr12  O40   S    
Cr4   O24   S    
Cr5   O5    S    
Cr10  O10   S    
C73   F9    S    
C3    C110  S    
C48   C104  S    
C101  H26   S    
C86   O2    A    
C21   H41   S    
C102  C105  D    
C47   O35   A    
C70   F6    S    
C57   C73   S    
C65   H9    S    
C69   F5    S    
C64   C84   A    
C36   C40   A    
C21   C25   S    
C50   H6    S    
C81   C97   S    
C39   C51   S    
C20   C112  A    
C43   H51   S    
C28   H48   S    
C79   H19   S    
C48   O36   A    
C61   C77   S    
C74   F10   S    
C80   H20   S    
Cr11  O35   S    
C16   H32   S    
C3    O23   A    
C107  C108  S    
Cr10  O34   S    
C88   O4    A    
C103  C108  D    
C22   H42   S    
Cr9   O33   S    
C8    C12   A    
Cr4   O44   S    
C17   H33   S    
Cr8   O52   S    
C4    O24   A    
C15   H31   S    
C9    C29   A    
C6    C110  A    
C10   C26   S    
Cr6   O6    S    
C62   C82   A    
C1    O25   A    
C83   C99   S    
C12   C32   A    
Cr11  O11   S    
C25   F13   S    
C64   C80   S    
Cr3   O43   S    
C100  O16   A    
C34   C41   A    
C93   O5    A    
C96   O8    A    
C17   C109  A    
Cr5   O25   S    
C89   O45   A    
Cr9   O17   S    
Cr3   O3    S    
C62   C78   S    
Cr10  O14   S    
C52   H8    S    
C76   H16   S    
C87   O39   A    
C49   H3    S    
C24   H38   S    
C2    C111  S    
C47   C103  S    
C107  F3    S    
C82   C98   S    
Cr7   O51   S    
C51   C52   S    
C68   C84   A    
Cr3   O23   S    
C92   O48   A    
C31   C87   S    
C42   H50   S    
C39   C40   A    
Cr12  O12   S    
C52   H2    S    
C34   C38   A    
C79   H23   S    
Cr12  O36   S    
C56   C72   A    
C40   C52   S    
C49   H5    S    
C60   C76   S    
Cr6   O30   S    
C45   O33   A    
Cr10  O38   S    
C27   F15   S    
C68   C72   A    
Cr9   O9    S    
C51   H1    S    
C61   C81   A    
Cr4   O48   S    
C80   H24   S    
C35   C39   A    
C43   C44   A    
C86   O38   A    
C5    C9    A    
C67   H11   S    
C18   H34   S    
C85   O37   A    
C66   C82   A    
C22   H40   S    
C10   C30   A    
C65   C81   A    
C29   C85   S    
C54   C70   A    
C11   C27   S    
C16   C20   A    
Cr1   O45   S    
C48   O32   A    
C53   C92   S    
C54   C58   A    
Cr7   O27   S    
Cr7   O7    S    
Cr2   O46   S    
C68   H12   S    
C57   C61   A    
C35   C44   A    
Cr8   O8    S    
C13   H29   S    
C37   C49   S    
C45   C101  S    
C103  H28   S    
C23   H43   S    
C99   O15   A    
C26   H46   S    
C85   O1    A    
C56   C89   S    
C84   C100  S    
C99   O43   A    
C95   O11   A    
C23   C27   S    
C98   O42   A    
C20   H36   S    
Cr8   O28   S    
C97   O41   A    
Cr7   O19   S    
C32   C88   S    
C30   C86   S    
C78   H22   S    
C91   O47   A    
Cr5   O17   S    
C59   C75   S    
Cr12  O16   S    
C55   C59   A    
C58   C74   S    
C24   C28   S    
C33   C37   A    
C108  F4    S    
C25   H45   S    
C101  C106  D    
C46   O30   A    
C41   H49   S    
C45   O29   A    
C88   O40   A    
C91   O51   A    
C2    O22   A    
Cr1   O17   S    
Cr2   O22   S    
C90   O50   A    
C18   C110  A    
C1    O21   A    
Cr2   O2    S    
C94   O10   A    
C89   O49   A    
C53   C57   A    
Cr10  O18   S    
Cr8   O32   S    
C76   C80   S    
C26   F14   S    
C106  F2    S    
C15   C31   A    
C71   F7    S    
C19   C111  A    
C16   C32   A    
C94   O6    A    
C105  C106  S    
C74   C78   S    
C59   C63   A    
C5    C21   S    
C38   C50   S    
C47   O31   A    
C60   C64   A    
Cr6   O18   S    
C19   H35   S    
Cr4   O4    S    
C14   H30   S    
C54   C91   S    
Cr1   O41   S    
C46   O34   A    
C56   C60   A    
C87   O3    A    
Cr9   O13   S    
Cr11  O19   S    
C36   C95   S    
C95   O7    A    
C66   C70   A    
C77   H21   S    
C5    C109  A    
C7    C23   S    
C97   O13   A    
C8    C24   S    
C8    C112  A    
C7    C111  A    
Cr1   O21   S    
C67   C71   A    
Cr3   O19   S    
Cr12  O20   S    
C77   H17   S    
C44   H52   S    
C4    O28   A    
C6    C10   A    
Cr3   O47   S    
C102  H25   S    
C11   C31   A    
C13   C17   A    
Cr4   O20   S    
C72   F8    S    
Cr6   O26   S    
Cr2   O42   S    
C50   H4    S    
C92   O52   A    
C51   H7    S    
C49   C50   S    
C22   C26   S    
C7    C11   A    
C63   C83   A    
C73   C77   S    
C36   C43   A    
C75   H15   S    
Cr7   O31   S    
C28   F16   S    
C66   H10   S    
C27   H47   S    
Cr11  O15   S    
C96   O12   A    
C104  C107  D    
C55   C71   A    
Cr9   O37   S    
C23   H37   S    
C6    C22   S    
