data_mof_unit_18334.cif
_audit_creation_date              2012-12-10T20:49:45-0500
_audit_creation_method            fapswitch 2.2
_symmetry_space_group_name_H-M    P1
_symmetry_Int_Tables_number       1
_space_group_crystal_system       triclinic
_cell_length_a                    8.22559
_cell_length_b                    9.001797
_cell_length_c                    16.910129
_cell_angle_alpha                 89.761057
_cell_angle_beta                  85.475454
_cell_angle_gamma                 88.737204
_cell_volume                      1247.90313498

loop_
_atom_site_label
_atom_site_type_symbol
_atom_type_description
_atom_site_fract_x
_atom_site_fract_y
_atom_site_fract_z
_atom_type_partial_charge
C1    C     C_R   0.499150 0.781667 0.498657 0.874712
C2    C     C_R   0.501252 0.218319 0.499421 0.924941
C3    C     C_1   0.498901 0.934883 0.498190 -0.183867
C4    C     C_1   0.501993 0.065091 0.498472 -0.185784
C5    C     C_R   0.477275 0.503154 0.652846 0.965410
C6    C     C_R   0.521582 0.521012 0.348496 0.933861
C7    C     C_R   0.458856 0.530287 0.737715 -0.324910
C8    C     C_R   0.534666 0.580690 0.267386 -0.320724
C9    C     C_R   0.555389 0.452706 0.789674 0.317852
C10   C     C_R   0.402954 0.653939 0.235578 0.341126
C11   C     C_R   0.538794 0.486585 0.870458 -0.283631
C12   C     C_R   0.416110 0.696851 0.156560 -0.358606
C13   C     C_R   0.419040 0.591248 0.899652 -0.184275
C14   C     C_R   0.555845 0.659467 0.106443 -0.128998
C15   C     C_R   0.298405 0.634130 0.849694 0.432930
C16   C     C_R   0.696333 0.606753 0.142396 0.438955
C17   C     C_R   0.333540 0.628433 0.768340 0.321773
C18   C     C_R   0.687808 0.593077 0.225391 0.298884
C19   C     C_2   0.416897 0.660030 0.979896 0.363965
C20   C     C_2   0.555918 0.667035 0.017990 0.407965
H1    H     H_    0.314631 0.758677 0.136813 0.244708
H2    H     H_    0.618505 0.431333 0.909736 0.219376
N1    N     N_1   0.926360 0.500000 0.499990 -0.015024
N2    N     N_1   0.073640 0.500000 0.500010 -0.001852
O1    O     O_R   0.363150 0.714660 0.500000 -0.601592
O2    O     O_R   0.636850 0.285340 0.500000 -0.601796
O3    O     O_R   0.636850 0.714660 0.500000 -0.641527
O4    O     O_R   0.363150 0.285340 0.500000 -0.621561
O5    O     O_R   0.346950 0.500000 0.615800 -0.595414
O6    O     O_R   0.653050 0.500000 0.384200 -0.601217
O7    O     O_R   0.620700 0.500000 0.615800 -0.574115
O8    O     O_R   0.379300 0.500000 0.384200 -0.563069
Zn1   Zn    Zn3+2 0.317220 0.500000 0.500010 1.041581
Zn2   Zn    Zn3+2 0.682780 0.500000 0.499990 1.023846
O9    O     O_3   0.138283 0.657791 0.878670 -0.614046
C21   C     C_3   0.077285 0.520656 0.908651 0.103028
H3    H     H_    0.962015 0.542716 0.943975 0.238368
H4    H     H_    0.157741 0.466430 0.950658 0.139691
C22   C     C_3   0.043847 0.414152 0.841802 -0.314845
H5    H     H_    0.946805 0.463342 0.807367 0.283582
H6    H     H_    0.154149 0.395833 0.800820 0.219957
C23   C     C_3   0.994794 0.263145 0.874584 -0.961009
H7    H     H_    0.092471 0.214928 0.908989 0.248169
H8    H     H_    0.980048 0.189275 0.823801 0.310174
H9    H     H_    0.878738 0.271620 0.912713 0.274537
O10   O     O_3   0.844262 0.588452 0.097732 -0.615781
C24   C     C_3   0.922318 0.449855 0.112855 0.105708
H10   H     H_    0.937996 0.387505 0.056215 0.145880
H11   H     H_    0.852352 0.375630 0.155509 0.110990
C25   C     C_3   0.089780 0.478912 0.142328 -0.269047
H12   H     H_    0.141594 0.575639 0.109852 0.273128
H13   H     H_    0.077424 0.504775 0.206344 0.295601
C26   C     C_3   0.208945 0.348255 0.129832 -1.009738
H14   H     H_    0.153349 0.244778 0.153978 0.278761
H15   H     H_    0.320140 0.368980 0.160937 0.276415
H16   H     H_    0.246212 0.337226 0.065782 0.254401
Cl1   Cl    Cl    0.691658 0.309867 0.755278 -0.704217
Cl2   Cl    Cl    0.232563 0.719630 0.295474 -0.675781
O11   O     O_3   0.827583 0.610051 0.264637 -0.622506
C27   C     C_3   0.821748 0.751135 0.302627 0.220620
H17   H     H_    0.908296 0.746502 0.349682 0.212063
H18   H     H_    0.700951 0.778844 0.334150 0.105708
C28   C     C_3   0.869334 0.876403 0.244032 -0.388642
H19   H     H_    0.986658 0.847127 0.210303 0.278975
H20   H     H_    0.774518 0.890901 0.201182 0.205924
C29   C     C_3   0.885997 0.023339 0.287132 -0.891692
H21   H     H_    0.769175 0.054879 0.321010 0.258923
H22   H     H_    0.917625 0.112445 0.243393 0.254138
H23   H     H_    0.984069 0.013879 0.328537 0.295047
O12   O     O_3   0.228677 0.701565 0.720321 -0.593596
C30   C     C_3   0.305862 0.828275 0.685945 0.142713
H24   H     H_    0.240432 0.859814 0.633194 0.186030
H25   H     H_    0.435665 0.805814 0.664570 0.095783
C31   C     C_3   0.295460 0.960222 0.743268 -0.424589
H26   H     H_    0.167818 0.978450 0.767094 0.239042
H27   H     H_    0.371200 0.936621 0.793373 0.199047
C32   C     C_3   0.354624 0.102266 0.702155 -0.849009
H28   H     H_    0.483240 0.087554 0.677704 0.283751
H29   H     H_    0.347192 0.194480 0.745700 0.274427
H30   H     H_    0.276889 0.132256 0.653464 0.264291
O13   O     O_3   0.703842 0.652795 0.973824 -0.655197
C33   C     C_3   0.752610 0.792705 0.943227 0.087662
H31   H     H_    0.885899 0.797831 0.946928 0.230426
H32   H     H_    0.698750 0.889372 0.978081 0.102610
C34   C     C_3   0.719355 0.806298 0.855632 -0.384483
H33   H     H_    0.773100 0.708476 0.822391 0.267872
H34   H     H_    0.586955 0.812627 0.849404 0.192446
C35   C     C_3   0.791429 0.945993 0.819089 -0.871932
H35   H     H_    0.734067 0.044732 0.849969 0.288245
H36   H     H_    0.769238 0.951899 0.755204 0.293451
H37   H     H_    0.924068 0.943304 0.825265 0.265061
O14   O     O_3   0.280179 0.743738 0.007254 -0.640488
C36   C     C_3   0.293959 0.891504 0.977678 0.126095
H38   H     H_    0.231299 0.903173 0.922230 0.179121
H39   H     H_    0.422217 0.926307 0.964110 0.056192
C37   C     C_3   0.215719 0.002822 0.037621 -0.371057
H40   H     H_    0.272432 0.992959 0.094827 0.224378
H41   H     H_    0.240667 0.115080 0.013541 0.174031
C38   C     C_3   0.031607 0.986474 0.050881 -0.849081
H42   H     H_    0.973315 0.017171 0.996044 0.237477
H43   H     H_    0.981962 0.062787 0.098540 0.235507
H44   H     H_    0.001007 0.870822 0.068297 0.307369

loop_
_geom_bond_atom_site_label_1
_geom_bond_atom_site_label_2
_ccdc_geom_bond_type
C29   H22   S    
C28   H20   S    
C36   H38   S    
C6    O8    A    
C19   C20   D    
O13   C33   S    
C24   H11   S    
C32   H28   S    
C31   H27   S    
C27   C28   S    
C21   H3    S    
C10   Cl2   S    
C26   H16   S    
C29   H23   S    
C37   C38   S    
O5    Zn1   S    
C27   H18   S    
C19   O14   S    
O2    Zn2   S    
O9    C21   S    
C7    C17   A    
C31   C32   S    
C37   H41   S    
C25   H13   S    
N1    N2    T    
O12   C30   S    
C22   C23   S    
C34   H34   S    
C29   H21   S    
C28   C29   S    
C17   O12   S    
C36   H39   S    
C20   O13   S    
C1    O1    A    
C23   H8    S    
C15   O9    S    
C24   C25   S    
C5    O5    A    
C26   H15   S    
O3    Zn2   S    
O7    Zn2   S    
C25   C26   S    
C31   H26   S    
O6    Zn2   S    
C14   C20   S    
C22   H6    S    
C16   O10   S    
C22   H5    S    
C30   H25   S    
C13   C19   S    
C6    C8    S    
C34   H33   S    
C12   H1    S    
C8    C18   A    
C27   H17   S    
C1    C3    S    
C23   H9    S    
C2    C4    S    
C24   H10   S    
C35   H37   S    
N1    Zn2   S    
C37   H40   S    
C25   H12   S    
C32   H29   S    
C2    O2    A    
C9    C11   A    
C10   C12   A    
C8    C10   A    
C6    O6    A    
C35   H36   S    
O4    Zn1   S    
C36   C37   S    
C33   H32   S    
C13   C15   A    
C14   C16   A    
C23   H7    S    
C3    C4    T    
C34   C35   S    
C5    C7    S    
C32   H30   S    
C15   C17   A    
O10   C24   S    
C38   H43   S    
C21   C22   S    
C12   C14   A    
C30   C31   S    
C26   H14   S    
C33   C34   S    
C11   H2    S    
N2    Zn1   S    
C38   H42   S    
O8    Zn1   S    
C21   H4    S    
C30   H24   S    
C11   C13   A    
O14   C36   S    
C9    Cl1   S    
C28   H19   S    
C7    C9    A    
C18   O11   S    
O11   C27   S    
C38   H44   S    
C35   H35   S    
C16   C18   A    
C33   H31   S    
C1    O3    A    
C2    O4    A    
O1    Zn1   S    
C5    O7    A    
