data_mof_unit_53368.cif
_audit_creation_date              2012-12-11T17:07:55-0500
_audit_creation_method            fapswitch 2.2
_symmetry_space_group_name_H-M    P1
_symmetry_Int_Tables_number       1
_space_group_crystal_system       triclinic
_cell_length_a                    17.070265
_cell_length_b                    17.214018
_cell_length_c                    17.252715
_cell_angle_alpha                 90.000214
_cell_angle_beta                  90.000064
_cell_angle_gamma                 89.999249
_cell_volume                      5069.67319125

loop_
_atom_site_label
_atom_site_type_symbol
_atom_type_description
_atom_site_fract_x
_atom_site_fract_y
_atom_site_fract_z
_atom_type_partial_charge
C1    C     C_R   0.394423 0.302517 0.897687 -0.146000
C2    C     C_R   0.167192 0.925966 0.354430 -0.155615
C3    C     C_R   0.681555 0.770492 0.349240 -0.207841
C4    C     C_R   0.134869 0.221861 0.803271 -0.187906
C5    C     C_R   0.318442 0.770478 0.650752 -0.207860
C6    C     C_R   0.865132 0.778122 0.803255 -0.187840
C7    C     C_R   0.681553 0.229481 0.650793 -0.207830
C8    C     C_R   0.634859 0.278123 0.696742 -0.187855
C9    C     C_R   0.818443 0.729483 0.849208 -0.207839
C10   C     C_R   0.365126 0.721839 0.696716 -0.187914
C11   C     C_R   0.181553 0.270498 0.849235 -0.207832
C12   C     C_R   0.634872 0.721855 0.303274 -0.187927
C13   C     C_R   0.105574 0.197481 0.397675 -0.145941
C14   C     C_R   0.818441 0.270472 0.150748 -0.207868
C15   C     C_R   0.365138 0.278110 0.303247 -0.187813
C16   C     C_R   0.181550 0.729467 0.150804 -0.207810
C17   C     C_3   0.898809 0.278973 0.774797 -0.399225
C18   C     C_3   0.839035 0.231824 0.822817 -0.205316
C19   C     C_3   0.880347 0.181838 0.883347 -0.939519
C20   C     C_3   0.663394 0.984366 0.770568 -0.414951
C21   C     C_3   0.678556 0.004912 0.856183 -0.195839
C22   C     C_3   0.650031 0.086965 0.874667 -0.964408
C23   C     C_3   0.101250 0.721253 0.774893 -0.399214
C24   C     C_R   0.832801 0.074034 0.354437 -0.155638
C25   C     C_3   0.161100 0.768374 0.822849 -0.205248
C26   C     C_3   0.119866 0.818528 0.883292 -0.939555
C27   C     C_3   0.336690 0.015705 0.770455 -0.414963
C28   C     C_3   0.321501 0.995101 0.856050 -0.195799
C29   C     C_3   0.350112 0.913072 0.874509 -0.964548
C30   C     C_3   0.898759 0.721206 0.225136 -0.399233
C31   C     C_3   0.838921 0.768334 0.177170 -0.205215
C32   C     C_3   0.880164 0.818426 0.116683 -0.939565
C33   C     C_3   0.663225 0.015770 0.229685 -0.414990
C34   C     C_3   0.678360 0.995113 0.144094 -0.195801
C35   C     C_R   0.894425 0.197482 0.602327 -0.145961
C36   C     C_3   0.649722 0.913079 0.125700 -0.964561
C37   C     C_3   0.101168 0.279017 0.225231 -0.399208
C38   C     C_3   0.160925 0.231866 0.177189 -0.205360
C39   C     C_3   0.119591 0.181893 0.116664 -0.939541
C40   C     C_3   0.336518 0.984424 0.229317 -0.414934
C41   C     C_3   0.321358 0.004912 0.143687 -0.195847
C42   C     C_3   0.349845 0.086967 0.125157 -0.964351
C43   C     C_3   0.398827 0.779045 0.274763 -0.399219
C44   C     C_3   0.339077 0.731892 0.322807 -0.205350
C45   C     C_3   0.380415 0.681942 0.383349 -0.939530
C46   C     C_R   0.167204 0.074040 0.645562 -0.155626
C47   C     C_3   0.163453 0.484406 0.270652 -0.414935
C48   C     C_3   0.178609 0.504907 0.356279 -0.195853
C49   C     C_3   0.150135 0.586972 0.374791 -0.964356
C50   C     C_3   0.601259 0.221284 0.274908 -0.399222
C51   C     C_3   0.661119 0.268404 0.322854 -0.205231
C52   C     C_3   0.619896 0.318572 0.383292 -0.939544
C53   C     C_3   0.836718 0.515725 0.270414 -0.414972
C54   C     C_3   0.821526 0.495099 0.356003 -0.195794
C55   C     C_3   0.850158 0.413074 0.374447 -0.964570
C56   C     C_3   0.398767 0.221172 0.725152 -0.399227
C57   C     C_R   0.105575 0.802517 0.602316 -0.146020
C58   C     C_3   0.338940 0.268302 0.677175 -0.205231
C59   C     C_3   0.380196 0.318379 0.616684 -0.939574
C60   C     C_3   0.163251 0.515751 0.729647 -0.414983
C61   C     C_3   0.178383 0.495116 0.644050 -0.195806
C62   C     C_3   0.149766 0.413077 0.625643 -0.964536
C63   C     C_3   0.601186 0.778946 0.725197 -0.399214
C64   C     C_3   0.660966 0.731800 0.677179 -0.205326
C65   C     C_3   0.619659 0.681790 0.616666 -0.939528
C66   C     C_3   0.836578 0.484382 0.729402 -0.414951
C67   C     C_3   0.821411 0.504916 0.643785 -0.195833
C68   C     C_R   0.832796 0.925960 0.645563 -0.155610
C69   C     C_3   0.849950 0.586960 0.625283 -0.964406
C70   C     C_3   0.864209 0.337867 0.715471 -0.123832
C71   C     C_3   0.685863 0.900313 0.746390 -0.129421
C72   C     C_3   0.135757 0.662269 0.715602 -0.123837
C73   C     C_R   0.667194 0.425966 0.854432 -0.155621
C74   C     C_3   0.314163 0.099753 0.746317 -0.129391
C75   C     C_3   0.864236 0.662241 0.284435 -0.123864
C76   C     C_3   0.685809 0.099817 0.253770 -0.129355
C77   C     C_3   0.135790 0.337893 0.284561 -0.123812
C78   C     C_3   0.314099 0.900372 0.253539 -0.129449
C79   C     C_3   0.364198 0.837910 0.215425 -0.123818
C80   C     C_3   0.185883 0.400353 0.246441 -0.129438
C81   C     C_3   0.635752 0.162288 0.215623 -0.123848
C82   C     C_3   0.814173 0.599773 0.246292 -0.129384
C83   C     C_3   0.364231 0.162220 0.784456 -0.123854
C84   C     C_R   0.605574 0.697482 0.897677 -0.145965
C85   C     C_3   0.185818 0.599799 0.753746 -0.129362
C86   C     C_3   0.635778 0.837851 0.784517 -0.123826
C87   C     C_3   0.814119 0.400331 0.753591 -0.129432
C88   C     C_R   0.420367 0.670042 0.855109 -0.121444
C89   C     C_R   0.302155 0.393029 0.896128 -0.157918
C90   C     C_R   0.579624 0.329962 0.855107 -0.121400
C91   C     C_R   0.697842 0.606969 0.896120 -0.157984
C92   C     C_R   0.420375 0.329960 0.144891 -0.121408
C93   C     C_R   0.302159 0.606968 0.103886 -0.157985
C94   C     C_R   0.579635 0.670046 0.144888 -0.121425
C95   C     C_R   0.332801 0.574035 0.854436 -0.155633
C96   C     C_R   0.697844 0.393027 0.103874 -0.157916
C97   C     C_R   0.920365 0.170043 0.355110 -0.121441
C98   C     C_R   0.802155 0.893028 0.396129 -0.157912
C99   C     C_R   0.079621 0.829963 0.355107 -0.121383
C100  C     C_R   0.197841 0.106968 0.396118 -0.158006
C101  C     C_R   0.920373 0.829959 0.644891 -0.121426
C102  C     C_R   0.802159 0.106969 0.603884 -0.157966
C103  C     C_R   0.079633 0.170045 0.644888 -0.121427
C104  C     C_R   0.197844 0.893027 0.603876 -0.157923
C105  C     C_R   0.317461 0.316098 0.878984 0.083196
C106  C     C_R   0.394425 0.697481 0.102329 -0.145938
C107  C     C_R   0.637445 0.366093 0.810677 0.059732
C108  C     C_R   0.682534 0.683899 0.878968 0.083164
C109  C     C_R   0.362542 0.633910 0.810685 0.059728
C110  C     C_R   0.317465 0.683898 0.121040 0.083140
C111  C     C_R   0.637462 0.633916 0.189313 0.059724
C112  C     C_R   0.682536 0.316097 0.121019 0.083223
C113  C     C_R   0.362549 0.366087 0.189319 0.059739
C114  C     C_R   0.817461 0.816098 0.378985 0.083197
C115  C     C_R   0.137441 0.866093 0.310675 0.059735
C116  C     C_R   0.182534 0.183898 0.378964 0.083156
C117  C     C_R   0.667205 0.574040 0.145561 -0.155630
C118  C     C_R   0.862541 0.133911 0.310686 0.059726
C119  C     C_R   0.817465 0.183899 0.621037 0.083147
C120  C     C_R   0.137459 0.133916 0.689314 0.059727
C121  C     C_R   0.182536 0.816097 0.621020 0.083222
C122  C     C_R   0.862545 0.866087 0.689317 0.059736
C123  C     C_R   0.743696 0.366348 0.711759 0.079642
C124  C     C_R   0.709115 0.814149 0.826531 0.066796
C125  C     C_R   0.256242 0.633683 0.711832 0.079601
C126  C     C_R   0.290899 0.185866 0.826512 0.066772
C127  C     C_R   0.743746 0.633680 0.288185 0.079614
C128  C     C_R   0.605575 0.302517 0.102315 -0.146032
C129  C     C_R   0.709076 0.185881 0.173525 0.066765
C130  C     C_R   0.256309 0.366348 0.288251 0.079649
C131  C     C_R   0.290858 0.814165 0.173441 0.066800
C132  C     C_R   0.243675 0.866357 0.211735 0.079658
C133  C     C_R   0.209131 0.314159 0.326551 0.066797
C134  C     C_R   0.756233 0.133687 0.211843 0.079596
C135  C     C_R   0.790907 0.685871 0.326502 0.066778
C136  C     C_R   0.243736 0.133676 0.788197 0.079620
C137  C     C_R   0.209082 0.685876 0.673516 0.066760
C138  C     C_R   0.756288 0.866340 0.788228 0.079634
C139  C     C_R   0.332798 0.425960 0.145564 -0.155605
C140  C     C_R   0.790873 0.314155 0.673461 0.066799
C141  C     C_R   0.669094 0.341393 0.736058 0.027291
C142  C     C_R   0.737426 0.743453 0.854344 0.031289
C143  C     C_R   0.330872 0.658609 0.736076 0.027315
C144  C     C_R   0.262574 0.256543 0.854356 0.031291
C145  C     C_R   0.669125 0.658616 0.263923 0.027293
C146  C     C_R   0.737416 0.256538 0.145650 0.031299
C147  C     C_R   0.330904 0.341385 0.263939 0.027286
C148  C     C_R   0.262564 0.743451 0.145656 0.031274
C149  C     C_R   0.169082 0.841392 0.236051 0.027281
C150  C     C_R   0.894423 0.802516 0.397688 -0.146012
C151  C     C_R   0.237431 0.243450 0.354345 0.031278
C152  C     C_R   0.830867 0.158609 0.236079 0.027318
C153  C     C_R   0.762576 0.756542 0.354356 0.031295
C154  C     C_R   0.169119 0.158616 0.763927 0.027290
C155  C     C_R   0.237418 0.756539 0.645650 0.031295
C156  C     C_R   0.830893 0.841386 0.763933 0.027296
C157  C     C_R   0.762569 0.243454 0.645656 0.031284
C158  C     C_R   0.134854 0.778111 0.196749 -0.187826
C159  C     C_R   0.318445 0.229469 0.349197 -0.207818
C160  C     C_R   0.865124 0.221834 0.196713 -0.187935
H1    H     H_    0.422246 0.246661 0.905020 0.089081
H2    H     H_    0.208371 0.969171 0.336626 0.108968
H3    H     H_    0.679761 0.869908 0.163201 0.267998
H4    H     H_    0.585454 0.908794 0.134952 0.257010
H5    H     H_    0.662681 0.899058 0.064190 0.249832
H6    H     H_    0.647675 0.036594 0.105267 0.185603
H7    H     H_    0.742197 0.998077 0.131756 0.197634
H8    H     H_    0.696151 0.974021 0.266280 0.180629
H9    H     H_    0.600102 0.007053 0.243081 0.187746
H10   H     H_    0.078367 0.140950 0.145209 0.267205
H11   H     H_    0.086728 0.219126 0.075329 0.261485
H12   H     H_    0.163670 0.147738 0.083772 0.257503
H13   H     H_    0.077753 0.253337 0.405009 0.089064
H14   H     H_    0.202794 0.270576 0.146799 0.193344
H15   H     H_    0.194850 0.192556 0.215357 0.205140
H16   H     H_    0.062795 0.237626 0.256245 0.184966
H17   H     H_    0.062645 0.312085 0.185073 0.182413
H18   H     H_    0.319726 0.130147 0.162584 0.267987
H19   H     H_    0.414105 0.091385 0.134403 0.257005
H20   H     H_    0.336863 0.100861 0.063621 0.249775
H21   H     H_    0.352125 0.963426 0.104929 0.185601
H22   H     H_    0.257529 0.001809 0.131343 0.197628
H23   H     H_    0.303491 0.026162 0.265838 0.180710
H24   H     H_    0.791609 0.030838 0.336638 0.109042
H25   H     H_    0.399621 0.993288 0.242711 0.187748
H26   H     H_    0.421658 0.641006 0.354819 0.267205
H27   H     H_    0.413259 0.719193 0.424683 0.261476
H28   H     H_    0.336341 0.647780 0.416239 0.257501
H29   H     H_    0.297193 0.770599 0.353183 0.193351
H30   H     H_    0.305167 0.692565 0.284643 0.205136
H31   H     H_    0.437207 0.737656 0.243754 0.184955
H32   H     H_    0.437344 0.812122 0.314918 0.182421
H33   H     H_    0.180271 0.630139 0.337363 0.267987
H34   H     H_    0.085877 0.591404 0.365531 0.257000
H35   H     H_    0.922246 0.253337 0.594994 0.089077
H36   H     H_    0.163107 0.600873 0.436327 0.249784
H37   H     H_    0.147830 0.463435 0.395041 0.185579
H38   H     H_    0.242436 0.501795 0.368630 0.197637
H39   H     H_    0.196474 0.526143 0.234126 0.180712
H40   H     H_    0.100349 0.493263 0.257257 0.187737
H41   H     H_    0.578762 0.359553 0.354674 0.267202
H42   H     H_    0.586952 0.281482 0.424691 0.261536
H43   H     H_    0.664051 0.352690 0.416123 0.257452
H44   H     H_    0.702913 0.229665 0.353310 0.193315
H45   H     H_    0.695120 0.307577 0.284616 0.205181
H46   H     H_    0.208397 0.030843 0.663360 0.109015
H47   H     H_    0.562919 0.262693 0.243871 0.185069
H48   H     H_    0.562720 0.188319 0.315134 0.182380
H49   H     H_    0.820211 0.369893 0.336886 0.268003
H50   H     H_    0.914446 0.408812 0.365320 0.257010
H51   H     H_    0.837081 0.399045 0.435933 0.249828
H52   H     H_    0.852180 0.536596 0.394837 0.185616
H53   H     H_    0.757680 0.498065 0.368294 0.197632
H54   H     H_    0.803795 0.473979 0.233812 0.180621
H55   H     H_    0.899846 0.506981 0.257054 0.187770
H56   H     H_    0.421380 0.359341 0.645258 0.267206
H57   H     H_    0.077751 0.746662 0.594986 0.089077
H58   H     H_    0.413089 0.281222 0.575305 0.261512
H59   H     H_    0.336065 0.352515 0.583840 0.257449
H60   H     H_    0.297106 0.229574 0.646760 0.193329
H61   H     H_    0.304980 0.307539 0.715386 0.205165
H62   H     H_    0.437120 0.262576 0.756178 0.185024
H63   H     H_    0.437299 0.188168 0.684950 0.182399
H64   H     H_    0.179825 0.369907 0.663128 0.267997
H65   H     H_    0.085502 0.408771 0.634906 0.257010
H66   H     H_    0.162717 0.399074 0.564127 0.249821
H67   H     H_    0.147682 0.536595 0.605233 0.185599
H68   H     H_    0.791605 0.969158 0.663360 0.108981
H69   H     H_    0.242217 0.498099 0.631705 0.197634
H70   H     H_    0.196191 0.474004 0.766231 0.180642
H71   H     H_    0.100131 0.507018 0.743047 0.187743
H72   H     H_    0.578448 0.640841 0.645221 0.267201
H73   H     H_    0.586787 0.718996 0.575314 0.261496
H74   H     H_    0.663756 0.647640 0.583791 0.257486
H75   H     H_    0.702825 0.770515 0.646780 0.193339
H76   H     H_    0.694902 0.692515 0.715363 0.205152
H77   H     H_    0.562820 0.737552 0.756217 0.184985
H78   H     H_    0.562660 0.811990 0.685023 0.182411
H79   H     H_    0.909721 0.361534 0.675907 0.119163
H80   H     H_    0.819879 0.630144 0.662744 0.267990
H81   H     H_    0.914218 0.591327 0.634502 0.257005
H82   H     H_    0.836951 0.600894 0.563759 0.249793
H83   H     H_    0.852141 0.463425 0.605004 0.185610
H84   H     H_    0.757577 0.501861 0.631457 0.197628
H85   H     H_    0.803583 0.526123 0.765948 0.180682
H86   H     H_    0.899688 0.493208 0.742787 0.187757
H87   H     H_    0.687149 0.894410 0.682394 0.131748
H88   H     H_    0.090196 0.638605 0.676091 0.119152
H89   H     H_    0.708376 0.469169 0.836629 0.108988
H90   H     H_    0.312846 0.105681 0.682325 0.131759
H91   H     H_    0.909785 0.638575 0.323959 0.119165
H92   H     H_    0.687164 0.105775 0.317760 0.131763
H93   H     H_    0.090289 0.361561 0.324138 0.119154
H94   H     H_    0.312837 0.894495 0.317536 0.131744
H95   H     H_    0.409694 0.861577 0.175845 0.119159
H96   H     H_    0.187149 0.394469 0.182444 0.131740
H97   H     H_    0.590184 0.138624 0.176118 0.119153
H98   H     H_    0.812846 0.605710 0.182300 0.131763
H99   H     H_    0.409773 0.138554 0.823989 0.119165
H100  H     H_    0.577751 0.753338 0.905010 0.089065
H101  H     H_    0.187164 0.605748 0.817737 0.131759
H102  H     H_    0.590263 0.861519 0.824077 0.119157
H103  H     H_    0.812837 0.394435 0.817587 0.131753
H104  H     H_    0.455658 0.719559 0.839454 0.087664
H105  H     H_    0.245128 0.420054 0.899885 0.081385
H106  H     H_    0.544323 0.280452 0.839452 0.087637
H107  H     H_    0.754868 0.579943 0.899873 0.081413
H108  H     H_    0.455682 0.280453 0.160548 0.087626
H109  H     H_    0.245134 0.579941 0.100134 0.081416
H110  H     H_    0.544344 0.719565 0.160539 0.087670
H111  H     H_    0.291611 0.530838 0.836637 0.109032
H112  H     H_    0.754872 0.420050 0.100124 0.081383
H113  H     H_    0.955653 0.219562 0.339456 0.087666
H114  H     H_    0.745128 0.920053 0.399886 0.081379
H115  H     H_    0.044318 0.780454 0.339452 0.087621
H116  H     H_    0.254867 0.079940 0.399871 0.081426
H117  H     H_    0.955677 0.780450 0.660548 0.087643
H118  H     H_    0.745132 0.079943 0.600131 0.081404
H119  H     H_    0.044339 0.219562 0.660541 0.087667
H120  H     H_    0.254871 0.920051 0.600125 0.081389
H121  H     H_    0.075347 0.760398 0.208857 0.123865
H122  H     H_    0.422245 0.753337 0.094995 0.089076
H123  H     H_    0.344143 0.177110 0.372738 0.122805
H124  H     H_    0.924652 0.239507 0.208777 0.123969
H125  H     H_    0.655843 0.822826 0.372820 0.122849
H126  H     H_    0.075350 0.239549 0.791188 0.123946
H127  H     H_    0.344156 0.822805 0.627160 0.122845
H128  H     H_    0.924645 0.760420 0.791158 0.123870
H129  H     H_    0.655854 0.177127 0.627243 0.122817
H130  H     H_    0.575348 0.260419 0.708840 0.123887
H131  H     H_    0.844145 0.677131 0.872762 0.122815
H132  H     H_    0.424652 0.739516 0.708785 0.123947
H133  H     H_    0.708399 0.530844 0.163359 0.109025
H134  H     H_    0.155844 0.322836 0.872809 0.122845
H135  H     H_    0.575350 0.739539 0.291196 0.123968
H136  H     H_    0.844157 0.322796 0.127149 0.122850
H137  H     H_    0.424646 0.260399 0.291141 0.123849
H138  H     H_    0.155856 0.677106 0.127267 0.122807
H139  H     H_    0.921577 0.140896 0.854808 0.267201
H140  H     H_    0.913199 0.219062 0.924698 0.261487
H141  H     H_    0.836255 0.147682 0.916220 0.257485
H142  H     H_    0.797161 0.270536 0.853201 0.193346
H143  H     H_    0.805116 0.192522 0.784636 0.205147
H144  H     H_    0.577751 0.246662 0.094986 0.089071
H145  H     H_    0.937182 0.237581 0.743782 0.184975
H146  H     H_    0.937329 0.312026 0.814969 0.182420
H147  H     H_    0.680121 0.130136 0.837207 0.267990
H148  H     H_    0.585767 0.091348 0.865433 0.257000
H149  H     H_    0.663020 0.100905 0.936192 0.249801
H150  H     H_    0.647813 0.963434 0.894968 0.185587
H151  H     H_    0.742388 0.001846 0.868519 0.197637
H152  H     H_    0.696384 0.026105 0.734018 0.180684
H153  H     H_    0.600283 0.993185 0.757181 0.187746
H154  H     H_    0.078728 0.859507 0.854675 0.267203
H155  H     H_    0.291610 0.469160 0.163363 0.108962
H156  H     H_    0.086924 0.781428 0.924683 0.261533
H157  H     H_    0.164013 0.852648 0.916130 0.257459
H158  H     H_    0.202897 0.729637 0.853303 0.193317
H159  H     H_    0.195099 0.807557 0.784619 0.205177
H160  H     H_    0.062908 0.762660 0.743859 0.185060
H161  H     H_    0.062713 0.688277 0.815112 0.182382
H162  H     H_    0.320146 0.869891 0.836963 0.268002
H163  H     H_    0.414397 0.908790 0.865371 0.257011
H164  H     H_    0.337042 0.899062 0.936000 0.249817
H165  H     H_    0.352168 0.036597 0.894873 0.185613
H166  H     H_    0.922246 0.746661 0.405021 0.089076
H167  H     H_    0.257657 0.998086 0.868347 0.197632
H168  H     H_    0.303754 0.973960 0.733865 0.180633
H169  H     H_    0.399815 0.006944 0.757092 0.187767
H170  H     H_    0.921344 0.859390 0.145259 0.267205
H171  H     H_    0.913059 0.781279 0.075296 0.261516
H172  H     H_    0.836025 0.852559 0.083847 0.257443
H173  H     H_    0.797090 0.729604 0.146753 0.193327
H174  H     H_    0.804959 0.807561 0.215389 0.205169
H175  H     H_    0.937109 0.762611 0.256164 0.185033
H176  H     H_    0.937292 0.688213 0.184925 0.182396
N1    N     N_R   0.425360 0.368540 0.922560 -0.037473
N2    N     N_R   0.131460 0.925360 0.422560 -0.038816
N3    N     N_R   0.074640 0.131460 0.422560 -0.037467
N4    N     N_R   0.868540 0.074640 0.422560 -0.038826
N5    N     N_R   0.925360 0.131460 0.577440 -0.037469
N6    N     N_R   0.131460 0.074640 0.577440 -0.038821
N7    N     N_R   0.074640 0.868540 0.577440 -0.037473
N8    N     N_R   0.868540 0.925360 0.577440 -0.038817
N9    N     N_R   0.425340 0.631500 0.922560 -0.038238
N10   N     N_R   0.368500 0.425340 0.922560 -0.035403
N11   N     N_R   0.574660 0.368500 0.922560 -0.038236
N12   N     N_R   0.631460 0.425360 0.922560 -0.038818
N13   N     N_R   0.631500 0.574660 0.922560 -0.035396
N14   N     N_R   0.425340 0.368500 0.077440 -0.038234
N15   N     N_R   0.368500 0.574660 0.077440 -0.035396
N16   N     N_R   0.574660 0.631500 0.077440 -0.038241
N17   N     N_R   0.631500 0.425340 0.077440 -0.035402
N18   N     N_R   0.925340 0.131500 0.422560 -0.038238
N19   N     N_R   0.868500 0.925340 0.422560 -0.035403
N20   N     N_R   0.074660 0.868500 0.422560 -0.038237
N21   N     N_R   0.131500 0.074660 0.422560 -0.035395
N22   N     N_R   0.925340 0.868500 0.577440 -0.038233
N23   N     N_R   0.574640 0.631460 0.922560 -0.037467
N24   N     N_R   0.868500 0.074660 0.577440 -0.035397
N25   N     N_R   0.074660 0.131500 0.577440 -0.038241
N26   N     N_R   0.131500 0.925340 0.577440 -0.035402
N27   N     N_R   0.368540 0.574640 0.922560 -0.038825
N28   N     N_R   0.425360 0.631460 0.077440 -0.037468
N29   N     N_R   0.631460 0.574640 0.077440 -0.038822
N30   N     N_R   0.574640 0.368540 0.077440 -0.037473
N31   N     N_R   0.368540 0.425360 0.077440 -0.038816
N32   N     N_R   0.925360 0.868540 0.422560 -0.037473
Ni1   Ni    Ni4+2 0.500000 0.369720 0.000000 0.209774
Ni2   Ni    Ni4+2 0.630280 0.500000 0.000000 0.206090
Ni3   Ni    Ni4+2 0.500000 0.630280 0.000000 0.209767
Ni4   Ni    Ni4+2 0.369720 0.500000 0.000000 0.206091
Ni5   Ni    Ni4+2 1.000000 0.869720 0.500000 0.209774
Ni6   Ni    Ni4+2 0.130280 1.000000 0.500000 0.206096
Ni7   Ni    Ni4+2 1.000000 0.130280 0.500000 0.209767
Ni8   Ni    Ni4+2 0.869720 1.000000 0.500000 0.206086

loop_
_geom_bond_atom_site_label_1
_geom_bond_atom_site_label_2
_ccdc_geom_bond_type
C11   H134  S    
C70   C140  S    
C53   H54   S    
C24   H24   S    
C133  C151  A    
C71   H87   S    
C74   C83   S    
C104  H120  S    
C108  C142  S    
N18   Ni7   S    
C13   H13   S    
C26   H154  S    
C61   H67   S    
C95   N27   A    
C30   H175  S    
C90   C107  A    
C66   H86   S    
C69   H82   S    
C2    N2    A    
C94   C111  A    
C22   H148  S    
C52   H41   S    
C39   H11   S    
C44   H30   S    
N19   Ni8   S    
C99   N20   A    
C73   N12   A    
C42   H20   S    
C74   C136  S    
C32   H172  S    
N16   Ni3   S    
N31   Ni4   S    
C121  C155  S    
C93   C110  A    
C23   H161  S    
C126  C136  A    
C29   H163  S    
C21   C22   S    
C106  N28   A    
C91   H107  S    
C16   C158  A    
C51   C52   S    
C65   H74   S    
C64   H75   S    
C95   C109  A    
C9    H131  S    
C10   H132  S    
C5    C155  A    
C27   H168  S    
N11   Ni1   S    
C117  H133  S    
C53   C82   S    
N23   Ni3   S    
C43   C44   S    
C37   C38   S    
C55   H49   S    
C81   C129  S    
N4    Ni8   S    
C123  C141  A    
C104  N26   A    
N6    Ni6   S    
N5    N24   A    
C127  C145  A    
C88   C109  A    
C21   H150  S    
C41   H22   S    
C33   H8    S    
C114  C150  A    
C83   C126  S    
C34   H7    S    
C76   H92   S    
C51   H44   S    
C56   C83   S    
C25   H159  S    
C124  C138  A    
C80   H96   S    
C65   H72   S    
C160  H124  S    
N2    N20   A    
C23   C72   S    
C57   C121  A    
C63   H77   S    
C67   H84   S    
C68   H68   S    
C7    C157  A    
C62   H65   S    
C101  C122  A    
C52   H43   S    
C72   H88   S    
C89   N10   A    
N17   N30   A    
N7    N26   A    
C42   H18   S    
N19   N32   A    
C98   C114  A    
C92   H108  S    
C93   H109  S    
C20   C21   S    
C15   H137  S    
C86   H102  S    
C102  C119  A    
C50   C81   S    
C1    C105  A    
C37   H16   S    
C99   H115  S    
C56   H62   S    
C91   N13   A    
C60   H71   S    
C101  H117  S    
C2    H2    S    
C6    C9    A    
C72   C85   S    
C7    C8    A    
C53   C54   S    
C102  N24   A    
C38   C39   S    
C68   N8    A    
C38   H14   S    
C16   H138  S    
C137  C155  A    
C31   H174  S    
N3    Ni7   S    
C78   C132  S    
C98   H114  S    
C58   H60   S    
C28   H165  S    
C17   H146  S    
C36   H3    S    
C113  C139  A    
C8    C141  A    
N10   Ni4   S    
C107  C141  S    
C149  C158  A    
C13   N3    A    
C40   H23   S    
C12   H135  S    
C54   H52   S    
C66   C67   S    
C24   N4    A    
N26   Ni6   S    
C47   H39   S    
C90   N11   A    
C47   C80   S    
C110  C148  S    
C70   C87   S    
C58   H61   S    
C97   N18   A    
C73   H89   S    
C77   H93   S    
C84   N23   A    
C45   H27   S    
C25   C26   S    
C48   H38   S    
C106  H122  S    
C151  C159  A    
C12   C145  A    
C71   C86   S    
C61   H69   S    
C31   C32   S    
C119  C157  S    
C79   C131  S    
C18   H143  S    
C115  C149  S    
C120  C154  S    
C17   C18   S    
C46   C120  A    
C20   C71   S    
C118  C152  S    
N30   Ni1   S    
C139  H155  S    
N1    N10   A    
C43   H32   S    
C86   C124  S    
N6    N25   A    
N2    Ni6   S    
C139  N31   A    
C87   H103  S    
C88   H104  S    
C36   H4    S    
C46   H46   S    
C54   C55   S    
C72   C137  S    
C130  C147  A    
C56   H63   S    
N8    N22   A    
C9    C142  A    
C51   H45   S    
C75   C82   S    
C37   H17   S    
N16   N29   A    
C111  C117  A    
N4    N18   A    
C87   C123  S    
C69   H81   S    
C125  C143  A    
C126  C144  A    
C36   H5    S    
C56   C58   S    
C22   H149  S    
C52   H42   S    
C61   C62   S    
C63   C64   S    
C89   C105  A    
C40   H25   S    
C24   C118  A    
N12   Ni2   S    
C116  C151  S    
C6    C156  A    
C50   H48   S    
C4    C154  A    
N9    Ni3   S    
C41   C42   S    
C103  C120  A    
C100  C116  A    
C33   H9    S    
C96   N17   A    
C105  C144  S    
C92   N14   A    
C94   N16   A    
C100  H116  S    
C60   H70   S    
N28   Ni3   S    
C65   H73   S    
C28   C29   S    
C127  C135  A    
C64   H76   S    
C99   C115  A    
C30   C31   S    
C75   C135  S    
C73   C107  A    
C28   H167  S    
C82   H98   S    
C49   H34   S    
C94   H110  S    
N14   N31   A    
C19   H140  S    
C18   C19   S    
C35   C119  A    
C150  H166  S    
C159  H123  S    
C83   H99   S    
C92   C113  A    
C35   H35   S    
C1    H1    S    
C53   H55   S    
C132  C149  A    
C41   H21   S    
C75   H91   S    
C71   C138  S    
C25   H158  S    
C14   H136  S    
C29   H162  S    
C68   C122  A    
N11   N12   A    
C67   H83   S    
C59   H56   S    
C125  C137  A    
C20   H153  S    
C62   H66   S    
C37   C77   S    
C4    H126  S    
C60   C61   S    
C46   N6    A    
C6    H128  S    
C15   C159  A    
C39   H12   S    
C44   H29   S    
C136  C154  A    
C2    C115  A    
C42   H19   S    
C134  C152  A    
C32   H171  S    
C50   C51   S    
C117  N29   A    
C109  C143  S    
C4    C11   A    
C129  C146  A    
C48   C49   S    
C63   C86   S    
C40   C78   S    
C130  C133  A    
C131  C132  A    
C44   C45   S    
C77   C80   S    
C3    H125  S    
C76   C134  S    
N3    N21   A    
C122  C156  S    
C91   C108  A    
C59   H58   S    
C60   C85   S    
C95   H111  S    
C49   H36   S    
C64   C65   S    
C113  C147  S    
C58   C59   S    
C30   H176  S    
C93   N15   A    
C27   H169  S    
C55   H50   S    
C15   C147  A    
C30   C75   S    
C7    H129  S    
C38   H15   S    
C57   H57   S    
C84   C108  A    
C112  C146  S    
C31   H173  S    
N13   Ni2   S    
C69   H80   S    
N27   Ni4   S    
C112  C128  A    
C13   C116  A    
N15   N28   A    
C128  N30   A    
C129  C134  A    
C17   H145  S    
C21   H151  S    
C22   H147  S    
N20   Ni5   S    
C5    H127  S    
N17   Ni2   S    
C34   H6    S    
C66   H85   S    
C54   H53   S    
C152  C160  A    
C29   H164  S    
C85   C125  S    
C103  H119  S    
N13   N23   A    
C63   H78   S    
C103  N25   A    
C8    H130  S    
C96   C112  A    
N21   Ni6   S    
C23   H160  S    
C90   H106  S    
C150  N32   A    
N7    Ni5   S    
C39   H10   S    
C111  C145  S    
N32   Ni5   S    
C45   H26   S    
C128  H144  S    
C43   C79   S    
C3    C153  A    
C97   C118  A    
N5    Ni7   S    
C3    C12   A    
C158  H121  S    
C19   H141  S    
N8    Ni8   S    
C27   C74   S    
C11   C144  A    
C114  C153  S    
C34   C36   S    
C50   H47   S    
C43   H31   S    
C17   C70   S    
C35   N5    A    
C124  C142  A    
C77   C133  S    
C102  H118  S    
C100  N21   A    
C74   H90   S    
N14   Ni1   S    
C80   C130  S    
C78   H94   S    
C88   N9    A    
C98   N19   A    
C66   C87   S    
C78   C79   S    
C104  C121  A    
C26   H156  S    
C123  C140  A    
C14   C160  A    
C67   C69   S    
C101  N22   A    
C140  C157  A    
C33   C76   S    
C47   C48   S    
N15   Ni4   S    
C20   H152  S    
N9    N27   A    
C33   C34   S    
C131  C148  A    
N22   Ni5   S    
N29   Ni2   S    
C40   C41   S    
C26   H157  S    
C62   H64   S    
C32   H170  S    
C47   H40   S    
C70   H79   S    
C1    N1    A    
C106  C110  A    
C138  C156  A    
C84   H100  S    
C85   H101  S    
C76   C81   S    
C45   H28   S    
C96   H112  S    
C14   C146  A    
C81   H97   S    
C135  C153  A    
C48   H37   S    
C16   C148  A    
C5    C10   A    
C59   H59   S    
C49   H33   S    
C18   H142  S    
C89   H105  S    
C19   H139  S    
C10   C143  A    
C23   C25   S    
C82   C127  S    
C55   H51   S    
N1    Ni1   S    
C27   C28   S    
C79   H95   S    
N25   Ni7   S    
C97   H113  S    
C57   N7    A    
N24   Ni8   S    
