data_mof_unit_25384.cif
_audit_creation_date              2012-12-10T18:09:44-0500
_audit_creation_method            fapswitch 2.2
_symmetry_space_group_name_H-M    P1
_symmetry_Int_Tables_number       1
_space_group_crystal_system       triclinic
_cell_length_a                    10.771072
_cell_length_b                    12.679853
_cell_length_c                    13.277276
_cell_angle_alpha                 83.120469
_cell_angle_beta                  92.000519
_cell_angle_gamma                 102.719499
_cell_volume                      1756.04821649

loop_
_atom_site_label
_atom_site_type_symbol
_atom_type_description
_atom_site_fract_x
_atom_site_fract_y
_atom_site_fract_z
_atom_type_partial_charge
C1    C     C_R   0.490512 0.439415 0.691431 0.868399
C2    C     C_3   0.121618 0.497484 0.506994 -0.192734
C3    C     C_3   0.074861 0.530439 0.396091 0.142874
C4    C     C_3   0.100894 0.584630 0.575538 0.330308
C5    C     C_R   0.656141 0.715732 0.069629 -0.222786
C6    C     C_R   0.534680 0.596438 0.203205 -0.053246
C7    C     C_R   0.425202 0.293653 0.838150 0.110980
C8    C     C_R   0.398842 0.267535 0.941401 -0.178634
C9    C     C_R   0.430631 0.346188 0.007470 -0.222355
C10   C     C_R   0.497589 0.452778 0.973330 0.087062
C11   C     C_R   0.536890 0.476076 0.871645 0.034283
C12   C     C_R   0.741679 0.498841 0.505078 0.938302
C13   C     C_R   0.531903 0.535910 0.037894 0.101895
C14   C     C_R   0.617328 0.635359 0.004326 0.187530
C15   C     C_R   0.667349 0.651057 0.907728 -0.267458
C16   C     C_R   0.628761 0.571897 0.843455 -0.213687
C17   C     C_R   0.485612 0.522056 0.135879 -0.274725
C18   C     C_R   0.616587 0.695452 0.169902 -0.198856
C19   C     C_R   0.487407 0.401415 0.801368 -0.136218
C20   C     C_R   0.316607 0.078865 0.356608 -0.285215
C21   C     C_R   0.656695 0.796634 0.626988 -0.038446
C22   C     C_R   0.691952 0.897903 0.659344 -0.235748
C23   C     C_R   0.514644 0.560305 0.309798 0.856836
C24   C     C_R   0.636015 0.981754 0.616468 0.097666
C25   C     C_R   0.540601 0.963365 0.537815 -0.020536
C26   C     C_R   0.508571 0.855226 0.509219 0.205456
C27   C     C_R   0.475819 0.042263 0.484756 -0.011160
C28   C     C_R   0.382835 0.007499 0.409480 0.162102
C29   C     C_R   0.355724 0.901519 0.385284 -0.296113
C30   C     C_R   0.419150 0.827345 0.433388 -0.209333
C31   C     C_R   0.496815 0.153717 0.500169 -0.128832
C32   C     C_R   0.342596 0.186313 0.374279 0.248866
C33   C     C_R   0.258223 0.498496 0.502804 0.954762
C34   C     C_3   0.901469 0.375351 0.542832 0.469755
C35   C     C_3   0.047532 0.381110 0.550499 0.325846
C36   C     C_3   0.929966 0.532041 0.396660 -0.209824
C37   C     C_3   0.958973 0.590328 0.571276 -0.188654
C38   C     C_3   0.878758 0.497743 0.508032 -0.135511
H1    H     H_    0.155829 0.665306 0.540475 0.055272
H2    H     H_    0.130877 0.614429 0.372231 0.078657
H3    H     H_    0.654791 0.754178 0.222119 0.168193
H4    H     H_    0.737212 0.724063 0.881933 0.137798
H5    H     H_    0.721839 0.791501 0.044594 0.137327
H6    H     H_    0.414828 0.451472 0.163443 0.131758
H7    H     H_    0.407473 0.318888 0.085805 0.134233
H8    H     H_    0.351602 0.185740 0.971073 0.134665
H9    H     H_    0.676004 0.584444 0.772853 0.153186
H10   H     H_    0.285905 0.875857 0.327213 0.144334
H11   H     H_    0.244668 0.051534 0.300502 0.145643
H12   H     H_    0.561119 0.190984 0.554446 0.159073
H13   H     H_    0.702254 0.732968 0.659195 0.129814
H14   H     H_    0.764600 0.911814 0.717771 0.153274
H15   H     H_    0.397616 0.747915 0.408965 0.206460
H16   H     H_    0.072343 0.325428 0.499006 0.113233
H17   H     H_    0.876769 0.472882 0.346821 0.197883
H18   H     H_    0.954830 0.670442 0.528514 0.157441
N1    N     N_R   0.433240 0.222190 0.444680 -0.125198
N2    N     N_R   0.566070 0.776970 0.554790 -0.141614
O1    O     O_R   0.468120 0.366740 0.627160 -0.605681
O2    O     O_R   0.510770 0.544830 0.662520 -0.643157
O3    O     O_R   0.663880 0.410950 0.482330 -0.629435
O4    O     O_R   0.706530 0.589040 0.517700 -0.621158
O5    O     O_R   0.489230 0.455170 0.337480 -0.638885
O6    O     O_R   0.531880 0.633260 0.372840 -0.632077
O7    O     O_R   0.293470 0.410960 0.482300 -0.643155
O8    O     O_R   0.336120 0.589050 0.517670 -0.663101
Zn1   Zn    Zn3+2 0.471520 0.381090 0.476390 0.925721
Zn2   Zn    Zn3+2 0.528480 0.618910 0.523610 0.911045
N3    N     N_3   0.856174 0.301137 0.464265 -0.510447
H19   H     H_    0.904463 0.316682 0.395563 0.195410
H20   H     H_    0.758279 0.276351 0.454847 0.226242
N4    N     N_3   0.903986 0.637927 0.353055 -0.456524
H21   H     H_    0.889204 0.637942 0.274785 0.186195
H22   H     H_    0.980333 0.702808 0.363156 0.165745
N5    N     N_3   0.390231 0.210511 0.771442 -0.460868
H23   H     H_    0.338020 0.138483 0.809912 0.163681
H24   H     H_    0.474335 0.192726 0.748978 0.182557
O9    O     O_3   0.835449 0.317785 0.632065 -0.650120
C39   C     C_3   0.839702 0.371471 0.719299 0.176789
H25   H     H_    0.765648 0.420189 0.712165 0.113296
H26   H     H_    0.935688 0.419856 0.733735 0.256084
C40   C     C_3   0.804801 0.287406 0.812206 -0.370677
H27   H     H_    0.704419 0.242845 0.805327 0.217697
H28   H     H_    0.866925 0.227937 0.817120 0.235317
C41   C     C_3   0.820959 0.341138 0.910199 -0.943535
H29   H     H_    0.922249 0.381418 0.921425 0.271468
H30   H     H_    0.790878 0.278467 0.975665 0.268104
H31   H     H_    0.761760 0.402605 0.907916 0.275904
N6    N     N_3   0.269313 0.255367 0.318554 -0.453230
H32   H     H_    0.297335 0.333869 0.336456 0.257088
H33   H     H_    0.289218 0.258612 0.241645 0.137503
N7    N     N_3   0.684131 0.082685 0.654893 -0.473219
H34   H     H_    0.729193 0.137916 0.596129 0.239902
H35   H     H_    0.611436 0.106288 0.690100 0.172468
O10   O     O_3   0.084893 0.351666 0.652022 -0.608316
C42   C     C_3   0.130173 0.253879 0.664625 0.105538
H36   H     H_    0.165010 0.244401 0.743984 0.186038
H37   H     H_    0.212503 0.259568 0.614724 0.188758
C43   C     C_3   0.026840 0.151548 0.649694 -0.368688
H38   H     H_    0.948024 0.143619 0.703258 0.251273
H39   H     H_    0.987210 0.156103 0.571479 0.234109
C44   C     C_3   0.080977 0.049220 0.668265 -0.986172
H40   H     H_    0.160430 0.054629 0.615331 0.276805
H41   H     H_    0.005390 0.976834 0.655408 0.264931
H42   H     H_    0.116159 0.038551 0.747662 0.259246
O11   O     O_3   0.093330 0.454698 0.330098 -0.656709
C45   C     C_3   0.170369 0.504840 0.245840 0.121828
H43   H     H_    0.201010 0.439234 0.211732 0.159427
H44   H     H_    0.258321 0.561243 0.269018 0.100775
C46   C     C_3   0.096533 0.562846 0.164339 -0.368648
H45   H     H_    0.003672 0.508182 0.149133 0.237306
H46   H     H_    0.078568 0.637599 0.191252 0.201785
C47   C     C_3   0.171537 0.595403 0.065755 -0.961412
H47   H     H_    0.264620 0.650530 0.079236 0.270987
H48   H     H_    0.116791 0.638558 0.008678 0.258397
H49   H     H_    0.188348 0.522167 0.034796 0.271863
N8    N     N_3   0.911465 0.596943 0.671839 -0.466987
H50   H     H_    0.952449 0.673186 0.694366 0.164221
H51   H     H_    0.816550 0.599120 0.665913 0.175466
O12   O     O_3   0.145247 0.560160 0.676340 -0.571373
C48   C     C_3   0.186468 0.654202 0.727647 0.083546
H52   H     H_    0.132278 0.641054 0.799447 0.160662
H53   H     H_    0.169849 0.731149 0.684826 0.105279
C49   C     C_3   0.327510 0.668955 0.754408 -0.284335
H54   H     H_    0.344608 0.593713 0.799315 0.242055
H55   H     H_    0.382315 0.684145 0.683356 0.264874
C50   C     C_3   0.373388 0.765264 0.815158 -0.984172
H56   H     H_    0.358281 0.841622 0.770974 0.262664
H57   H     H_    0.476659 0.774439 0.831781 0.283838
H58   H     H_    0.321637 0.751855 0.888056 0.267913

loop_
_geom_bond_atom_site_label_1
_geom_bond_atom_site_label_2
_ccdc_geom_bond_type
C2    C35   S    
O8    Zn2   S    
C9    H7    S    
O10   C42   S    
C33   O7    A    
C7    C8    A    
C41   H29   S    
C11   C19   A    
C37   C38   S    
O6    Zn2   S    
C22   H14   S    
C28   C29   A    
C1    O1    A    
O11   C45   S    
C15   C16   A    
C42   C43   S    
C12   O4    A    
C44   H42   S    
C34   C35   S    
N3    H20   S    
C46   H45   S    
C48   C49   S    
O1    Zn1   S    
C37   H18   S    
C43   H38   S    
C8    C9    A    
O7    Zn1   S    
C42   H37   S    
C45   H43   S    
N6    H33   S    
C9    C10   A    
C47   H49   S    
C23   O5    A    
C5    H5    S    
C21   C22   A    
C35   H16   S    
C45   H44   S    
C44   H40   S    
C32   N1    A    
N1    Zn1   S    
C24   N7    S    
C16   H9    S    
C33   O8    A    
C46   H46   S    
C41   H30   S    
C3    O11   S    
C6    C18   A    
C30   H15   S    
O5    Zn1   S    
C1    C19   S    
C29   H10   S    
C27   C31   A    
C24   C25   A    
N4    H22   S    
C1    O2    A    
C39   H26   S    
O9    C39   S    
C7    N5    S    
C5    C18   A    
C20   C28   A    
C25   C26   A    
C2    C4    S    
N5    H23   S    
C50   H57   S    
C29   C30   A    
C20   H11   S    
N5    H24   S    
C11   C16   A    
O3    Zn1   S    
C32   N6    S    
C34   N3    S    
C4    H1    S    
C42   H36   S    
N7    H35   S    
C5    C14   A    
C44   H41   S    
C26   N2    A    
C46   C47   S    
C48   H52   S    
C49   C50   S    
C2    C33   S    
N2    Zn2   S    
C23   O6    A    
C43   H39   S    
C3    H2    S    
C26   C30   A    
C40   H28   S    
C45   C46   S    
C22   C24   A    
C18   H3    S    
C31   H12   S    
C50   H56   S    
C21   H13   S    
O12   C48   S    
C49   H55   S    
C47   H47   S    
C20   C32   A    
C41   H31   S    
C6    C17   A    
C34   C38   S    
C15   H4    S    
N4    H21   S    
C10   C13   A    
C39   C40   S    
C35   O10   S    
C25   C27   A    
C40   C41   S    
C7    C19   A    
C13   C17   A    
C31   N1    A    
N8    H51   S    
C2    C3    S    
C50   H58   S    
C21   N2    A    
C36   H17   S    
N8    H50   S    
C34   O9    S    
C12   O3    A    
C3    C36   S    
C6    C23   S    
C36   C38   S    
N7    H34   S    
O4    Zn2   S    
C12   C38   S    
N3    H19   S    
C8    H8    S    
C48   H53   S    
C10   C11   A    
C39   H25   S    
C43   C44   S    
C37   N8    S    
C4    C37   S    
O2    Zn2   S    
C40   H27   S    
C27   C28   A    
C14   C15   A    
C4    O12   S    
N6    H32   S    
C13   C14   A    
C17   H6    S    
C36   N4    S    
C49   H54   S    
C47   H48   S    
