data_mof_unit_49978.cif
_audit_creation_date              2012-12-11T14:29:32-0500
_audit_creation_method            fapswitch 2.2
_symmetry_space_group_name_H-M    P1
_symmetry_Int_Tables_number       1
_space_group_crystal_system       triclinic
_cell_length_a                    6.930695
_cell_length_b                    14.753669
_cell_length_c                    16.286469
_cell_angle_alpha                 90.548582
_cell_angle_beta                  89.778818
_cell_angle_gamma                 89.658424
_cell_volume                      1665.22454171

loop_
_atom_site_label
_atom_site_type_symbol
_atom_type_description
_atom_site_fract_x
_atom_site_fract_y
_atom_site_fract_z
_atom_type_partial_charge
O1    O     O_R   0.494400 0.416610 0.413880 -0.544002
O2    O     O_R   0.823920 0.406790 0.585520 -0.552407
O3    O     O_R   0.994250 0.583390 0.586120 -0.537221
C1    C     C_R   0.655128 0.388274 0.615492 0.735169
O4    O     O_R   0.824110 0.405730 0.414490 -0.536173
O5    O     O_R   0.994440 0.582310 0.413870 -0.533794
C2    C     C_R   0.656576 0.384222 0.386030 0.744125
O6    O     O_R   0.494210 0.417690 0.586130 -0.535319
O7    O     O_3   0.660810 0.557940 0.500000 -0.371303
V1    V     V_3+5 0.935650 0.489250 0.500000 1.400335
O8    O     O_R   0.324160 0.593210 0.414480 -0.548053
C3    C     C_R   0.153925 0.616275 0.387203 0.739919
O9    O     O_R   0.323970 0.594270 0.585510 -0.538831
C4    C     C_R   0.154570 0.616032 0.613984 0.694103
V2    V     V_3+5 0.435660 0.510750 0.500000 1.402836
O10   O     O_3   0.160630 0.442060 0.500000 -0.370852
C5    C     C_R   0.013757 0.567515 0.775359 -0.142971
C6    C     C_R   0.944915 0.541747 0.852059 -0.122398
C7    C     C_R   0.934489 0.604566 0.916019 -0.123300
C8    C     C_R   0.992648 0.693677 0.903775 -0.135273
C9    C     C_R   0.060683 0.722390 0.826226 0.068813
C10   C     C_R   0.071544 0.657866 0.760551 0.069099
C11   C     C_R   0.121618 0.813020 0.814070 -0.173607
C12   C     C_R   0.193650 0.838808 0.735939 0.071864
C13   C     C_R   0.203734 0.774410 0.670220 0.032078
C14   C     C_R   0.143134 0.683771 0.682463 -0.175397
C15   C     C_R   0.252567 0.928889 0.721158 -0.193541
C16   C     C_R   0.320774 0.954819 0.644381 -0.120142
C17   C     C_R   0.330065 0.892215 0.579685 0.216529
C18   C     C_R   0.270858 0.803020 0.592497 -0.149170
H1    H     H_    0.022445 0.515420 0.728313 0.115235
H2    H     H_    0.900932 0.472407 0.862058 0.118023
H3    H     H_    0.882480 0.583986 0.975725 0.112556
H4    H     H_    0.985135 0.739250 0.956094 0.107352
H5    H     H_    0.245599 0.980748 0.768423 0.115160
H6    H     H_    0.276629 0.756859 0.540508 0.114027
C19   C     C_2   0.978753 0.726482 0.294001 0.176651
C20   C     C_2   0.142620 0.682167 0.318450 -0.318026
H7    H     H_    0.276606 0.691971 0.285419 0.105126
C21   C     C_2   0.972213 0.786058 0.219894 -0.143082
C22   C     C_2   0.126824 0.819567 0.180677 -0.353608
H8    H     H_    0.271412 0.804571 0.201838 0.132641
C23   C     C_2   0.777160 0.204890 0.774378 0.180619
C24   C     C_2   0.615701 0.170236 0.809566 -0.322469
H9    H     H_    0.477256 0.183682 0.781275 0.119772
C25   C     C_2   0.763270 0.261491 0.699496 -0.159427
C26   C     C_2   0.643551 0.333313 0.690495 -0.009845
H10   H     H_    0.867118 0.246486 0.650941 0.109014
C27   C     C_2   0.767672 0.207603 0.214767 -0.155610
C28   C     C_2   0.606224 0.164229 0.189995 -0.009109
H11   H     H_    0.898555 0.200377 0.178252 0.118363
C29   C     C_2   0.785297 0.261175 0.292266 0.181182
C30   C     C_2   0.648975 0.323675 0.313449 -0.317026
H12   H     H_    0.525132 0.333107 0.273871 0.120101
O11   O     O_R   0.770210 0.079270 0.910680 -0.534010
O12   O     O_R   0.440150 0.091160 0.082270 -0.538625
O13   O     O_R   0.269970 0.914530 0.082860 -0.541769
C31   C     C_R   0.607019 0.109351 0.113269 0.732377
O14   O     O_R   0.440480 0.090100 0.911240 -0.548319
O15   O     O_R   0.270310 0.913460 0.910610 -0.536332
C32   C     C_R   0.609615 0.109948 0.881771 0.751591
O16   O     O_R   0.769870 0.080340 0.082930 -0.550027
O17   O     O_3   0.603660 0.938980 0.996790 -0.369653
V3    V     V_3+5 0.328750 0.007610 0.996740 1.400218
O18   O     O_R   0.940600 0.902510 0.911180 -0.539183
C33   C     C_R   0.110044 0.880777 0.882655 0.694292
O19   O     O_R   0.940270 0.903570 0.082200 -0.544017
C34   C     C_R   0.109806 0.882869 0.111006 0.750951
V4    V     V_3+5 0.828770 0.986010 0.996670 1.407128
O20   O     O_3   0.103730 0.054750 0.996710 -0.374251
C35   C     C_3   0.401560 0.919673 0.496451 -0.810480
H13   H     H_    0.442964 0.992280 0.495445 0.207144
H14   H     H_    0.529813 0.878083 0.479231 0.212048
H15   H     H_    0.286555 0.908548 0.450201 0.211042
H16   H     H_    0.830225 0.805677 0.197983 0.142820
C36   C     C_3   0.978329 0.184220 0.804460 -0.696992
H17   H     H_    0.088387 0.220055 0.767393 0.171260
H18   H     H_    0.994507 0.207343 0.869128 0.207214
H19   H     H_    0.009124 0.110499 0.798924 0.200891
C37   C     C_3   0.508085 0.366079 0.757718 -0.765475
H20   H     H_    0.465953 0.437948 0.747995 0.201782
H21   H     H_    0.374023 0.325562 0.757573 0.202035
H22   H     H_    0.578871 0.362793 0.818671 0.213600
C38   C     C_3   0.425391 0.161278 0.242614 -0.774629
H23   H     H_    0.346726 0.096772 0.232505 0.202518
H24   H     H_    0.459378 0.163946 0.309131 0.219681
H25   H     H_    0.327568 0.218001 0.226130 0.203325
C39   C     C_3   0.962919 0.244501 0.343373 -0.726450
H26   H     H_    0.042973 0.183810 0.320674 0.193172
H27   H     H_    0.061322 0.303468 0.340069 0.213252
H28   H     H_    0.921528 0.231645 0.408156 0.198981
H29   H     H_    0.365062 0.024338 0.635441 0.113607
C40   C     C_3   0.789816 0.717802 0.340255 -0.694534
H30   H     H_    0.678878 0.765932 0.317488 0.169337
H31   H     H_    0.730877 0.648496 0.332246 0.211883
H32   H     H_    0.811030 0.733609 0.406417 0.203855

loop_
_geom_bond_atom_site_label_1
_geom_bond_atom_site_label_2
_ccdc_geom_bond_type
C31   O16   A    
C40   H30   S    
C22   H8    S    
C7    C8    A    
C36   H19   S    
C1    O6    A    
C28   C38   S    
C30   H12   S    
C24   H9    S    
O14   V3    S    
C19   C20   D    
C11   C33   S    
C16   C17   A    
C38   H24   S    
C19   C21   S    
O5    C3    A    
C20   H7    S    
V2    O10   S    
C23   C36   S    
C6    C7    A    
O8    V2    S    
O17   V4    S    
C27   H11   S    
C11   C12   A    
C38   H25   S    
O1    V2    S    
V3    O20   S    
O7    V1    S    
C8    H4    S    
C39   H26   S    
C27   C29   S    
O15   C33   A    
C40   H31   S    
O9    C4    A    
C26   C37   S    
C37   H22   S    
C22   C34   S    
C36   H17   S    
C25   H10   S    
O14   C32   A    
O19   C34   A    
C28   C31   S    
C29   C39   S    
C12   C13   A    
C37   H21   S    
C7    H3    S    
O4    C2    A    
C15   H5    S    
C13   C14   A    
C4    C14   S    
O16   V4    S    
O19   V4    S    
O2    C1    A    
C23   C24   D    
C17   C18   A    
C39   H28   S    
C12   C15   A    
O12   V3    S    
C5    C6    A    
C19   C40   S    
C16   H29   S    
C38   H23   S    
O11   V4    S    
O3    C4    A    
C21   C22   D    
C39   H27   S    
O18   C33   A    
O6    V2    S    
O9    V2    S    
C5    H1    S    
C6    H2    S    
C2    C30   S    
O13   C34   A    
O2    V1    S    
C29   C30   D    
O13   V3    S    
C35   H14   S    
C13   C18   A    
C25   C26   D    
O1    C2    A    
C36   H18   S    
C37   H20   S    
O5    V1    S    
C35   H15   S    
O8    C3    A    
C24   C32   S    
C40   H32   S    
C5    C10   A    
C21   H16   S    
C18   H6    S    
O15   V3    S    
C9    C11   A    
O7    V2    S    
C35   H13   S    
O3    V1    S    
V1    O10   S    
O18   V4    S    
O11   C32   A    
O12   C31   A    
C3    C20   S    
V4    O20   S    
C23   C25   S    
O17   V3    S    
O4    V1    S    
C8    C9    A    
C27   C28   D    
C10   C14   A    
C15   C16   A    
C9    C10   A    
C17   C35   S    
C1    C26   S    
