data_mof_unit_49052.cif
_audit_creation_date              2012-12-11T16:19:01-0500
_audit_creation_method            fapswitch 2.2
_symmetry_space_group_name_H-M    P1
_symmetry_Int_Tables_number       1
_space_group_crystal_system       triclinic
_cell_length_a                    6.914633
_cell_length_b                    31.33913
_cell_length_c                    35.048876
_cell_angle_alpha                 90.000024
_cell_angle_beta                  90.000064
_cell_angle_gamma                 89.760076
_cell_volume                      7594.97515817

loop_
_atom_site_label
_atom_site_type_symbol
_atom_type_description
_atom_site_fract_x
_atom_site_fract_y
_atom_site_fract_z
_atom_type_partial_charge
O1    O     O_R   0.417270 0.211480 0.210950 -0.543953
O2    O     O_R   0.582730 0.788520 0.789050 -0.516898
O3    O     O_R   0.582730 0.788520 0.710950 -0.543954
O4    O     O_R   0.417270 0.211480 0.289050 -0.516898
O5    O     O_R   0.917270 0.288520 0.289050 -0.518480
O6    O     O_R   0.082730 0.711480 0.710950 -0.517529
O7    O     O_R   0.082730 0.711480 0.789050 -0.518480
O8    O     O_R   0.917270 0.288520 0.210950 -0.517529
O9    O     O_R   0.746940 0.206370 0.288750 -0.545047
O10   O     O_R   0.253060 0.793630 0.711250 -0.518583
O11   O     O_R   0.253060 0.793630 0.788750 -0.545047
O12   O     O_R   0.746940 0.206370 0.211250 -0.518583
O13   O     O_R   0.246940 0.293630 0.211250 -0.550083
O14   O     O_R   0.753060 0.706370 0.788750 -0.546189
O15   O     O_R   0.753060 0.706370 0.711250 -0.550083
O16   O     O_R   0.246940 0.293630 0.288750 -0.546189
C1    C     C_R   0.578227 0.196422 0.302453 0.762215
C2    C     C_R   0.421426 0.803720 0.697618 0.745790
C3    C     C_R   0.421773 0.803578 0.802453 0.762215
C4    C     C_R   0.578574 0.196280 0.197618 0.745790
C5    C     C_R   0.077637 0.303510 0.197538 0.744096
C6    C     C_R   0.922309 0.696605 0.802530 0.758865
C7    C     C_R   0.922363 0.696490 0.697538 0.744097
C8    C     C_R   0.077691 0.303395 0.302530 0.758865
O17   O     O_3   0.583760 0.276950 0.250000 -0.367750
O18   O     O_3   0.416240 0.723050 0.750000 -0.367750
O19   O     O_3   0.083760 0.223050 0.250000 -0.364231
O20   O     O_3   0.916240 0.776950 0.750000 -0.364231
V1    V     V_3+5 0.858600 0.245000 0.250000 1.492951
V2    V     V_3+5 0.141400 0.755000 0.750000 1.492951
V3    V     V_3+5 0.358600 0.255000 0.250000 1.457944
V4    V     V_3+5 0.641400 0.745000 0.750000 1.457945
C9    C     C_R   0.844357 0.576953 0.544503 0.573433
C10   C     C_R   0.154103 0.421921 0.456282 0.573398
C11   C     C_R   0.155640 0.423046 0.044503 0.573433
C12   C     C_R   0.845900 0.578080 0.956282 0.573398
C13   C     C_R   0.425440 0.911919 0.963224 0.567589
C14   C     C_R   0.500900 0.088102 0.037867 0.569535
C15   C     C_R   0.574561 0.088081 0.463224 0.567589
C16   C     C_R   0.499098 0.911898 0.537867 0.569535
N1    N     N_R   0.963356 0.572662 0.575615 -0.551084
N2    N     N_R   0.035112 0.426216 0.425172 -0.551217
N3    N     N_R   0.036644 0.427337 0.075615 -0.551085
N4    N     N_R   0.964888 0.573784 0.925172 -0.551217
N5    N     N_R   0.440088 0.925577 0.926122 -0.552983
N6    N     N_R   0.508459 0.073998 0.074926 -0.551872
N7    N     N_R   0.559912 0.074423 0.426122 -0.552984
N8    N     N_R   0.491540 0.926002 0.574926 -0.551872
C17   C     C_R   0.092408 0.539369 0.578115 0.565661
C18   C     C_R   0.905498 0.459406 0.422739 0.565859
C19   C     C_R   0.907594 0.460631 0.078115 0.565660
C20   C     C_R   0.094499 0.540594 0.922739 0.565859
C21   C     C_R   0.456979 0.968186 0.917772 0.572575
C22   C     C_R   0.492076 0.031375 0.083274 0.575765
C23   C     C_R   0.543020 0.031814 0.417772 0.572575
C24   C     C_R   0.507924 0.968625 0.583274 0.575766
C25   C     C_R   0.110899 0.509815 0.548004 -0.024692
C26   C     C_R   0.886922 0.488942 0.452861 -0.024640
C27   C     C_R   0.889103 0.490185 0.048004 -0.024692
C28   C     C_R   0.113075 0.511057 0.952861 -0.024641
C29   C     C_R   0.464235 0.998753 0.947252 -0.032163
C30   C     C_R   0.471476 0.001080 0.053823 -0.033718
C31   C     C_R   0.535764 0.001247 0.447252 -0.032163
C32   C     C_R   0.528524 0.998920 0.553823 -0.033718
C33   C     C_R   0.991027 0.514087 0.515734 -0.017106
C34   C     C_R   0.006890 0.484687 0.485120 -0.017127
C35   C     C_R   0.008973 0.485913 0.015734 -0.017106
C36   C     C_R   0.993110 0.515313 0.985120 -0.017126
C37   C     C_R   0.458253 0.984955 0.985477 -0.016119
C38   C     C_R   0.472260 0.014982 0.015610 -0.016585
C39   C     C_R   0.541747 0.015045 0.485477 -0.016119
C40   C     C_R   0.527739 0.985018 0.515610 -0.016584
C41   C     C_R   0.855206 0.547669 0.514025 -0.030544
C42   C     C_R   0.142862 0.451133 0.486811 -0.030467
C43   C     C_R   0.144790 0.452331 0.014025 -0.030544
C44   C     C_R   0.857141 0.548868 0.986811 -0.030467
C45   C     C_R   0.438639 0.941193 0.993636 -0.030696
C46   C     C_R   0.487247 0.058838 0.007459 -0.030734
C47   C     C_R   0.561362 0.058807 0.493636 -0.030696
C48   C     C_R   0.512751 0.941162 0.507459 -0.030734
C49   C     C_R   0.246702 0.476309 0.549304 -0.141363
C50   C     C_R   0.751046 0.522435 0.451572 -0.141315
C51   C     C_R   0.753304 0.523692 0.049304 -0.141364
C52   C     C_R   0.248948 0.477564 0.951571 -0.141315
C53   C     C_R   0.479196 0.042634 0.939464 -0.137303
C54   C     C_R   0.451666 0.957298 0.061622 -0.136780
C55   C     C_R   0.520802 0.957366 0.439464 -0.137303
C56   C     C_R   0.548336 0.042702 0.561622 -0.136780
C57   C     C_R   0.262698 0.447378 0.519065 -0.142156
C58   C     C_R   0.735238 0.551400 0.481787 -0.142177
C59   C     C_R   0.737308 0.552623 0.019066 -0.142156
C60   C     C_R   0.264755 0.448599 0.981786 -0.142177
C61   C     C_R   0.489139 0.072324 0.969192 -0.139005
C62   C     C_R   0.434056 0.927764 0.031911 -0.138664
C63   C     C_R   0.510858 0.927676 0.469192 -0.139005
C64   C     C_R   0.565945 0.072236 0.531911 -0.138664
O21   O     O_2   0.717325 0.609689 0.542848 -0.521159
O22   O     O_2   0.281571 0.389264 0.457874 -0.521463
O23   O     O_2   0.282669 0.390310 0.042847 -0.521158
O24   O     O_2   0.718435 0.610737 0.957875 -0.521463
O25   O     O_2   0.398266 0.870142 0.970699 -0.520376
O26   O     O_2   0.506270 0.130319 0.030429 -0.520918
O27   O     O_2   0.601736 0.129858 0.470699 -0.520377
O28   O     O_2   0.493727 0.869681 0.530429 -0.520918
O29   O     O_2   0.202622 0.534854 0.609634 -0.530189
O30   O     O_2   0.794845 0.463841 0.391271 -0.530150
O31   O     O_2   0.797383 0.465147 0.109634 -0.530188
O32   O     O_2   0.205150 0.536158 0.891270 -0.530150
O33   O     O_2   0.468491 0.980948 0.881087 -0.516737
O34   O     O_2   0.497037 0.018278 0.119925 -0.514995
O35   O     O_2   0.531507 0.019052 0.381087 -0.516737
O36   O     O_2   0.502964 0.981722 0.619925 -0.514995
H1    H     H_    0.341478 0.472367 0.573663 0.170201
H2    H     H_    0.656194 0.526363 0.427222 0.170136
H3    H     H_    0.658531 0.527634 0.073664 0.170201
H4    H     H_    0.343797 0.473635 0.927221 0.170136
H5    H     H_    0.483296 0.054205 0.910360 0.175122
H6    H     H_    0.449682 0.945684 0.090721 0.175277
H7    H     H_    0.516701 0.945795 0.410360 0.175122
H8    H     H_    0.550320 0.054316 0.590721 0.175277
H9    H     H_    0.368980 0.421997 0.521112 0.170561
H10   H     H_    0.629017 0.576792 0.479733 0.170561
H11   H     H_    0.631028 0.578004 0.021113 0.170561
H12   H     H_    0.370974 0.423206 0.979732 0.170561
H13   H     H_    0.500584 0.105843 0.962061 0.174646
H14   H     H_    0.419149 0.894316 0.039049 0.174515
H15   H     H_    0.499412 0.894156 0.462061 0.174646
H16   H     H_    0.580853 0.105684 0.539049 0.174515
C65   C     C_R   0.201112 0.394719 0.369544 -0.103678
C66   C     C_R   0.797340 0.604878 0.630925 -0.103291
C67   C     C_R   0.798887 0.605281 0.869544 -0.103678
C68   C     C_R   0.202660 0.395122 0.130925 -0.103291
C69   C     C_R   0.375968 0.113312 0.129794 -0.112808
C70   C     C_R   0.277732 0.891868 0.871333 -0.093507
C71   C     C_R   0.624031 0.886688 0.629794 -0.112808
C72   C     C_R   0.722269 0.108132 0.371334 -0.093507
H17   H     H_    0.315045 0.418063 0.372687 0.155202
H18   H     H_    0.682333 0.581794 0.627762 0.154904
H19   H     H_    0.684953 0.581937 0.872687 0.155201
H20   H     H_    0.317668 0.418205 0.127762 0.154903
H21   H     H_    0.239501 0.097186 0.125584 0.164404
H22   H     H_    0.154547 0.912706 0.875835 0.147457
H23   H     H_    0.760498 0.902813 0.625584 0.164405
H24   H     H_    0.845453 0.087294 0.375835 0.147457
C73   C     C_R   0.212044 0.364753 0.340010 -0.267773
C74   C     C_R   0.786817 0.635102 0.660253 -0.267421
C75   C     C_R   0.787955 0.635247 0.840010 -0.267773
C76   C     C_R   0.213183 0.364898 0.160253 -0.267421
C77   C     C_R   0.394117 0.142616 0.159529 -0.258382
C78   C     C_R   0.274579 0.862664 0.841187 -0.261737
C79   C     C_R   0.605882 0.857383 0.659529 -0.258382
C80   C     C_R   0.725422 0.137336 0.341187 -0.261736
H25   H     H_    0.334523 0.365794 0.320774 0.153571
H26   H     H_    0.663597 0.634484 0.679320 0.153393
H27   H     H_    0.665475 0.634206 0.820774 0.153571
H28   H     H_    0.336404 0.365516 0.179320 0.153392
H29   H     H_    0.270397 0.148098 0.177851 0.177833
H30   H     H_    0.149214 0.862098 0.822707 0.151787
H31   H     H_    0.729602 0.851902 0.677851 0.177832
H32   H     H_    0.850786 0.137902 0.322707 0.151787
C81   C     C_R   0.065341 0.334352 0.334824 -0.104834
C82   C     C_R   0.934733 0.665221 0.665457 -0.103621
C83   C     C_R   0.934659 0.665648 0.834824 -0.104834
C84   C     C_R   0.065267 0.334779 0.165457 -0.103621
C85   C     C_R   0.568394 0.164497 0.165807 -0.122480
C86   C     C_R   0.431334 0.834892 0.834571 -0.106976
C87   C     C_R   0.431606 0.835503 0.665808 -0.122480
C88   C     C_R   0.568667 0.165107 0.334571 -0.106977
C89   C     C_R   0.908293 0.333730 0.360859 0.179439
C90   C     C_R   0.093005 0.665179 0.639691 0.180663
C91   C     C_R   0.091709 0.666269 0.860859 0.179439
C92   C     C_R   0.906994 0.334821 0.139691 0.180662
C93   C     C_R   0.728258 0.155986 0.141395 0.195886
C94   C     C_R   0.594504 0.837318 0.859000 0.178423
C95   C     C_R   0.271741 0.844014 0.641395 0.195886
C96   C     C_R   0.405496 0.162682 0.359000 0.178424
C97   C     C_R   0.898217 0.363842 0.390808 0.167785
C98   C     C_R   0.102551 0.634840 0.609916 0.169166
C99   C     C_R   0.101784 0.636158 0.890808 0.167785
C100  C     C_R   0.897448 0.365160 0.109917 0.169166
C101  C     C_R   0.710615 0.125145 0.111857 0.194722
C102  C     C_R   0.599802 0.867734 0.888774 0.178492
C103  C     C_R   0.289384 0.874855 0.611857 0.194722
C104  C     C_R   0.400198 0.132266 0.388774 0.178492
C105  C     C_R   0.044135 0.394928 0.394857 0.312092
C106  C     C_R   0.955145 0.604102 0.605820 0.311332
C107  C     C_R   0.955866 0.605072 0.894857 0.312092
C108  C     C_R   0.044854 0.395897 0.105820 0.311333
C109  C     C_R   0.531922 0.104461 0.105617 0.311982
C110  C     C_R   0.438885 0.894694 0.895413 0.311610
C111  C     C_R   0.468077 0.895539 0.605617 0.311981
C112  C     C_R   0.561115 0.105306 0.395413 0.311609
N9    N     N_3   0.761282 0.301760 0.357519 -0.641429
H33   H     H_    0.758179 0.284075 0.382806 0.254347
H34   H     H_    0.627586 0.317062 0.354318 0.250002
N10   N     N_3   0.242089 0.696656 0.643133 -0.652423
H35   H     H_    0.248425 0.713967 0.617667 0.246726
H36   H     H_    0.374353 0.680903 0.646841 0.250798
N11   N     N_3   0.238720 0.698239 0.857519 -0.641429
H37   H     H_    0.241825 0.715924 0.882806 0.254348
H38   H     H_    0.372416 0.682937 0.854318 0.250001
N12   N     N_3   0.757909 0.303345 0.143133 -0.652422
H39   H     H_    0.751572 0.286033 0.117667 0.246726
H40   H     H_    0.625645 0.319097 0.146841 0.250798
N13   N     N_3   0.904778 0.179633 0.146237 -0.644449
H41   H     H_    0.875874 0.211280 0.138655 0.228164
H42   H     H_    0.013507 0.169170 0.127821 0.264438
N14   N     N_3   0.752932 0.808094 0.854303 -0.637836
H43   H     H_    0.769969 0.790894 0.879652 0.251550
H44   H     H_    0.878651 0.825683 0.849669 0.246665
N15   N     N_3   0.095221 0.820367 0.646237 -0.644449
H45   H     H_    0.124125 0.788721 0.638655 0.228164
H46   H     H_    0.986492 0.830830 0.627821 0.264438
N16   N     N_3   0.247069 0.191906 0.354303 -0.637836
H47   H     H_    0.230032 0.209106 0.379652 0.251550
H48   H     H_    0.121349 0.174317 0.349669 0.246665
N17   N     N_3   0.741119 0.361652 0.417457 -0.641835
H49   H     H_    0.798347 0.359256 0.444988 0.252316
H50   H     H_    0.660356 0.389809 0.415674 0.273674
N18   N     N_3   0.260585 0.636504 0.583447 -0.641231
H51   H     H_    0.340288 0.608228 0.585518 0.273303
H52   H     H_    0.204372 0.638789 0.555828 0.252115
N19   N     N_3   0.258884 0.638347 0.917457 -0.641836
H53   H     H_    0.201658 0.640744 0.944987 0.252317
H54   H     H_    0.339645 0.610190 0.915673 0.273672
N20   N     N_3   0.739413 0.363497 0.083447 -0.641231
H55   H     H_    0.659711 0.391772 0.085518 0.273300
H56   H     H_    0.795624 0.361211 0.055828 0.252116
N21   N     N_3   0.875636 0.114386 0.088911 -0.686010
H57   H     H_    0.897729 0.081394 0.090275 0.237883
H58   H     H_    0.847812 0.122783 0.060617 0.270646
N22   N     N_3   0.771808 0.871423 0.911400 -0.668358
H59   H     H_    0.818290 0.903109 0.910467 0.233376
H60   H     H_    0.739159 0.863723 0.939641 0.272479
N23   N     N_3   0.124363 0.885614 0.588911 -0.686010
H61   H     H_    0.102270 0.918606 0.590275 0.237884
H62   H     H_    0.152187 0.877217 0.560617 0.270646
N24   N     N_3   0.228193 0.128577 0.411400 -0.668356
H63   H     H_    0.181710 0.096891 0.410467 0.233376
H64   H     H_    0.260842 0.136277 0.439640 0.272479

loop_
_geom_bond_atom_site_label_1
_geom_bond_atom_site_label_2
_ccdc_geom_bond_type
O17   V3    S    
C90   N10   S    
C16   O28   S    
C56   C64   A    
O18   V4    S    
C65   C105  A    
O12   V1    S    
O19   V1    S    
N23   H62   S    
C37   C45   A    
C8    C81   S    
C10   N2    A    
C68   C108  A    
C100  N20   S    
N18   H52   S    
C69   C109  A    
O15   V4    S    
N13   H41   S    
O16   V3    S    
C4    C85   S    
C30   C54   A    
C22   O34   S    
C52   H4    S    
N12   H40   S    
O12   C4    A    
C90   C98   A    
O8    V1    S    
C42   C57   A    
C98   N18   S    
C38   C46   A    
C27   C51   A    
C41   C58   A    
C26   C50   A    
N16   H48   S    
C66   C74   A    
C99   C107  A    
C46   C61   A    
C29   C37   A    
C34   C42   A    
C45   C62   A    
O1    V3    S    
C97   C105  A    
C64   H16   S    
O3    C2    A    
C16   N8    A    
N1    C17   A    
N7    C112  S    
N8    C111  S    
C91   N11   S    
C54   C62   A    
C27   C35   A    
C101  C109  A    
C26   C34   A    
C68   H20   S    
N19   H53   S    
O11   V2    S    
C101  N21   S    
N14   H43   S    
N9    H34   S    
C55   C63   A    
N23   H61   S    
C104  C112  A    
C67   C75   A    
N20   H55   S    
C3    C86   S    
C95   N15   S    
C56   H8    S    
C11   N3    A    
C11   C43   A    
C65   C73   A    
C79   C87   A    
O9    V1    S    
C14   O26   S    
C7    C82   S    
C81   C89   A    
C92   C100  A    
O15   C7    A    
O2    C3    A    
N7    C23   A    
C93   C101  A    
N11   H37   S    
O16   C8    A    
O7    V2    S    
C59   H11   S    
C57   H9    S    
C94   N14   S    
C58   H10   S    
C30   C38   A    
C91   C99   A    
O3    V4    S    
C23   C31   A    
C21   C29   A    
C19   O31   S    
C11   O23   S    
C104  N24   S    
N18   H51   S    
C80   C88   A    
C19   C27   A    
O5    V1    S    
C103  N23   S    
C62   H14   S    
O17   V1    S    
N19   H54   S    
N24   H64   S    
C86   C94   A    
C78   C86   A    
N12   H39   S    
O19   V3    S    
C35   C36   A    
C76   C84   A    
C51   H3    S    
O20   V4    S    
C80   H32   S    
C77   C85   A    
C50   H2    S    
N10   H36   S    
C33   C41   A    
C97   N17   S    
C96   C104  A    
N16   H47   S    
C17   O29   S    
C83   C91   A    
C14   C46   A    
N17   H49   S    
C13   C45   A    
C39   C47   A    
C40   C48   A    
C99   N19   S    
C79   H31   S    
C44   C59   A    
C92   N12   S    
C55   H7    S    
N21   H57   S    
C70   H22   S    
C74   C82   A    
C76   H28   S    
O10   V2    S    
C52   C60   A    
N15   H45   S    
C74   H26   S    
N2    C18   A    
C53   H5    S    
O11   C3    A    
N6    C22   A    
C16   C48   A    
O8    C5    A    
C18   C26   A    
C69   C77   A    
C54   H6    S    
C36   C44   A    
O9    C1    A    
C48   C63   A    
O2    V4    S    
C71   C111  A    
C31   C39   A    
C100  C108  A    
C29   C53   A    
C43   C60   A    
C10   C42   A    
C88   C96   A    
O4    C1    A    
N2    C105  S    
C9    C41   A    
O6    V2    S    
C72   C112  A    
C33   C34   A    
N20   H56   S    
C89   C97   A    
O14   C6    A    
N21   H58   S    
N15   H46   S    
C12   N4    A    
C23   O35   S    
C35   C43   A    
N6    C109  S    
C13   N5    A    
C66   H18   S    
N11   H38   S    
C75   H27   S    
C15   N7    A    
C21   O33   S    
N8    C24   A    
C84   C92   A    
N24   H63   S    
O1    C4    A    
C32   C56   A    
C78   H30   S    
C70   C78   A    
C31   C55   A    
N22   H60   S    
C68   C76   A    
O13   V3    S    
C102  N22   S    
C25   C33   A    
N10   H35   S    
C1    C88   S    
C103  C111  A    
N4    C20   A    
C17   C25   A    
C89   N9    S    
C2    C87   S    
C66   C106  A    
C15   O27   S    
C12   O24   S    
C94   C102  A    
C47   C64   A    
N17   H50   S    
O7    C6    A    
C51   C59   A    
C95   C103  A    
C69   H21   S    
C85   C93   A    
C50   C58   A    
C9    N1    A    
C39   C40   A    
C70   C110  A    
C60   H12   S    
C73   H25   S    
C82   C90   A    
C72   H24   S    
N14   H44   S    
C75   C83   A    
O13   C5    A    
C13   O25   S    
C6    C83   S    
C28   C52   A    
N3    C19   A    
C24   C32   A    
O5    C8    A    
C73   C81   A    
N3    C108  S    
O10   C2    A    
C71   C79   A    
O6    C7    A    
C71   H23   S    
N22   H59   S    
C10   O22   S    
O20   V2    S    
N1    C106  S    
C87   C95   A    
C96   N16   S    
C32   C40   A    
C49   C57   A    
C37   C38   A    
C25   C49   A    
C61   H13   S    
C14   N6    A    
O4    V3    S    
C67   H19   S    
N4    C107  S    
N5    C21   A    
C98   C106  A    
C63   H15   S    
N5    C110  S    
C12   C44   A    
C53   C61   A    
C65   H17   S    
C28   C36   A    
C20   C28   A    
N9    H33   S    
C49   H1    S    
C18   O30   S    
C22   C30   A    
C20   O32   S    
C93   N13   S    
C102  C110  A    
C9    O21   S    
C77   H29   S    
C72   C80   A    
N13   H42   S    
O14   V4    S    
C24   O36   S    
C15   C47   A    
C5    C84   S    
O18   V2    S    
C67   C107  A    
