data_mof_unit_33839.cif
_audit_creation_date              2013-03-05T16:07:15-0500
_audit_creation_method            fapswitch 2.2
_symmetry_space_group_name_H-M    P1
_symmetry_Int_Tables_number       1
_space_group_crystal_system       triclinic
_cell_length_a                    10.780932
_cell_length_b                    11.548838
_cell_length_c                    10.752932
_cell_angle_alpha                 89.982913
_cell_angle_beta                  90.131999
_cell_angle_gamma                 90.009247
_cell_volume                      1338.8142249

loop_
_atom_site_label
_atom_site_type_symbol
_atom_site_description
_atom_site_fract_x
_atom_site_fract_y
_atom_site_fract_z
_atom_type_partial_charge
O1    O     O_R   0.500000 0.334450 0.602530 -0.571927
O2    O     O_R   0.500000 0.334450 0.397470 -0.571125
C1    C     C_R   0.500075 0.281128 0.500017 1.041605
O3    O     O_R   0.314800 0.499980 0.602530 -0.617969
O4    O     O_R   0.314800 0.499980 0.397470 -0.618494
O5    O     O_R   0.685200 0.499980 0.602530 -0.617615
O6    O     O_R   0.685200 0.499980 0.397470 -0.618887
C2    C     C_1   0.499983 0.940796 0.499942 -0.001480
C3    C     C_R   0.257271 0.502785 0.499597 0.971729
C4    C     C_R   0.742734 0.502984 0.500365 0.971606
Zn1   Zn    Zn3+2 0.500000 0.500000 0.636920 1.030690
Zn2   Zn    Zn3+2 0.500000 0.500000 0.363080 1.029389
C5    C     C_1   0.499992 0.500092 0.069694 0.073953
C6    C     C_1   0.500003 0.500092 0.930306 0.075547
O7    O     O_R   0.500000 0.665550 0.602530 -0.630389
O8    O     O_R   0.500000 0.665550 0.397470 -0.630853
C7    C     C_R   0.499928 0.718841 0.499979 0.848744
C8    C     C_1   0.500073 0.161020 0.500039 -0.069634
C9    C     C_3   0.073434 0.442023 0.618301 0.048825
C10   C     C_3   0.068957 0.447185 0.377177 0.073619
C11   C     C_3   0.930998 0.449707 0.624012 0.072832
C12   C     C_3   0.926456 0.439569 0.383156 0.048966
H1    H     H_    0.107045 0.489413 0.701320 0.112172
H2    H     H_    0.087557 0.506365 0.299895 0.088208
H3    H     H_    0.912239 0.510306 0.699922 0.088045
H4    H     H_    0.892830 0.485173 0.298967 0.112908
C13   C     C_1   0.500042 0.059076 0.500005 0.054282
C14   C     C_3   0.076940 0.644364 0.503003 0.115422
C15   C     C_3   0.923350 0.644331 0.493329 0.115762
C16   C     C_3   0.121621 0.508250 0.498833 -0.269939
C17   C     C_3   0.878406 0.508358 0.500927 -0.270183
N1    N     N_1   0.500000 0.500010 0.180630 -0.072629
N2    N     N_1   0.500000 0.500010 0.819370 -0.072007
C18   C     C_1   0.499937 0.838887 0.499927 -0.222591
N3    N     N_R   0.126277 0.324832 0.637071 0.273630
O9    O     O_R   0.075144 0.232352 0.591467 -0.253884
O10   O     O_R   0.213986 0.310823 0.719171 -0.353592
N4    N     N_R   0.127531 0.337746 0.336569 0.277074
O11   O     O_R   0.214126 0.286062 0.400020 -0.350362
O12   O     O_R   0.103297 0.299525 0.225238 -0.329465
N5    N     N_R   0.872577 0.340937 0.667029 0.277077
O13   O     O_R   0.786746 0.287421 0.604284 -0.347774
O14   O     O_R   0.896349 0.305177 0.779431 -0.330284
N6    N     N_R   0.873358 0.322076 0.367431 0.273323
O15   O     O_R   0.925485 0.230214 0.413414 -0.253386
O16   O     O_R   0.783971 0.306911 0.287411 -0.354590
C19   C     C_3   0.121390 0.699714 0.632519 -0.453731
C20   C     C_3   0.134410 0.833438 0.645276 -0.346567
C21   C     C_3   0.136966 0.871009 0.781467 -0.779838
H5    H     H_    0.047182 0.851128 0.826956 0.257679
H6    H     H_    0.212893 0.825932 0.832021 0.246182
H7    H     H_    0.153096 0.965846 0.787140 0.287580
H8    H     H_    0.223544 0.861658 0.603190 0.220416
H9    H     H_    0.061217 0.882432 0.596761 0.233101
H10   H     H_    0.067240 0.666392 0.709401 0.202480
H11   H     H_    0.215561 0.669523 0.655667 0.210574
C22   C     C_3   0.152347 0.722961 0.403290 -0.334449
C23   C     C_3   0.179114 0.699022 0.262887 -0.406839
C24   C     C_3   0.249426 0.800763 0.204973 -0.839059
H12   H     H_    0.192643 0.880924 0.209178 0.280340
H13   H     H_    0.338568 0.815565 0.254459 0.274846
H14   H     H_    0.269985 0.781684 0.105870 0.245825
H15   H     H_    0.238878 0.622926 0.249026 0.260174
H16   H     H_    0.097081 0.686359 0.203997 0.215930
H17   H     H_    0.116910 0.811859 0.407090 0.217356
H18   H     H_    0.247734 0.731402 0.441313 0.186519
C25   C     C_3   0.848136 0.725059 0.591067 -0.336255
C26   C     C_3   0.820864 0.703559 0.731794 -0.409784
C27   C     C_3   0.751739 0.806875 0.787784 -0.835277
H19   H     H_    0.809483 0.886379 0.782212 0.280846
H20   H     H_    0.662839 0.821850 0.737939 0.274210
H21   H     H_    0.730841 0.789494 0.887186 0.246117
H22   H     H_    0.760069 0.628302 0.746647 0.260032
H23   H     H_    0.902635 0.690831 0.791072 0.215806
H24   H     H_    0.884082 0.813713 0.585449 0.218278
H25   H     H_    0.752861 0.733185 0.552686 0.185552
C28   C     C_3   0.879093 0.697155 0.362499 -0.452376
C29   C     C_3   0.866599 0.830636 0.346521 -0.344891
C30   C     C_3   0.864066 0.865473 0.209462 -0.784709
H26   H     H_    0.953868 0.844808 0.164464 0.257756
H27   H     H_    0.788183 0.819355 0.159948 0.246338
H28   H     H_    0.847871 0.960158 0.201537 0.286314
H29   H     H_    0.777578 0.859975 0.387947 0.220669
H30   H     H_    0.939939 0.880408 0.393856 0.232782
H31   H     H_    0.932909 0.661908 0.286400 0.201898
H32   H     H_    0.784782 0.667009 0.340111 0.211825

loop_
_geom_bond_atom_site_label_1
_geom_bond_atom_site_label_2
_geom_bond_distance
_ccdc_geom_bond_type
O6    C4    1.267664 A    
C14   C19   1.604738 S    
N5    O13   1.300242 A    
C5    N1    1.192884 T    
N3    O9    1.297667 A    
O1    Zn1   1.947453 S    
C22   H18   1.110065 S    
O2    Zn2   1.947237 S    
C6    N2    1.192888 T    
C10   C16   1.589966 S    
C28   C29   1.556877 S    
C20   H9    1.101383 S    
C11   C17   1.590011 S    
C14   C15   1.658859 S    
C9    C11   1.539535 S    
N4    O11   1.300134 A    
C26   H23   1.096568 S    
C1    C8    1.387111 S    
C27   H20   1.110576 S    
C15   C25   1.623589 S    
Zn1   O7    1.947236 S    
C29   H29   1.111971 S    
C12   N6    1.482199 S    
C10   H2    1.094667 S    
O8    C7    1.262613 A    
C21   H6    1.111068 S    
C28   H31   1.083679 S    
C24   H12   1.110939 S    
C5    C6    1.498834 S    
Zn2   N1    1.961872 S    
N5    O14   1.302071 A    
O6    Zn2   2.029747 S    
C4    C17   1.463968 S    
N6    O16   1.302285 A    
C23   H16   1.096347 S    
C20   H8    1.111872 S    
C24   H13   1.110674 S    
C12   C17   1.583336 S    
C25   C26   1.561968 S    
Zn2   O8    1.947452 S    
Zn1   N2    1.961871 S    
O4    Zn2   2.031423 S    
O5    Zn1   2.031422 S    
C30   H27   1.111055 S    
C29   C30   1.527776 S    
C26   C27   1.531111 S    
C23   C24   1.531168 S    
C14   C22   1.624086 S    
O1    C1    1.262826 A    
C27   H21   1.111074 S    
C9    H1    1.107469 S    
O4    C3    1.262872 A    
C10   N4    1.479434 S    
C19   C20   1.556767 S    
C21   H7    1.110616 S    
C2    C18   1.176923 T    
O3    Zn1   2.029748 S    
C3    C16   1.463807 S    
C11   N5    1.479640 S    
C20   C21   1.527688 S    
C10   C12   1.540293 S    
C28   H32   1.100801 S    
C25   H24   1.096376 S    
C7    C18   1.386394 S    
N6    O15   1.297850 A    
C19   H10   1.083650 S    
C23   H15   1.100170 S    
O7    C7    1.262685 A    
C11   H3    1.094581 S    
C24   H14   1.111096 S    
N3    O10   1.302225 A    
C8    C13   1.177336 T    
C22   H17   1.096313 S    
O5    C4    1.263293 A    
C30   H28   1.110602 S    
C14   C16   1.644832 S    
O2    C1    1.262819 A    
C26   H22   1.100318 S    
C15   C17   1.645376 S    
C9    N3    1.482093 S    
N4    O12   1.301947 A    
C22   C23   1.562472 S    
C27   H19   1.110929 S    
C30   H26   1.109365 S    
C29   H30   1.101276 S    
C15   C28   1.604813 S    
C21   H5    1.109490 S    
C12   H4    1.107528 S    
C2    C13   1.365995 S    
C25   H25   1.110057 S    
O3    C3    1.267916 A    
C9    C16   1.583520 S    
C19   H11   1.101442 S    
