data_mof_unit_36002.cif
_audit_creation_date              2012-12-11T15:54:36-0500
_audit_creation_method            fapswitch 2.2
_symmetry_space_group_name_H-M    P1
_symmetry_Int_Tables_number       1
_space_group_crystal_system       triclinic
_cell_length_a                    6.924357
_cell_length_b                    14.458851
_cell_length_c                    16.241341
_cell_angle_alpha                 90.133919
_cell_angle_beta                  89.382148
_cell_angle_gamma                 90.061898
_cell_volume                      1625.95468726

loop_
_atom_site_label
_atom_site_type_symbol
_atom_type_description
_atom_site_fract_x
_atom_site_fract_y
_atom_site_fract_z
_atom_type_partial_charge
O1    O     O_R   0.638180 0.333920 0.163320 -0.542083
O2    O     O_R   0.361820 0.666080 0.836680 -0.543255
O3    O     O_R   0.308470 0.344960 0.336080 -0.546280
O4    O     O_R   0.691530 0.655040 0.663920 -0.498034
O5    O     O_R   0.138140 0.166110 0.336680 -0.538659
O6    O     O_R   0.861860 0.833890 0.663320 -0.535040
C1    C     C_R   0.476628 0.369109 0.363603 0.787061
C2    C     C_R   0.523252 0.631122 0.636397 0.790348
O7    O     O_R   0.308460 0.344950 0.163930 -0.539032
O8    O     O_R   0.691540 0.655050 0.836070 -0.539725
O9    O     O_R   0.138140 0.166100 0.163310 -0.552176
O10   O     O_R   0.861860 0.833900 0.836690 -0.557311
C3    C     C_R   0.478241 0.367403 0.135418 0.696137
C4    C     C_R   0.521728 0.632524 0.864490 0.692219
O11   O     O_R   0.638180 0.333930 0.336700 -0.505507
O12   O     O_R   0.361820 0.666070 0.663300 -0.517928
O13   O     O_3   0.471670 0.191340 0.250000 -0.373038
O14   O     O_3   0.528330 0.808660 0.750000 -0.390383
V1    V     V_3+5 0.196830 0.260900 0.250000 1.451205
V2    V     V_3+5 0.803170 0.739100 0.750000 1.508902
O15   O     O_R   0.808420 0.155070 0.163920 -0.545358
O16   O     O_R   0.191580 0.844930 0.836080 -0.551961
C5    C     C_R   0.977604 0.134136 0.133917 0.676797
C6    C     C_R   0.022336 0.866239 0.865800 0.667129
O17   O     O_R   0.808420 0.155080 0.336070 -0.517406
O18   O     O_R   0.191580 0.844920 0.663930 -0.524227
C7    C     C_R   0.976901 0.131467 0.363531 0.752737
C8    C     C_R   0.023063 0.867745 0.635689 0.838740
V3    V     V_3+5 0.696830 0.239130 0.250000 1.484098
V4    V     V_3+5 0.303170 0.760870 0.750000 1.465866
O19   O     O_3   0.971850 0.308690 0.250010 -0.365349
O20   O     O_3   0.028150 0.691310 0.749990 -0.352771
C9    C     C_R   0.772975 0.163958 0.520021 0.277157
C10   C     C_R   0.231638 0.837533 0.479729 0.310859
C11   C     C_R   0.631999 0.167068 0.582237 0.090616
C12   C     C_R   0.369227 0.835065 0.415151 -0.029674
C13   C     C_R   0.642448 0.104694 0.647415 0.332991
C14   C     C_R   0.337432 0.890144 0.345473 0.368585
C15   C     C_R   0.800258 0.042998 0.650052 0.022306
C16   C     C_R   0.180964 0.951722 0.346278 0.074009
C17   C     C_R   0.900746 0.019085 0.575454 -0.020626
C18   C     C_R   0.093728 0.979168 0.422881 -0.061114
C19   C     C_R   0.887064 0.082141 0.508217 -0.090497
C20   C     C_R   0.114781 0.918138 0.491203 -0.033688
C21   C     C_R   0.014738 0.936667 0.567058 -0.113779
C22   C     C_R   0.984727 0.062790 0.432127 -0.110523
C23   C     C_R   0.179364 0.975316 0.966380 -0.130612
C24   C     C_R   0.820516 0.025320 0.033113 -0.128562
H1    H     H_    0.320203 0.957210 0.941666 0.112798
H2    H     H_    0.679679 0.043424 0.057828 0.121051
C25   C     C_R   0.168489 0.039611 0.030960 -0.131069
C26   C     C_R   0.831386 0.961034 0.968525 -0.141785
H3    H     H_    0.301320 0.069077 0.053924 0.116656
H4    H     H_    0.698553 0.931578 0.945551 0.112481
C27   C     C_R   0.988921 0.065510 0.065302 -0.045984
C28   C     C_R   0.010969 0.935067 0.934240 -0.037467
C29   C     C_R   0.332730 0.447693 0.489223 0.281750
C30   C     C_R   0.667442 0.555755 0.509982 0.352328
C31   C     C_R   0.350291 0.504235 0.558646 0.300898
C32   C     C_R   0.650074 0.497749 0.440001 0.239555
C33   C     C_R   0.515073 0.561343 0.568526 -0.344296
C34   C     C_R   0.484749 0.440403 0.430549 -0.319946
C35   C     C_R   0.401749 0.414815 0.989149 0.339592
C36   C     C_R   0.598068 0.585107 0.010665 0.337807
C37   C     C_R   0.410382 0.479925 0.924100 0.098056
C38   C     C_R   0.589237 0.520059 0.075727 0.105943
C39   C     C_R   0.509452 0.565070 0.934109 -0.229082
C40   C     C_R   0.490425 0.434841 0.065725 -0.230755
O21   O     O_3   0.444982 0.881712 0.273363 -0.643858
H5    H     H_    0.532740 0.828036 0.276224 0.305174
O22   O     O_3   0.513710 0.113797 0.712607 -0.642857
H6    H     H_    0.515230 0.056354 0.745690 0.292754
C41   C     C_3   0.320768 0.456779 0.841942 -0.649645
H7    H     H_    0.432534 0.461577 0.792585 0.158808
H8    H     H_    0.259240 0.386050 0.839201 0.252877
H9    H     H_    0.201829 0.505829 0.828987 0.201044
C42   C     C_3   0.677809 0.543503 0.157978 -0.674180
H10   H     H_    0.565018 0.539178 0.206935 0.154780
H11   H     H_    0.796228 0.494354 0.171455 0.204083
H12   H     H_    0.739772 0.614149 0.160635 0.247179
O23   O     O_3   0.803125 0.244164 0.476293 -0.620135
H13   H     H_    0.944730 0.253164 0.472476 0.309646
O24   O     O_3   0.199815 0.759552 0.526927 -0.625745
H14   H     H_    0.246093 0.704178 0.496554 0.296523
C43   C     C_3   0.483817 0.243533 0.582045 -0.568846
H15   H     H_    0.375731 0.237158 0.632617 0.231277
H16   H     H_    0.556966 0.311525 0.588341 0.209648
H17   H     H_    0.404442 0.241693 0.523016 0.200128
C44   C     C_3   0.542743 0.772270 0.420669 -0.775881
H18   H     H_    0.676018 0.810807 0.403450 0.225525
H19   H     H_    0.564103 0.747992 0.484632 0.237233
H20   H     H_    0.525049 0.711502 0.379484 0.204724
C45   C     C_3   0.881696 0.024615 0.734061 -0.738122
H21   H     H_    0.877592 0.088880 0.771721 0.226045
H22   H     H_    0.791069 0.972590 0.765427 0.207921
H23   H     H_    0.035826 0.004265 0.731836 0.185516
C46   C     C_3   0.095845 0.972437 0.263436 -0.660773
H24   H     H_    0.085513 0.907671 0.226736 0.214436
H25   H     H_    0.945884 0.998526 0.267220 0.169140
H26   H     H_    0.193895 0.019922 0.230106 0.226927
O25   O     O_3   0.168744 0.394665 0.483621 -0.615212
H27   H     H_    0.101037 0.416336 0.433893 0.335624
O26   O     O_3   0.827833 0.611744 0.520435 -0.606311
H28   H     H_    0.928592 0.596996 0.478818 0.341875
O27   O     O_3   0.201790 0.500879 0.615933 -0.586432
H29   H     H_    0.257124 0.509519 0.671269 0.287640
O28   O     O_3   0.794169 0.501552 0.380705 -0.654409
H30   H     H_    0.735608 0.491757 0.326180 0.286405
O29   O     O_3   0.307058 0.331928 0.975018 -0.640150
H31   H     H_    0.344878 0.285248 0.016162 0.280661
O30   O     O_3   0.692710 0.668011 0.024796 -0.642691
H32   H     H_    0.654527 0.714754 0.983770 0.279958

loop_
_geom_bond_atom_site_label_1
_geom_bond_atom_site_label_2
_ccdc_geom_bond_type
C12   C44   S    
C24   C27   A    
C38   C40   A    
C35   C37   A    
O25   H27   S    
O13   V3    S    
C41   H7    S    
O30   H32   S    
C6    C28   S    
O4    C2    A    
V1    O19   S    
C46   H24   S    
C29   C34   A    
C23   H1    S    
C42   H10   S    
O9    V1    S    
C31   O27   S    
C11   C13   A    
O3    C1    A    
C29   C31   A    
O12   V4    S    
C37   C41   S    
C32   C34   A    
C18   C22   A    
O9    C5    A    
O7    C3    A    
C15   C45   S    
C9    C11   A    
O5    C7    A    
O7    V1    S    
O6    C8    A    
O8    V2    S    
C37   C39   A    
O28   H30   S    
O3    V1    S    
O14   V4    S    
C44   H19   S    
C25   C27   A    
C2    C33   S    
C30   C33   A    
C16   C18   A    
C14   O21   S    
C2    O12   A    
C17   C19   A    
C18   C20   A    
C46   H25   S    
C26   H4    S    
O11   V3    S    
C43   H16   S    
O17   V3    S    
C13   C15   A    
C8    C21   S    
C31   C33   A    
C9    C19   A    
C36   C39   A    
C10   C20   A    
C15   C17   A    
O8    C4    A    
C16   C46   S    
C36   O30   S    
C23   C25   A    
C1    O11   A    
C43   H15   S    
O15   V3    S    
O23   H13   S    
C25   H3    S    
C36   C38   A    
C35   O29   S    
C1    C34   S    
V4    O20   S    
O24   H14   S    
C4    C39   S    
O10   V2    S    
O1    V3    S    
C42   H11   S    
C45   H21   S    
C44   H20   S    
C32   O28   S    
C7    C22   S    
O18   V4    S    
C45   H23   S    
C13   O22   S    
C41   H9    S    
O16   C6    A    
O1    C3    A    
C10   O24   S    
C41   H8    S    
C12   C14   A    
C46   H26   S    
O6    V2    S    
C20   C21   A    
V2    O20   S    
C43   H17   S    
C38   C42   S    
C35   C40   A    
C11   C43   S    
O16   V4    S    
C5    C27   S    
O5    V1    S    
O17   C7    A    
C29   O25   S    
O27   H29   S    
O10   C6    A    
O18   C8    A    
O2    V4    S    
O15   C5    A    
O22   H6    S    
V3    O19   S    
O29   H31   S    
C14   C16   A    
C42   H12   S    
C9    O23   S    
C24   H2    S    
O13   V1    S    
C10   C12   A    
O14   V2    S    
O21   H5    S    
O2    C4    A    
C19   C22   A    
O4    V2    S    
C24   C26   A    
C45   H22   S    
O26   H28   S    
C17   C21   A    
C30   O26   S    
C44   H18   S    
C30   C32   A    
C26   C28   A    
C23   C28   A    
C3    C40   S    
