data_mof_unit_23451.cif
_audit_creation_date              2012-12-10T20:25:44-0500
_audit_creation_method            fapswitch 2.2
_symmetry_space_group_name_H-M    P1
_symmetry_Int_Tables_number       1
_space_group_crystal_system       triclinic
_cell_length_a                    8.585953
_cell_length_b                    10.731776
_cell_length_c                    9.986453
_cell_angle_alpha                 87.999524
_cell_angle_beta                  95.755176
_cell_angle_gamma                 94.378352
_cell_volume                      912.522451726

loop_
_atom_site_label
_atom_site_type_symbol
_atom_type_description
_atom_site_fract_x
_atom_site_fract_y
_atom_site_fract_z
_atom_type_partial_charge
C1    C     C_R   0.510321 0.260885 0.501845 0.928985
C2    C     C_R   0.419399 0.405221 0.928132 0.102180
C3    C     C_3   0.244549 0.363104 0.920455 0.226021
C4    C     C_R   0.204501 0.513383 0.465304 0.927863
C5    C     C_3   0.253408 0.366497 0.074548 -0.095958
C6    C     C_R   0.505317 0.740238 0.498614 0.971695
C7    C     C_R   0.797357 0.517461 0.532014 0.946237
C8    C     C_2   0.045940 0.545620 0.440943 0.012291
C9    C     C_2   0.962253 0.550396 0.544784 -0.387877
C10   C     C_R   0.572058 0.063025 0.621642 -0.073834
C11   C     C_R   0.545162 0.131764 0.502076 -0.361496
C12   C     C_R   0.536307 0.943147 0.376775 0.511689
C13   C     C_R   0.550939 0.072004 0.379171 0.560393
C14   C     C_3   0.989745 0.594017 0.301741 -0.819858
C15   C     C_3   0.132721 0.456640 0.855519 -0.811160
C16   C     C_3   0.206495 0.232883 0.861255 -0.734725
C17   C     C_3   0.220650 0.243170 0.152848 -0.716603
C18   C     C_3   0.682739 0.695013 0.137872 -0.659277
C19   C     C_R   0.533968 0.873477 0.498036 -0.282635
C20   C     C_R   0.568677 0.934787 0.619825 -0.114556
C21   C     C_3   0.490152 0.919640 0.747228 0.462782
C22   C     C_3   0.489854 0.060208 0.745633 0.423260
C23   C     C_R   0.422190 0.405109 0.070332 0.191569
C24   C     C_R   0.588699 0.587689 0.072332 0.017378
C25   C     C_R   0.590444 0.585161 0.930122 0.642238
F1    F     F_    0.682278 0.670832 0.864918 -0.667615
F2    F     F_    0.555463 0.135912 0.259701 -0.612560
F3    F     F_    0.505482 0.889231 0.255697 -0.639276
F4    F     F_    0.339666 0.862410 0.727961 -0.668398
F5    F     F_    0.583138 0.114063 0.852536 -0.634773
H1    H     H_    0.190194 0.442736 0.112361 0.181567
H2    H     H_    0.030079 0.462267 0.914027 0.239262
H3    H     H_    0.084908 0.197636 0.878540 0.252344
H4    H     H_    0.213845 0.239414 0.750895 0.221186
H5    H     H_    0.288551 0.165437 0.907798 0.259667
H6    H     H_    0.301497 0.171854 0.133008 0.299792
H7    H     H_    0.232808 0.260194 0.262305 0.246618
H8    H     H_    0.097859 0.205989 0.125302 0.237584
H9    H     H_    0.691585 0.686102 0.247404 0.269816
H10   H     H_    0.802951 0.701172 0.105380 0.222556
H11   H     H_    0.630332 0.782734 0.102348 0.298932
H12   H     H_    0.018226 0.572495 0.642809 0.180596
H13   H     H_    0.564585 0.880001 0.833170 0.175516
H14   H     H_    0.371713 0.093690 0.724756 0.089951
H15   H     H_    0.086126 0.617882 0.237094 0.247694
H16   H     H_    0.907279 0.524416 0.246876 0.267957
H17   H     H_    0.939508 0.684275 0.314192 0.236301
H18   H     H_    0.191994 0.551693 0.845090 0.251884
H19   H     H_    0.084378 0.420059 0.757087 0.253257
N1    N     N_R   0.498950 0.499140 0.142680 -0.146049
N2    N     N_R   0.498950 0.499180 0.857030 -0.175399
O1    O     O_R   0.500020 0.316790 0.614690 -0.600170
O2    O     O_R   0.500000 0.316760 0.385350 -0.554421
O3    O     O_R   0.271760 0.500010 0.587850 -0.635742
O4    O     O_R   0.271740 0.499970 0.358500 -0.637254
O5    O     O_R   0.500000 0.683240 0.614650 -0.545829
O6    O     O_R   0.499980 0.683210 0.385310 -0.601606
O7    O     O_R   0.728260 0.500030 0.641500 -0.577063
O8    O     O_R   0.728240 0.499990 0.412150 -0.619880
Zn1   Zn    Zn3+2 0.500010 0.500020 0.653130 1.035130
Zn2   Zn    Zn3+2 0.499990 0.499980 0.346870 0.981821

loop_
_geom_bond_atom_site_label_1
_geom_bond_atom_site_label_2
_ccdc_geom_bond_type
C18   H9    S    
C25   N2    A    
C24   C25   A    
O6    Zn2   S    
C14   H17   S    
C17   H6    S    
C16   H3    S    
O1    Zn1   S    
C7    O7    A    
C19   C20   A    
C5    C23   S    
C4    C8    S    
C16   H4    S    
C2    C3    S    
C15   H2    S    
C4    O4    A    
O3    Zn1   S    
C21   C22   S    
C10   C22   S    
C6    C19   S    
C11   C13   A    
C6    O6    A    
C18   H10   S    
C9    H12   S    
C21   F4    S    
C15   H18   S    
C12   F3    S    
C18   C24   S    
O4    Zn2   S    
C12   C19   A    
C7    O8    A    
C14   H15   S    
C17   H8    S    
C15   H19   S    
C16   H5    S    
C24   N1    A    
C1    O1    A    
O8    Zn2   S    
C5    C17   S    
C10   C11   A    
C17   H7    S    
O7    Zn1   S    
C12   C13   A    
C3    C5    S    
C3    C15   S    
C20   C21   S    
C14   H16   S    
C2    N2    A    
C18   H11   S    
C6    O5    A    
C2    C23   A    
C7    C9    S    
N1    Zn2   S    
C1    O2    A    
C13   F2    S    
C23   N1    A    
C8    C14   S    
N2    Zn1   S    
C22   F5    S    
C4    O3    A    
C25   F1    S    
C21   H13   S    
O2    Zn2   S    
C22   H14   S    
C3    C16   S    
O5    Zn1   S    
C10   C20   A    
C8    C9    D    
C5    H1    S    
C1    C11   S    
