data_mof_unit_40468.cif
_audit_creation_date              2012-12-10T18:58:49-0500
_audit_creation_method            fapswitch 2.2
_symmetry_space_group_name_H-M    P1
_symmetry_Int_Tables_number       1
_space_group_crystal_system       triclinic
_cell_length_a                    12.996416
_cell_length_b                    10.849217
_cell_length_c                    9.550602
_cell_angle_alpha                 90.771994
_cell_angle_beta                  96.129427
_cell_angle_gamma                 90.499862
_cell_volume                      1338.75390297

loop_
_atom_site_label
_atom_site_type_symbol
_atom_type_description
_atom_site_fract_x
_atom_site_fract_y
_atom_site_fract_z
_atom_type_partial_charge
C1    C     C_R   0.497120 0.262471 0.498651 0.801408
C2    C     C_R   0.482829 0.934107 0.368870 -0.211302
C3    C     C_R   0.487009 0.871284 0.497599 -0.098421
C4    C     C_R   0.300545 0.499775 0.473711 0.804310
C5    C     C_R   0.473914 0.939267 0.619621 0.129073
C6    C     C_3   0.533453 0.939291 0.762280 -0.491580
C7    C     C_3   0.531687 0.078774 0.760121 -0.446296
C8    C     C_R   0.585096 0.539388 0.087134 0.212368
C9    C     C_R   0.420307 0.449193 0.061996 -0.083917
C10   C     C_R   0.420209 0.449361 0.913260 -0.078605
C11   C     C_R   0.586032 0.537973 0.939533 0.203084
C12   C     C_R   0.027795 0.484671 0.565445 0.175696
C13   C     C_3   0.634556 0.664106 0.946726 -0.096679
C14   C     C_3   0.633380 0.663982 0.105205 -0.459646
C15   C     C_R   0.497985 0.737918 0.500210 0.800419
C16   C     C_R   0.699444 0.498510 0.526151 0.799920
C17   C     C_R   0.812184 0.494103 0.540699 -0.053673
C18   C     C_R   0.187762 0.500380 0.458463 -0.049544
C19   C     C_R   0.024617 0.524992 0.314381 -0.213327
C20   C     C_R   0.132107 0.521232 0.326896 -0.197841
C21   C     C_R   0.135216 0.481495 0.577175 -0.264083
C22   C     C_R   0.972120 0.507339 0.433191 0.174741
C23   C     C_R   0.864778 0.512086 0.421852 -0.259219
C24   C     C_R   0.867706 0.469415 0.671252 -0.206728
C25   C     C_R   0.975181 0.465432 0.683825 -0.207008
C26   C     C_R   0.472987 0.066204 0.617883 0.125010
C27   C     C_R   0.485076 0.129670 0.494809 -0.099342
C28   C     C_R   0.482063 0.062732 0.367471 -0.215819
Cu1   Cu    Cu3+1 0.499990 0.499980 0.640670 0.935852
Cu2   Cu    Cu3+1 0.500010 0.500020 0.359330 0.939769
H1    H     H_    0.822450 0.529817 0.320258 0.144653
H2    H     H_    0.828117 0.451670 0.763060 0.148607
H3    H     H_    0.982673 0.542098 0.212308 0.135138
H4    H     H_    0.016995 0.446814 0.785569 0.131307
H5    H     H_    0.171582 0.535993 0.234128 0.153714
H6    H     H_    0.177696 0.464306 0.678931 0.143752
H7    H     H_    0.484856 0.109015 0.268146 0.165937
H8    H     H_    0.485416 0.884861 0.270052 0.158823
H9    H     H_    0.486807 0.901242 0.842930 0.192501
H10   H     H_    0.735664 0.669295 0.796494 0.243719
H11   H     H_    0.779519 0.587737 0.940136 0.215545
H12   H     H_    0.612699 0.901857 0.760483 0.206273
H13   H     H_    0.484126 0.119832 0.838552 0.196468
H14   H     H_    0.609579 0.121459 0.757509 0.203247
H15   H     H_    0.355023 0.409655 0.107387 0.136507
H16   H     H_    0.354865 0.409782 0.847917 0.136253
H17   H     H_    0.583655 0.733434 0.893471 0.175748
H18   H     H_    0.711239 0.661822 0.165713 0.195894
H19   H     H_    0.580372 0.733780 0.142868 0.185724
N1    N     N_R   0.500660 0.500930 0.148010 -0.181556
N2    N     N_R   0.500660 0.500890 0.852110 -0.193431
N3    N     N_3   0.739993 0.667349 0.906211 -0.576303
O1    O     O_R   0.500000 0.319640 0.618810 -0.579372
O2    O     O_R   0.500010 0.319680 0.381230 -0.583067
O3    O     O_R   0.348990 0.499960 0.599490 -0.590392
O4    O     O_R   0.349000 0.500000 0.361910 -0.592758
O5    O     O_R   0.499990 0.680320 0.618770 -0.581082
O6    O     O_R   0.500000 0.680360 0.381190 -0.585156
O7    O     O_R   0.651000 0.500000 0.638090 -0.594691
O8    O     O_R   0.651010 0.500040 0.400510 -0.580626

loop_
_geom_bond_atom_site_label_1
_geom_bond_atom_site_label_2
_ccdc_geom_bond_type
C10   H16   S    
C8    C14   S    
C1    O2    A    
C24   H2    S    
C9    H15   S    
C6    C7    S    
C7    H13   S    
C18   C21   A    
Cu2   O2    S    
C9    C10   A    
C25   H4    S    
H11   N3    S    
C19   C20   A    
C12   C25   A    
C13   N3    S    
C4    C18   S    
C2    H8    S    
C2    C3    A    
Cu2   N1    S    
C21   H6    S    
H10   N3    S    
C13   C14   S    
C4    O4    A    
C15   O5    A    
C26   C27   A    
C17   C23   A    
C7    C26   S    
Cu1   O1    S    
C28   H7    S    
C8    C11   A    
C10   N2    A    
Cu2   O6    S    
Cu2   O8    S    
Cu1   O5    S    
C8    N1    A    
C18   C20   A    
C4    O3    A    
C16   O8    A    
C5    C6    S    
C15   O6    A    
C17   C24   A    
C11   N2    A    
Cu1   N2    S    
Cu1   Cu2   S    
C5    C26   A    
C14   H19   S    
C12   C22   A    
C11   C13   S    
C19   C22   A    
C3    C15   S    
C24   C25   A    
C13   H17   S    
C6    H12   S    
C27   C28   A    
C1    C27   S    
C14   H18   S    
C1    O1    A    
C22   C23   A    
C2    C28   A    
Cu1   O3    S    
C7    H14   S    
C6    H9    S    
C20   H5    S    
Cu2   O4    S    
C12   C21   A    
C9    N1    A    
Cu1   O7    S    
C19   H3    S    
C16   C17   S    
C3    C5    A    
C16   O7    A    
C23   H1    S    
