data_mof_unit_53977.cif
_audit_creation_date              2012-12-11T15:48:37-0500
_audit_creation_method            fapswitch 2.2
_symmetry_space_group_name_H-M    P1
_symmetry_Int_Tables_number       1
_space_group_crystal_system       triclinic
_cell_length_a                    10.904539
_cell_length_b                    10.961923
_cell_length_c                    18.812169
_cell_angle_alpha                 90.461265
_cell_angle_beta                  89.818561
_cell_angle_gamma                 60.20332
_cell_volume                      1951.28546238

loop_
_atom_site_label
_atom_site_type_symbol
_atom_type_description
_atom_site_fract_x
_atom_site_fract_y
_atom_site_fract_z
_atom_type_partial_charge
C1    C     C_R   0.238913 0.646016 0.610284 0.528798
C2    C     C_R   0.577169 0.139115 0.708650 -0.185883
C3    C     C_R   0.578470 0.140612 0.782153 -0.180568
C4    C     C_R   0.653631 0.622183 0.600986 0.538989
C5    C     C_3   0.930159 0.146756 0.783410 -0.279562
C6    C     C_3   0.921743 0.158754 0.701736 -0.277198
C7    C     C_R   0.675657 0.158532 0.669832 0.013574
C8    C     C_R   0.178767 0.669606 0.834447 0.019112
C9    C     C_R   0.154042 0.576712 0.793937 0.018666
C10   C     C_R   0.161743 0.574728 0.720194 -0.006147
C11   C     C_R   0.209714 0.766647 0.725165 -0.166469
C12   C     C_3   0.643266 0.568035 0.800968 -0.249894
C13   C     C_R   0.208043 0.764172 0.798948 -0.170248
C14   C     C_3   0.231164 0.420392 0.797267 -0.283974
C15   C     C_3   0.237349 0.418622 0.716846 -0.270534
C16   C     C_R   0.631173 0.223800 0.600936 0.519952
C17   C     C_R   0.192473 0.667516 0.684445 0.015067
C18   C     C_R   0.659704 0.674642 0.169734 0.064444
C19   C     C_R   0.753233 0.554115 0.206078 0.075556
C20   C     C_R   0.758268 0.548452 0.277170 0.033462
C21   C     C_R   0.558462 0.779664 0.286178 -0.095080
C22   C     C_R   0.559765 0.789995 0.211238 -0.127863
C23   C     C_3   0.697100 0.672282 0.812449 0.047878
C24   C     C_3   0.878358 0.409952 0.196979 -0.247743
C25   C     C_3   0.878644 0.400878 0.278218 -0.249512
C26   C     C_R   0.659193 0.655631 0.320181 0.043994
C27   C     C_R   0.681819 0.073745 0.184988 -0.000908
C28   C     C_R   0.220803 0.649646 0.401700 0.548708
C29   C     C_R   0.576550 0.206050 0.205940 -0.007591
C30   C     C_R   0.567931 0.248358 0.274699 -0.054908
C31   C     C_R   0.742657 0.013097 0.310354 0.249879
C32   C     C_R   0.756064 0.973372 0.237697 0.317877
C33   C     C_3   0.529944 0.349373 0.177947 0.256954
C34   C     C_3   0.668267 0.646720 0.676535 0.059152
C35   C     C_3   0.526885 0.394990 0.254828 -0.204518
C36   C     C_R   0.655139 0.159648 0.327398 -0.041128
C37   C     C_R   0.152127 0.671884 0.182129 -0.016756
C38   C     C_R   0.186578 0.762701 0.218095 -0.046825
C39   C     C_R   0.192611 0.761440 0.290089 0.023218
C40   C     C_R   0.643588 0.623422 0.392898 0.557211
C41   C     C_R   0.152485 0.564371 0.294388 0.370281
C42   C     C_R   0.144278 0.566103 0.220223 -0.090892
C43   C     C_3   0.124135 0.920122 0.216795 -0.179610
C44   C     C_3   0.129842 0.916839 0.296854 0.260735
C45   C     C_3   0.823379 0.603007 0.692614 -0.241281
C46   C     C_R   0.169410 0.668380 0.330122 0.032292
C47   C     C_R   0.703017 0.099366 0.895190 0.558729
C48   C     C_R   0.722010 0.687012 0.888595 0.544313
C49   C     C_R   0.118996 0.705836 0.905879 0.540961
C50   C     C_R   0.702564 0.038107 0.110413 0.639425
C51   C     C_R   0.695376 0.690606 0.097501 0.586514
C52   C     C_R   0.620770 0.222777 0.397240 0.532419
C53   C     C_R   0.093028 0.709966 0.112437 0.596510
C54   C     C_3   0.588187 0.816004 0.779986 -0.232083
C55   C     C_3   0.573238 0.801957 0.699457 -0.245608
C56   C     C_3   0.623027 0.555253 0.720790 -0.216212
C57   C     C_3   0.839385 0.619551 0.772084 -0.219874
C58   C     C_3   0.839809 0.939252 0.425071 -0.106363
C59   C     C_R   0.691116 0.138510 0.820553 0.014474
C60   C     C_R   0.796543 0.141650 0.779997 0.016309
C61   C     C_R   0.789444 0.150898 0.707696 0.019054
Cr1   Cr    Cr6+3 0.392960 0.397920 0.502240 1.067256
Cr2   Cr    Cr6+3 0.398340 0.708480 0.501250 1.050406
Cr3   Cr    Cr6+3 0.708670 0.393570 0.496460 1.017923
Cr4   Cr    Cr6+3 0.937650 0.938540 0.007610 1.041098
Cr5   Cr    Cr6+3 0.625330 0.937370 0.994520 1.014613
Cr6   Cr    Cr6+3 0.937940 0.625230 0.001190 1.023401
F1    F     F_    0.840751 0.836688 0.218792 -0.646189
F2    F     F_    0.632489 0.354883 0.137109 -0.649072
F3    F     F_    0.148611 0.459918 0.330581 -0.631370
F4    F     F_    0.224522 0.954426 0.323426 -0.637226
H1    H     H_    0.626612 0.890724 0.789044 0.147858
H2    H     H_    0.007138 0.065426 0.673683 0.139996
H3    H     H_    0.234672 0.840631 0.700541 0.130542
H4    H     H_    0.483224 0.858361 0.806542 0.119817
H5    H     H_    0.225340 0.839668 0.828253 0.124022
H6    H     H_    0.164832 0.378407 0.818947 0.133178
H7    H     H_    0.335514 0.379756 0.823064 0.144344
H8    H     H_    0.345220 0.377105 0.695224 0.178927
H9    H     H_    0.173172 0.377366 0.691483 0.128652
H10   H     H_    0.480237 0.867546 0.317188 0.212983
H11   H     H_    0.487155 0.888691 0.186536 0.136721
H12   H     H_    0.684602 0.443467 0.704320 0.137720
H13   H     H_    0.972184 0.410999 0.175026 0.152178
H14   H     H_    0.853598 0.334502 0.170229 0.210395
H15   H     H_    0.847915 0.324456 0.297982 0.145687
H16   H     H_    0.460528 0.838710 0.687318 0.132090
H17   H     H_    0.974362 0.392411 0.303019 0.240467
H18   H     H_    0.424589 0.397504 0.152429 0.124684
H19   H     H_    0.609649 0.420975 0.267790 0.151303
H20   H     H_    0.420996 0.472165 0.274471 0.101638
H21   H     H_    0.124781 0.490224 0.193251 0.134875
H22   H     H_    0.013502 0.978628 0.197564 0.138733
H23   H     H_    0.920803 0.516118 0.792852 0.138544
H24   H     H_    0.604608 0.869754 0.669890 0.116830
H25   H     H_    0.197162 0.951175 0.192023 0.157917
H26   H     H_    0.024790 0.971295 0.323095 0.125005
H27   H     H_    0.876359 0.696627 0.780242 0.132823
H28   H     H_    0.855775 0.669070 0.662028 0.118661
H29   H     H_    0.719627 0.463658 0.822649 0.125981
H30   H     H_    0.541055 0.605439 0.829599 0.121351
H31   H     H_    0.510250 0.588914 0.710592 0.129279
H32   H     H_    0.745460 0.982650 0.460460 0.129658
H33   H     H_    0.884206 0.010742 0.420932 0.112830
H34   H     H_    0.895800 0.491592 0.676822 0.132944
H35   H     H_    0.921855 0.841942 0.450506 0.143701
H36   H     H_    0.490053 0.135789 0.682970 0.134789
H37   H     H_    0.492609 0.135189 0.808173 0.141432
H38   H     H_    0.019417 0.047212 0.802596 0.152261
H39   H     H_    0.916915 0.242759 0.810648 0.125324
H40   H     H_    0.904195 0.261173 0.681974 0.142393
O1    O     O_R   0.507380 0.255700 0.581440 -0.538716
O2    O     O_R   0.837170 0.593410 0.915250 -0.524447
O3    O     O_R   0.065200 0.635530 0.931570 -0.503395
O4    O     O_R   0.280320 0.527350 0.578930 -0.505568
O5    O     O_R   0.068260 0.828890 0.091840 -0.528195
O6    O     O_R   0.798870 0.057410 0.079340 -0.457639
O7    O     O_R   0.584930 0.080350 0.076780 -0.517708
O8    O     O_R   0.626960 0.809650 0.067060 -0.527483
O9    O     O_R   0.816040 0.596610 0.076510 -0.502553
O10   O     O_R   0.045610 0.638500 0.081060 -0.500810
O11   O     O_3   0.833640 0.833710 0.001100 -0.278846
O12   O     O_R   0.524480 0.695810 0.424040 -0.483416
O13   O     O_R   0.260510 0.739590 0.584590 -0.536789
O14   O     O_R   0.532300 0.695080 0.573820 -0.510050
O15   O     O_R   0.744840 0.503500 0.576370 -0.526160
O16   O     O_R   0.699120 0.276560 0.571960 -0.508952
O17   O     O_R   0.498940 0.256500 0.419860 -0.468869
O18   O     O_R   0.272500 0.528080 0.429150 -0.438088
O19   O     O_R   0.252060 0.740380 0.423010 -0.488523
O20   O     O_3   0.809066 0.902482 0.358284 -0.535994
O21   O     O_R   0.736390 0.504290 0.414790 -0.506508
O22   O     O_R   0.691300 0.277290 0.422170 -0.525772
O23   O     O_3   0.499990 0.499990 0.499980 -0.267197
O24   O     O_R   0.089400 0.825690 0.930570 -0.530019
O25   O     O_R   0.818460 0.054440 0.929850 -0.488767
O26   O     O_R   0.606060 0.077150 0.915510 -0.534162
O27   O     O_R   0.646550 0.806680 0.917570 -0.514020

loop_
_geom_bond_atom_site_label_1
_geom_bond_atom_site_label_2
_ccdc_geom_bond_type
C21   C26   A    
C34   C56   S    
C8    C13   A    
C47   O25   A    
C27   C29   A    
C50   O6    A    
C41   C42   A    
C2    C7    A    
Cr6   O2    S    
C43   C44   S    
Cr2   O13   S    
C52   O17   A    
C12   C23   S    
C45   C57   S    
C29   C30   A    
C20   C26   A    
C4    O14   A    
C56   H12   S    
C22   H11   S    
C6    C61   S    
Cr6   O3    S    
C18   C19   A    
C10   C15   S    
C31   C36   A    
C5    C6    S    
Cr2   O19   S    
C20   C25   S    
C10   C17   A    
C29   C33   S    
C2    H36   S    
C44   F4    S    
C28   O18   A    
C6    H40   S    
C14   H6    S    
C37   C42   A    
C7    C61   A    
C31   O20   S    
C33   C35   S    
Cr3   O22   S    
C15   H8    S    
Cr3   O21   S    
C8    C9    A    
C30   C36   A    
C51   O8    A    
C41   C46   A    
Cr5   O11   S    
Cr6   O9    S    
C42   H21   S    
C36   C52   S    
C27   C50   S    
C33   F2    S    
C32   F1    S    
C37   C53   S    
Cr1   O1    S    
C49   O3    A    
C40   O21   A    
C59   C60   A    
C50   O7    A    
C21   C22   A    
C52   O22   A    
Cr1   O18   S    
Cr6   O10   S    
C9    C10   A    
C45   H34   S    
C18   C51   S    
C51   O9    A    
Cr3   O23   S    
C23   C54   S    
C4    C34   S    
Cr2   O23   S    
C24   C25   S    
C55   H24   S    
C45   H28   S    
C25   H17   S    
C49   O24   A    
C60   C61   A    
C58   H35   S    
C12   C56   S    
C9    C14   S    
C37   C38   A    
C33   H18   S    
C44   H26   S    
C15   H9    S    
Cr5   O27   S    
C13   H5    S    
C58   O20   S    
Cr3   O16   S    
C28   C46   S    
C47   O26   A    
C43   H25   S    
C34   C55   S    
C34   C45   S    
Cr2   O14   S    
Cr4   O11   S    
Cr4   O24   S    
C39   C46   A    
C30   C35   S    
C7    C16   S    
C21   H10   S    
Cr3   O15   S    
Cr5   O8    S    
Cr5   O7    S    
Cr4   O5    S    
C38   C43   S    
C58   H33   S    
Cr6   O11   S    
C16   O1    A    
C6    H2    S    
C24   H14   S    
C23   C57   S    
C40   O12   A    
C54   C55   S    
C11   C17   A    
C23   C48   S    
C5    C60   S    
C27   C32   A    
C18   C22   A    
C31   C32   A    
C11   H3    S    
Cr2   O12   S    
C53   O5    A    
C39   C44   S    
C4    O15   A    
C3    H37   S    
C1    C17   S    
C48   O27   A    
C57   H23   S    
Cr1   O23   S    
C19   C20   A    
C2    C3    A    
C24   H13   S    
C1    O13   A    
C56   H31   S    
Cr1   O4    S    
C53   O10   A    
Cr1   O17   S    
C11   C13   A    
C26   C40   S    
C38   C39   A    
Cr5   O26   S    
C5    H38   S    
C57   H27   S    
C25   H15   S    
C43   H22   S    
C19   C24   S    
C28   O19   A    
C14   H7    S    
C55   H16   S    
C16   O16   A    
C12   H29   S    
Cr4   O25   S    
C47   C59   S    
C54   H4    S    
C35   H19   S    
C12   H30   S    
C54   H1    S    
C5    H39   S    
Cr4   O6    S    
C14   C15   S    
C48   O2    A    
C58   H32   S    
C1    O4    A    
C8    C49   S    
C35   H20   S    
C41   F3    S    
C3    C59   A    
