data_mof_unit_39797.cif
_audit_creation_date              2012-12-10T19:30:36-0500
_audit_creation_method            fapswitch 2.2
_symmetry_space_group_name_H-M    P1
_symmetry_Int_Tables_number       1
_space_group_crystal_system       triclinic
_cell_length_a                    14.927158
_cell_length_b                    15.720604
_cell_length_c                    16.729688
_cell_angle_alpha                 90.193357
_cell_angle_beta                  86.455896
_cell_angle_gamma                 89.463939
_cell_volume                      3918.14410974

loop_
_atom_site_label
_atom_site_type_symbol
_atom_type_description
_atom_site_fract_x
_atom_site_fract_y
_atom_site_fract_z
_atom_type_partial_charge
C1    C     C_R   0.499580 0.662432 0.500172 0.860148
C2    C     C_R   0.500423 0.337515 0.499628 0.900323
C3    C     C_3   0.509566 0.025597 0.419869 -0.512673
C4    C     C_3   0.490255 0.974066 0.576993 -0.511569
C5    C     C_3   0.576275 0.969524 0.464034 0.429005
C6    C     C_3   0.423526 0.030082 0.532845 0.435165
C7    C     C_1   0.498489 0.751101 0.500839 -0.176260
C8    C     C_1   0.501517 0.248755 0.497830 -0.149149
C9    C     C_3   0.431373 0.972850 0.458344 0.429090
C10   C     C_3   0.568463 0.026746 0.538531 0.436123
C11   C     C_3   0.498225 0.916878 0.501071 -0.040590
C12   C     C_3   0.501598 0.082848 0.495849 -0.044842
C13   C     C_1   0.497856 0.826249 0.501272 0.072942
C14   C     C_1   0.502060 0.173562 0.496397 0.087851
C15   C     C_3   0.030577 0.570694 0.467087 0.260097
C16   C     C_3   0.969657 0.425399 0.534352 0.269894
C17   C     C_3   0.975611 0.502908 0.424974 0.281980
C18   C     C_3   0.024926 0.492931 0.576680 0.279510
C19   C     C_3   0.967075 0.565206 0.543489 0.267269
C20   C     C_3   0.033581 0.430989 0.458410 0.279849
C21   C     C_3   0.910069 0.497688 0.501049 -0.231548
C22   C     C_3   0.090158 0.498716 0.500436 -0.226416
C23   C     C_R   0.488683 0.495988 0.653939 0.964497
C24   C     C_R   0.511209 0.505089 0.346224 0.960340
C25   C     C_1   0.810133 0.498806 0.500407 0.253021
C26   C     C_1   0.189926 0.499444 0.500204 0.265509
C27   C     C_R   0.483497 0.470176 0.738526 -0.477390
C28   C     C_R   0.515830 0.513071 0.258671 -0.445321
C29   C     C_R   0.561102 0.437785 0.772605 0.420326
C30   C     C_R   0.435982 0.518357 0.217806 0.300011
C31   C     C_R   0.554181 0.398454 0.847046 0.324822
C32   C     C_R   0.439525 0.505980 0.134688 0.345842
C33   C     C_R   0.472321 0.403359 0.893533 -0.259185
C34   C     C_R   0.523313 0.493185 0.093050 -0.159106
C35   C     C_R   0.393617 0.433195 0.859707 0.383226
C36   C     C_R   0.604069 0.502281 0.132199 0.305943
C37   C     C_R   0.399693 0.467842 0.782792 0.384808
C38   C     C_R   0.599509 0.515752 0.214765 0.397873
C39   C     C_2   0.477413 0.409757 0.980045 -0.103156
C40   C     C_2   0.524854 0.474149 0.007838 -0.070101
H1    H     H_    0.563534 0.515371 0.966861 0.127628
H2    H     H_    0.437218 0.368931 0.020065 0.171309
H3    H     H_    0.517363 0.048813 0.357273 0.166582
H4    H     H_    0.482448 0.950817 0.639580 0.163906
N1    N     N_1   0.731990 0.500000 0.499970 -0.096970
N2    N     N_1   0.268010 0.500000 0.500030 -0.098981
O1    O     O_R   0.425540 0.623220 0.500000 -0.626897
O2    O     O_R   0.574460 0.376780 0.500000 -0.595257
O3    O     O_R   0.574480 0.623220 0.499990 -0.624494
O4    O     O_R   0.425520 0.376780 0.500010 -0.602772
O5    O     O_R   0.416730 0.500010 0.615810 -0.571486
O6    O     O_R   0.583270 0.499990 0.384190 -0.576983
O7    O     O_R   0.565670 0.500010 0.615790 -0.572018
O8    O     O_R   0.434330 0.499990 0.384210 -0.564373
Zn1   Zn    Zn3+2 0.400550 0.500000 0.500010 1.016444
Zn2   Zn    Zn3+2 0.599450 0.500000 0.499990 1.016372
O9    O     O_3   0.644890 0.444498 0.732968 -0.531959
C41   C     C_3   0.690636 0.513800 0.765642 0.133700
H5    H     H_    0.730560 0.490755 0.815296 0.181204
H6    H     H_    0.644894 0.566178 0.788917 0.086020
C42   C     C_3   0.754285 0.551760 0.701243 -0.764654
H7    H     H_    0.715607 0.581857 0.654150 0.264926
H8    H     H_    0.796012 0.601178 0.727962 0.200920
H9    H     H_    0.798503 0.501230 0.673682 0.257289
O10   O     O_3   0.354218 0.534926 0.258740 -0.580446
C43   C     C_3   0.343441 0.624124 0.265915 0.076551
H10   H     H_    0.342833 0.654347 0.205777 0.137491
H11   H     H_    0.398072 0.652499 0.299578 0.137055
C44   C     C_3   0.254542 0.644311 0.311477 -0.706156
H12   H     H_    0.253746 0.616672 0.372421 0.273779
H13   H     H_    0.245214 0.714306 0.316849 0.208623
H14   H     H_    0.198533 0.617505 0.279116 0.231035
O11   O     O_3   0.067394 0.644997 0.431482 -0.626306
C45   C     C_3   0.997970 0.700975 0.410513 0.120284
H15   H     H_    0.963210 0.729983 0.464521 0.183565
H16   H     H_    0.947034 0.668585 0.375829 0.169795
C46   C     C_3   0.038253 0.772483 0.359411 -0.887537
H17   H     H_    0.070710 0.746237 0.302999 0.252365
H18   H     H_    0.984637 0.818103 0.344368 0.219607
H19   H     H_    0.089099 0.806721 0.392676 0.268650
O12   O     O_3   0.931412 0.350893 0.568321 -0.609893
C47   C     C_3   0.999532 0.294837 0.591634 0.119160
H20   H     H_    0.043605 0.325419 0.634230 0.185461
H21   H     H_    0.041808 0.271543 0.539102 0.184008
C48   C     C_3   0.956237 0.218109 0.632753 -0.839625
H22   H     H_    0.913097 0.184927 0.591034 0.264292
H23   H     H_    0.009000 0.173204 0.651086 0.211085
H24   H     H_    0.914572 0.238771 0.686772 0.270778
O13   O     O_3   0.075066 0.362150 0.415527 -0.612672
C49   C     C_3   0.009829 0.312106 0.380351 0.132707
H25   H     H_    0.983325 0.345301 0.328367 0.186494
H26   H     H_    0.952594 0.296423 0.423308 0.178424
C50   C     C_3   0.053178 0.228990 0.350631 -0.862375
H27   H     H_    0.079571 0.193394 0.401527 0.254873
H28   H     H_    0.002763 0.189218 0.322272 0.211219
H29   H     H_    0.109277 0.242107 0.305766 0.267959
O14   O     O_3   0.927276 0.634121 0.587437 -0.620399
C51   C     C_3   0.994186 0.684281 0.620313 0.112185
H30   H     H_    0.047041 0.703768 0.574559 0.177271
H31   H     H_    0.027369 0.649771 0.668182 0.170929
C52   C     C_3   0.950692 0.764426 0.656784 -0.877874
H32   H     H_    0.899181 0.747289 0.704628 0.257741
H33   H     H_    0.002404 0.804372 0.683105 0.212093
H34   H     H_    0.918291 0.801584 0.609939 0.258273
O15   O     O_3   0.678040 0.530322 0.252264 -0.525056
C53   C     C_3   0.687603 0.619362 0.260307 0.150918
H35   H     H_    0.627953 0.648756 0.293502 0.105541
H36   H     H_    0.697236 0.649715 0.200336 0.139774
C54   C     C_3   0.769244 0.638246 0.307113 -0.744686
H37   H     H_    0.830747 0.613527 0.274180 0.269041
H38   H     H_    0.775761 0.708040 0.315041 0.185100
H39   H     H_    0.762143 0.608127 0.366988 0.265310
O16   O     O_3   0.322296 0.497985 0.750652 -0.528882
C55   C     C_3   0.314702 0.586422 0.765354 0.166655
H40   H     H_    0.378336 0.620335 0.748307 0.086565
H41   H     H_    0.295898 0.598498 0.829841 0.165186
C56   C     C_3   0.241826 0.623483 0.715697 -0.789003
H42   H     H_    0.176686 0.592809 0.731922 0.274883
H43   H     H_    0.234888 0.692926 0.727099 0.180708
H44   H     H_    0.259492 0.612879 0.650940 0.265470
O17   O     O_3   0.310905 0.435336 0.901690 -0.714386
H45   H     H_    0.312816 0.398413 0.949358 0.350684
O18   O     O_3   0.688586 0.496889 0.093413 -0.727957
H46   H     H_    0.684399 0.479611 0.036966 0.339797
O19   O     O_3   0.362812 0.507329 0.092086 -0.754177
H47   H     H_    0.308676 0.511477 0.129188 0.367468
O20   O     O_3   0.631007 0.363298 0.875939 -0.748096
H48   H     H_    0.614218 0.327954 0.923367 0.345344
O21   O     O_3   0.655377 0.929448 0.431588 -0.610922
C57   C     C_3   0.711670 0.990348 0.393278 0.125972
H49   H     H_    0.723089 0.045515 0.433201 0.175017
H50   H     H_    0.682145 0.013305 0.337739 0.144089
C58   C     C_3   0.802334 0.949200 0.370410 -0.853630
H51   H     H_    0.793840 0.894434 0.329522 0.256587
H52   H     H_    0.847311 0.996300 0.339636 0.209280
H53   H     H_    0.833761 0.926380 0.424986 0.254891
O22   O     O_3   0.344119 0.069586 0.565337 -0.602304
C59   C     C_3   0.288332 0.008185 0.603568 0.123397
H54   H     H_    0.317354 0.986524 0.659775 0.142367
H55   H     H_    0.278579 0.952210 0.564162 0.169567
C60   C     C_3   0.196598 0.047942 0.624776 -0.837777
H56   H     H_    0.165745 0.069497 0.569483 0.253624
H57   H     H_    0.152059 0.000392 0.655413 0.202956
H58   H     H_    0.203278 0.103343 0.665284 0.266750
O23   O     O_3   0.641079 0.062126 0.576834 -0.600016
C61   C     C_3   0.683864 0.998229 0.620033 0.120185
H59   H     H_    0.697202 0.939498 0.583582 0.167265
H60   H     H_    0.641857 0.982081 0.675028 0.145202
C62   C     C_3   0.773623 0.031130 0.644682 -0.820513
H61   H     H_    0.763331 0.089473 0.681880 0.274455
H62   H     H_    0.807375 0.981884 0.679927 0.204781
H63   H     H_    0.817388 0.046176 0.590557 0.249140
O24   O     O_3   0.359077 0.936845 0.420062 -0.612501
C63   C     C_3   0.315478 0.000354 0.377092 0.120801
H64   H     H_    0.357874 0.018266 0.322845 0.145148
H65   H     H_    0.300036 0.058178 0.414291 0.174459
C64   C     C_3   0.227173 0.965689 0.350709 -0.844753
H66   H     H_    0.183014 0.948680 0.404031 0.252561
H67   H     H_    0.192667 0.014675 0.315747 0.212287
H68   H     H_    0.239700 0.908186 0.312733 0.258949
O25   O     O_3   0.945060 0.505773 0.346683 -0.614128
C65   C     C_3   0.018345 0.516293 0.289934 0.089266
H69   H     H_    0.077490 0.476199 0.303020 0.187285
H70   H     H_    0.039142 0.583745 0.287865 0.170598
C66   C     C_3   0.990177 0.491942 0.207074 -0.800948
H71   H     H_    0.934570 0.533823 0.189449 0.267263
H72   H     H_    0.047944 0.499044 0.162569 0.211935
H73   H     H_    0.967676 0.424866 0.206529 0.260503
O26   O     O_3   0.058425 0.487139 0.653731 -0.610177
C67   C     C_3   0.987161 0.479146 0.712765 0.065376
H74   H     H_    0.940514 0.427401 0.698779 0.191182
H75   H     H_    0.948370 0.539390 0.719797 0.165404
C68   C     C_3   0.025296 0.458250 0.792659 -0.775833
H76   H     H_    0.068598 0.510700 0.811583 0.259221
H77   H     H_    0.969620 0.449801 0.839038 0.209207
H78   H     H_    0.065529 0.398475 0.787422 0.272247

loop_
_geom_bond_atom_site_label_1
_geom_bond_atom_site_label_2
_ccdc_geom_bond_type
C24   O6    A    
C43   H11   S    
C16   C21   S    
C27   C29   A    
C56   H42   S    
O26   C67   S    
C31   O20   S    
C6    C9    S    
O23   C61   S    
C19   O14   S    
O18   H46   S    
C46   H17   S    
C15   C19   S    
C3    H3    S    
C66   H71   S    
C45   H16   S    
C34   C40   S    
C35   C37   A    
C27   C37   A    
C5    C11   S    
C54   H38   S    
C6    C12   S    
C51   H30   S    
C46   H19   S    
C43   C44   S    
C37   O16   S    
C53   H35   S    
C24   O8    A    
C61   C62   S    
O14   C51   S    
C17   C20   S    
C42   H8    S    
C18   C19   S    
O11   C45   S    
C52   H33   S    
C44   H13   S    
C50   H28   S    
C20   O13   S    
C3    C12   S    
C2    O4    A    
C33   C35   A    
O16   C55   S    
C49   H26   S    
C15   C22   S    
N1    Zn2   S    
C45   C46   S    
N2    Zn1   S    
C58   H53   S    
C31   C33   A    
C23   C27   S    
C61   H60   S    
O2    Zn2   S    
C41   C42   S    
C68   H77   S    
C43   H10   S    
C9    O24   S    
C64   H67   S    
C1    C7    S    
C64   H66   S    
C62   H62   S    
C42   H7    S    
C10   C12   S    
C23   O7    A    
C39   H2    S    
C65   H70   S    
C46   H18   S    
C45   H15   S    
C48   H23   S    
C55   C56   S    
C52   H32   S    
C35   O17   S    
C36   O18   S    
C63   C64   S    
C4    C6    S    
C60   H58   S    
C39   C40   D    
C56   H43   S    
O21   C57   S    
C1    O1    A    
C4    H4    S    
C2    O2    A    
C41   H5    S    
C48   H22   S    
C41   H6    S    
O12   C47   S    
C54   H39   S    
C32   C34   A    
C32   O19   S    
C44   H14   S    
C57   H50   S    
C3    C9    S    
C65   C66   S    
C23   O5    A    
C28   C38   A    
C16   C20   S    
C63   H64   S    
C50   H27   S    
C33   C39   S    
C4    C11   S    
C9    C11   S    
O17   H45   S    
C17   O25   S    
C62   H63   S    
C16   C18   S    
C40   H1    S    
C15   O11   S    
C29   O9    S    
O10   C43   S    
C50   H29   S    
C47   H21   S    
C22   C26   S    
C58   H51   S    
C5    O21   S    
C56   H44   S    
C57   C58   S    
C4    C10   S    
O20   H48   S    
C47   C48   S    
C25   N1    T    
C36   C38   A    
C48   H24   S    
C49   C50   S    
O1    Zn1   S    
C61   H59   S    
O22   C59   S    
O7    Zn2   S    
C15   C17   S    
C21   C25   S    
O8    Zn1   S    
C8    C14   T    
C19   C21   S    
C18   C22   S    
C63   H65   S    
C2    C8    S    
C24   C28   S    
C20   C22   S    
C3    C5    S    
C59   C60   S    
C55   H41   S    
C55   H40   S    
C66   H73   S    
C59   H55   S    
C64   H68   S    
C65   H69   S    
O3    Zn2   S    
O15   C53   S    
C51   H31   S    
O4    Zn1   S    
C51   C52   S    
C6    O22   S    
C60   H57   S    
C57   H49   S    
C12   C14   S    
C5    C10   S    
C29   C31   A    
O25   C65   S    
C60   H56   S    
C18   O26   S    
C42   H9    S    
C30   C32   A    
C11   C13   S    
O9    C41   S    
O19   H47   S    
C53   H36   S    
C38   O15   S    
C28   C30   A    
C16   O12   S    
C68   H78   S    
C34   C36   A    
O5    Zn1   S    
C44   H12   S    
C17   C21   S    
C30   O10   S    
C59   H54   S    
C26   N2    T    
C10   O23   S    
C68   H76   S    
O6    Zn2   S    
C7    C13   T    
C66   H72   S    
C47   H20   S    
C67   H74   S    
C54   H37   S    
C58   H52   S    
C52   H34   S    
C67   H75   S    
O13   C49   S    
C62   H61   S    
C1    O3    A    
C67   C68   S    
C49   H25   S    
O24   C63   S    
C53   C54   S    
