data_mof_unit_12917.cif
_audit_creation_date              2012-12-10T22:11:13-0500
_audit_creation_method            fapswitch 2.2
_symmetry_space_group_name_H-M    P1
_symmetry_Int_Tables_number       1
_space_group_crystal_system       triclinic
_cell_length_a                    12.109161
_cell_length_b                    12.317154
_cell_length_c                    22.997307
_cell_angle_alpha                 90.435227
_cell_angle_beta                  90.521562
_cell_angle_gamma                 90.672386
_cell_volume                      3429.57749226

loop_
_atom_site_label
_atom_site_type_symbol
_atom_type_description
_atom_site_fract_x
_atom_site_fract_y
_atom_site_fract_z
_atom_type_partial_charge
C1    C     C_R   0.656456 0.997978 0.579574 0.885126
C2    C     C_R   0.098591 0.880867 0.829957 0.129391
C3    C     C_R   0.903136 0.203449 0.130475 -0.240115
C4    C     C_R   0.096864 0.796552 0.869525 -0.240114
C5    C     C_R   0.158251 0.910240 0.298986 -0.187633
C6    C     C_R   0.841749 0.089760 0.701014 -0.187634
C7    C     C_R   0.239424 0.910075 0.341632 -0.185370
C8    C     C_R   0.760576 0.089924 0.658368 -0.185369
C9    C     C_R   0.835621 0.097777 0.299075 -0.219551
C10   C     C_R   0.164380 0.902224 0.700925 -0.219551
C11   C     C_R   0.747324 0.095791 0.337218 -0.036775
C12   C     C_R   0.343544 0.002022 0.420426 0.885124
C13   C     C_R   0.252677 0.904209 0.662783 -0.036776
C14   C     C_3   0.996415 0.004033 0.247815 -0.076900
C15   C     C_3   0.003585 0.995967 0.752185 -0.076900
C16   C     C_R   0.651832 0.002155 0.419260 0.905293
C17   C     C_R   0.348168 0.997845 0.580740 0.905295
C18   C     C_R   0.096803 0.004736 0.288417 0.101182
C19   C     C_R   0.903198 0.995264 0.711583 0.101182
C20   C     C_R   0.259765 0.003385 0.375167 -0.013297
C21   C     C_R   0.740235 0.996614 0.624833 -0.013297
C22   C     C_R   0.900222 0.005001 0.290163 0.138888
C23   C     C_R   0.898286 0.757385 0.156987 0.080599
C24   C     C_R   0.099778 0.994999 0.709837 0.138887
C25   C     C_R   0.732887 0.004103 0.373161 -0.102325
C26   C     C_R   0.267113 0.995897 0.626839 -0.102325
C27   C     C_R   0.995473 0.100420 0.205967 0.118212
C28   C     C_R   0.004527 0.899580 0.794033 0.118212
C29   C     C_R   0.998195 0.266918 0.123805 -0.040765
C30   C     C_R   0.001805 0.733082 0.876195 -0.040765
C31   C     C_R   0.994560 0.905860 0.207000 0.116899
C32   C     C_R   0.005440 0.094140 0.793000 0.116899
C33   C     C_R   0.989874 0.745066 0.120394 -0.026488
C34   C     C_R   0.101715 0.242614 0.843013 0.080599
C35   C     C_R   0.010125 0.254934 0.879606 -0.026488
C36   C     C_R   0.992422 0.660897 0.075951 0.885197
C37   C     C_R   0.007577 0.339102 0.924048 0.885196
C38   C     C_R   0.999007 0.351962 0.080839 0.876187
C39   C     C_R   0.000993 0.648038 0.919161 0.876187
C40   C     C_R   0.116947 0.097398 0.323483 -0.159812
C41   C     C_R   0.883053 0.902602 0.676517 -0.159812
C42   C     C_R   0.198893 0.097342 0.365710 -0.187845
C43   C     C_R   0.801108 0.902658 0.634290 -0.187845
C44   C     C_R   0.884289 0.914873 0.326428 -0.170472
C45   C     C_R   0.085121 0.891722 0.169958 -0.175695
C46   C     C_R   0.115711 0.085127 0.673571 -0.170472
C47   C     C_R   0.801858 0.914523 0.367379 -0.211842
C48   C     C_R   0.198141 0.085477 0.632621 -0.211843
C49   C     C_R   0.092301 0.162633 0.196330 -0.234975
C50   C     C_R   0.907699 0.837367 0.803669 -0.234975
C51   C     C_R   0.093029 0.245680 0.156313 -0.195645
C52   C     C_R   0.906971 0.754319 0.843686 -0.195646
C53   C     C_R   0.900864 0.838080 0.199569 -0.209387
C54   C     C_R   0.099136 0.161920 0.800431 -0.209387
C55   C     C_2   0.669013 0.187665 0.335456 0.916976
C56   C     C_R   0.914879 0.108278 0.830042 -0.175695
C57   C     C_2   0.330990 0.812337 0.664545 0.916974
C58   C     C_R   0.082972 0.812214 0.127470 -0.245337
C59   C     C_R   0.917027 0.187786 0.872530 -0.245337
C60   C     C_R   0.901409 0.119133 0.170043 0.129391
H1    H     H_    0.212508 0.169794 0.391919 0.157026
H2    H     H_    0.842582 0.055972 0.826462 0.150517
H3    H     H_    0.141477 0.834524 0.276387 0.147223
H4    H     H_    0.858522 0.165476 0.723613 0.147223
H5    H     H_    0.851146 0.171723 0.275386 0.167004
H6    H     H_    0.148855 0.828277 0.724615 0.167005
H7    H     H_    0.793207 0.844335 0.395161 0.167844
H8    H     H_    0.206792 0.155664 0.604839 0.167844
H9    H     H_    0.168371 0.292443 0.150390 0.163990
H10   H     H_    0.831630 0.707556 0.849609 0.163990
H11   H     H_    0.154062 0.804363 0.099540 0.167293
H12   H     H_    0.787493 0.830206 0.608080 0.157026
H13   H     H_    0.845937 0.195638 0.900460 0.167293
H14   H     H_    0.830309 0.217169 0.103901 0.158849
H15   H     H_    0.169690 0.782831 0.896099 0.158849
H16   H     H_    0.285283 0.836307 0.348816 0.158711
H17   H     H_    0.714716 0.163692 0.651185 0.158711
H18   H     H_    0.067648 0.169596 0.318465 0.147597
H19   H     H_    0.932353 0.830404 0.681534 0.147597
H20   H     H_    0.736878 0.101817 0.182370 0.186197
H21   H     H_    0.790153 0.016644 0.132288 0.189020
H22   H     H_    0.263122 0.898184 0.817631 0.186197
H23   H     H_    0.936567 0.844420 0.322991 0.144743
H24   H     H_    0.209846 0.983357 0.867713 0.189020
H25   H     H_    0.790924 0.649188 0.191301 0.186195
H26   H     H_    0.734225 0.736687 0.143570 0.185190
H27   H     H_    0.209078 0.350811 0.808700 0.186195
H28   H     H_    0.265775 0.263310 0.856431 0.185189
H29   H     H_    0.510369 0.236252 0.334640 0.340131
H30   H     H_    0.489634 0.763752 0.665360 0.340131
H31   H     H_    0.063432 0.155579 0.677009 0.144743
H32   H     H_    0.169643 0.145964 0.218044 0.160221
H33   H     H_    0.830357 0.854035 0.781955 0.160221
H34   H     H_    0.826864 0.849267 0.224662 0.161969
H35   H     H_    0.173136 0.150732 0.775338 0.161969
H36   H     H_    0.157418 0.944029 0.173538 0.150517
N1    N     N_3   0.804060 0.052130 0.173196 -0.471556
N2    N     N_3   0.195940 0.947871 0.826804 -0.471557
N3    N     N_3   0.802825 0.688015 0.151530 -0.433251
N4    N     N_3   0.197176 0.311983 0.848471 -0.433250
O1    O     O_R   0.621380 0.090460 0.561410 -0.633883
O2    O     O_R   0.912410 0.372520 0.941210 -0.639272
O3    O     O_R   0.905660 0.383870 0.059980 -0.626993
O4    O     O_R   0.094340 0.616130 0.940020 -0.626994
O5    O     O_R   0.092570 0.390420 0.063230 -0.629799
O6    O     O_R   0.907430 0.609580 0.936770 -0.629799
O7    O     O_R   0.900680 0.620930 0.055550 -0.594200
O8    O     O_R   0.099320 0.379070 0.944450 -0.594200
O9    O     O_2   0.703843 0.280752 0.330627 -0.640542
O10   O     O_R   0.555156 0.167336 0.336673 -0.800230
O11   O     O_2   0.296161 0.719249 0.669376 -0.640542
O12   O     O_R   0.378620 0.909540 0.438590 -0.633883
O13   O     O_R   0.444846 0.832667 0.663327 -0.800230
O14   O     O_R   0.617150 0.909540 0.438590 -0.634979
O15   O     O_R   0.382850 0.090460 0.561410 -0.634980
O16   O     O_R   0.619720 0.093230 0.440890 -0.598148
O17   O     O_R   0.380280 0.906770 0.559110 -0.598148
O18   O     O_R   0.618800 0.906770 0.559110 -0.613443
O19   O     O_R   0.381200 0.093230 0.440890 -0.613444
O20   O     O_R   0.087590 0.627480 0.058790 -0.639272
Zn1   Zn    Zn3+2 0.501730 0.123520 0.501540 0.985551
Zn2   Zn    Zn3+2 0.498270 0.876480 0.498460 0.985550
Zn3   Zn    Zn3+2 0.125690 0.504390 0.002180 0.957309
Zn4   Zn    Zn3+2 0.874310 0.495610 0.997820 0.957309

loop_
_geom_bond_atom_site_label_1
_geom_bond_atom_site_label_2
_ccdc_geom_bond_type
C39   O6    A    
C23   N3    S    
C1    C21   S    
C33   C58   A    
O15   Zn1   S    
H20   N1    S    
H22   N2    S    
C14   C18   S    
C14   C31   S    
C44   H23   S    
C49   C51   A    
C39   O4    A    
O4    Zn3   S    
C15   C19   S    
C6    C19   A    
C5    H3    S    
C43   H12   S    
C17   C26   S    
C35   C37   S    
C27   C60   A    
C37   O2    A    
C58   H11   S    
C13   C57   S    
C11   C25   A    
C33   C36   S    
O5    Zn3   S    
C35   C59   A    
C34   C35   A    
O18   Zn2   S    
H30   O13   S    
C6    H4    S    
C3    C29   A    
C3    H14   S    
C18   C40   A    
C4    H15   S    
C21   C43   A    
C28   C50   A    
C22   C44   A    
C23   C33   A    
C29   C38   S    
C34   N4    S    
C14   C27   S    
C25   C47   A    
C44   C47   A    
C17   O17   A    
C3    C60   A    
C40   C42   A    
C55   O9    D    
C36   O7    A    
C41   C43   A    
O7    Zn4   S    
O2    Zn4   S    
O3    Zn4   S    
C16   O16   A    
C47   H7    S    
C23   C53   A    
C10   H6    S    
C46   C48   A    
C45   C58   A    
O16   Zn1   S    
C15   C32   S    
C37   O8    A    
C60   N1    S    
C5    C7    A    
C57   O13   S    
C46   H31   S    
C10   C24   A    
H29   O10   S    
C7    C20   A    
O1    Zn1   S    
C2    C4    A    
O17   Zn2   S    
O12   Zn2   S    
C38   O3    A    
H25   N3    S    
C12   O19   A    
C50   C52   A    
C12   C20   S    
C8    C21   A    
C20   C42   A    
C31   C53   A    
H26   N3    S    
C9    C11   A    
C42   H1    S    
C54   H35   S    
H28   N4    S    
O19   Zn1   S    
C15   C24   S    
C34   C54   A    
C55   O10   S    
C8    H17   S    
C40   H18   S    
C13   C26   A    
C49   H32   S    
C1    O1    A    
C12   O12   A    
C11   C55   S    
C17   O15   A    
H27   N4    S    
C29   C51   A    
C16   C25   S    
C30   C52   A    
C53   H34   S    
C48   H8    S    
C10   C13   A    
C16   O14   A    
C41   H19   S    
C6    C8    A    
O20   Zn3   S    
C50   H33   S    
C7    H16   S    
C5    C18   A    
C26   C48   A    
C51   H9    S    
C32   C54   A    
C56   C59   A    
C24   C46   A    
C14   C22   S    
C38   O5    A    
H24   N2    S    
C15   C28   S    
C57   O11   D    
H21   N1    S    
C30   C39   S    
C56   H2    S    
C1    O18   A    
C59   H13   S    
C36   O20   A    
C9    H5    S    
C52   H10   S    
O14   Zn2   S    
C19   C41   A    
C2    N2    S    
C9    C22   A    
C31   C45   A    
O6    Zn4   S    
C2    C28   A    
O8    Zn3   S    
C45   H36   S    
C32   C56   A    
C4    C30   A    
C27   C49   A    
