data_mof_unit_47178.cif
_audit_creation_date              2012-10-26T18:52:10-0400
_audit_creation_method            fapswitch 2.2
_symmetry_space_group_name_H-M    P1
_symmetry_Int_Tables_number       1
_space_group_crystal_system       triclinic
_cell_length_a                    13.894976
_cell_length_b                    14.749061
_cell_length_c                    14.520056
_cell_angle_alpha                 114.352596
_cell_angle_beta                  105.478135
_cell_angle_gamma                 72.512366
_cell_volume                      2550.41574526

loop_
_atom_site_label
_atom_site_type_symbol
_atom_type_description
_atom_site_fract_x
_atom_site_fract_y
_atom_site_fract_z
_atom_type_partial_charge
C1    C     C_R   0.515683 0.118088 0.689457 0.544018
C2    C     C_R   0.489349 0.507134 0.872347 -0.116390
C3    C     C_R   0.512408 0.393082 0.103375 -0.101980
C4    C     C_R   0.478667 0.610127 0.896691 -0.133271
C5    C     C_R   0.301619 0.312448 0.356777 -0.013079
C6    C     C_R   0.666478 0.710425 0.678202 -0.022475
C7    C     C_R   0.340670 0.226271 0.383904 0.003828
C8    C     C_R   0.630439 0.794841 0.649595 0.024229
C9    C     C_R   0.495448 0.275175 0.466568 0.076416
C10   C     C_R   0.535882 0.702142 0.499590 0.105381
C11   C     C_R   0.460809 0.372917 0.458831 -0.026233
C12   C     C_R   0.482679 0.882451 0.310621 0.533976
C13   C     C_R   0.545473 0.623159 0.536085 -0.012022
C14   C     C_R   0.362547 0.390106 0.395777 0.021070
C15   C     C_R   0.619591 0.623944 0.625273 -0.001414
C16   C     C_R   0.686845 0.987252 0.504162 0.559087
C17   C     C_R   0.313155 0.012767 0.495855 0.562969
C18   C     C_R   0.519920 0.452955 0.511716 -0.024083
C19   C     C_R   0.485861 0.544718 0.486718 -0.013809
C20   C     C_R   0.391878 0.556775 0.416424 -0.019055
C21   C     C_R   0.607965 0.449989 0.593337 0.019409
C22   C     C_R   0.331990 0.481800 0.374521 -0.006870
C23   C     C_R   0.505951 0.361276 0.923636 0.030979
C24   C     C_R   0.645760 0.539447 0.656035 0.003307
C25   C     C_1   0.208131 0.019511 0.493306 0.026217
C26   C     C_1   0.791863 0.980526 0.506693 -0.000894
C27   C     C_2   0.013758 0.033018 0.488309 -0.107940
C28   C     C_2   0.986232 0.967007 0.511640 -0.099489
C29   C     C_1   0.880478 0.974359 0.508956 -0.034006
C30   C     C_1   0.119512 0.025680 0.491018 -0.016758
C31   C     C_R   0.520849 0.184585 0.800184 -0.036756
C32   C     C_R   0.472790 0.817990 0.199677 -0.036795
C33   C     C_R   0.529669 0.221971 0.981942 -0.072713
C34   C     C_R   0.480616 0.642462 0.075533 0.035113
C35   C     C_R   0.463110 0.781293 0.018229 -0.079828
C36   C     C_R   0.533971 0.150101 0.882271 0.005595
C37   C     C_R   0.461309 0.853271 0.118311 0.001281
C38   C     C_R   0.506864 0.289410 0.823018 -0.113016
C39   C     C_R   0.477666 0.714589 0.175656 -0.130257
C40   C     C_2   0.197920 0.305159 0.290078 0.246642
C41   C     C_2   0.758911 0.721010 0.756556 0.224287
C42   C     C_2   0.350464 0.645331 0.379918 0.169548
C43   C     C_2   0.668853 0.359114 0.621742 0.146536
C44   C     C_2   0.446558 0.962271 0.131084 0.237618
C45   C     C_R   0.515775 0.325557 0.002871 0.026545
C46   C     C_2   0.553257 0.041555 0.870181 0.239573
C47   C     C_2   0.236402 0.505258 0.307004 0.302849
C48   C     C_2   0.715735 0.541108 0.753822 0.289899
C49   C     C_R   0.474128 0.677878 0.996923 0.022024
C50   C     C_R   0.494973 0.467501 0.947812 0.046266
C51   C     C_R   0.491334 0.536261 0.051439 0.047723
C52   C     C_R   0.500272 0.496252 0.127516 -0.108456
Cu1   Cu    Cu3+1 0.526370 0.916390 0.524860 0.995094
Cu2   Cu    Cu3+1 0.473630 0.083610 0.475140 0.961551
H1    H     H_    0.043085 0.906977 0.533012 0.160934
H2    H     H_    0.573197 0.244803 0.485562 0.162239
H3    H     H_    0.664818 0.860315 0.688852 0.110890
H4    H     H_    0.297386 0.168092 0.358649 0.124946
H5    H     H_    0.168603 0.237968 0.270210 0.104012
H6    H     H_    0.758824 0.793030 0.821325 0.100765
H7    H     H_    0.334812 0.629490 0.297140 0.131759
H8    H     H_    0.705643 0.278319 0.612346 0.273317
H9    H     H_    0.479588 0.692239 0.237728 0.118043
H10   H     H_    0.495121 0.313488 0.759826 0.175766
H11   H     H_    0.445725 0.024313 0.203602 0.149808
H12   H     H_    0.956907 0.093046 0.466936 0.139712
H13   H     H_    0.581671 0.980839 0.805253 0.121539
H14   H     H_    0.170075 0.556893 0.340473 0.143847
H15   H     H_    0.686533 0.581366 0.825593 0.096362
H16   H     H_    0.519612 0.365975 0.164499 0.120839
H17   H     H_    0.474635 0.636849 0.836127 0.111185
H18   H     H_    0.538847 0.196967 0.045006 0.171244
H19   H     H_    0.456500 0.805672 0.955331 0.176039
H20   H     H_    0.499561 0.541633 0.207470 0.087014
H21   H     H_    0.494216 0.461244 0.793139 0.145957
H22   H     H_    0.508358 0.692935 0.420780 0.133560
N1    N     N_R   0.433980 0.209250 0.437830 -0.251627
N2    N     N_R   0.566020 0.790750 0.562170 -0.235226
O1    O     O_R   0.534760 0.019630 0.662610 -0.534759
O2    O     O_2   0.839380 0.658464 0.742228 -0.417370
O3    O     O_2   0.325812 0.733006 0.438880 -0.490803
O4    O     O_2   0.634777 0.312683 0.653748 -0.634189
O5    O     O_2   0.433458 0.985813 0.056644 -0.452441
O6    O     O_2   0.540671 0.018063 0.936821 -0.462380
O7    O     O_2   0.234009 0.473624 0.214365 -0.447498
O8    O     O_2   0.805830 0.496759 0.754241 -0.416615
O9    O     O_R   0.465240 0.980370 0.337390 -0.533241
O10   O     O_R   0.490220 0.160840 0.620610 -0.459912
O11   O     O_R   0.509780 0.839160 0.379390 -0.503019
O12   O     O_R   0.663260 0.919400 0.523940 -0.492679
O13   O     O_R   0.336740 0.080600 0.476060 -0.518290
O14   O     O_R   0.618720 0.060610 0.481950 -0.498637
O15   O     O_R   0.381280 0.939390 0.518050 -0.437261
O16   O     O_2   0.140692 0.367968 0.255723 -0.455266

loop_
_geom_bond_atom_site_label_1
_geom_bond_atom_site_label_2
_ccdc_geom_bond_type
C11   C18   A    
C16   O12   A    
C23   C45   A    
C18   C21   A    
C33   C45   A    
C19   C20   A    
C17   O13   A    
C48   H15   S    
C44   O5    D    
C41   O2    D    
C10   N2    A    
Cu1   Cu2   S    
C34   C51   A    
C47   O7    D    
C28   C29   S    
Cu1   O1    S    
C52   H20   S    
Cu2   O9    S    
C11   C14   A    
C1    C31   S    
C33   C36   A    
C18   C19   A    
C32   C39   A    
C2    C50   A    
C33   H18   S    
C6    C15   A    
C21   C43   S    
C10   H22   S    
C6    C41   S    
C35   C49   A    
C36   C46   S    
C7    H4    S    
C7    N1    A    
Cu2   N1    S    
C1    O10   A    
C22   C47   S    
C40   H5    S    
C12   C32   S    
C27   C30   S    
C8    N2    A    
C44   H11   S    
C42   O3    D    
C28   H1    S    
C38   H10   S    
C16   C26   S    
C13   C19   A    
Cu1   O15   S    
C51   C52   A    
C24   C48   S    
C12   O11   A    
C3    H16   S    
C5    C7    A    
C23   C50   A    
C6    C8    A    
C3    C45   A    
C34   C39   A    
C2    C4    A    
Cu2   O14   S    
C8    H3    S    
C50   C51   A    
C9    H2    S    
C9    N1    A    
C32   C37   A    
C9    C11   A    
C42   H7    S    
C5    C14   A    
C46   O6    D    
C15   C24   A    
C20   C22   A    
C16   O14   A    
C13   C15   A    
Cu1   O11   S    
C1    O1    A    
C48   O8    D    
C21   C24   A    
C17   O15   A    
C47   H14   S    
C27   C28   D    
C25   C30   T    
C35   H19   S    
C34   C49   A    
C12   O9    A    
C35   C37   A    
C41   H6    S    
C40   O16   D    
C10   C13   A    
C20   C42   S    
C3    C52   A    
C23   C38   A    
C39   H9    S    
C31   C38   A    
C4    C49   A    
C17   C25   S    
C14   C22   A    
C37   C44   S    
Cu1   N2    S    
Cu2   O13   S    
C27   H12   S    
Cu2   O10   S    
C46   H13   S    
C26   C29   T    
C5    C40   S    
Cu1   O12   S    
C43   O4    D    
C31   C36   A    
C4    H17   S    
C2    H21   S    
C43   H8    S    
