data_mof_unit_39191.cif
_audit_creation_date              2012-12-11T16:07:20-0500
_audit_creation_method            fapswitch 2.2
_symmetry_space_group_name_H-M    P1
_symmetry_Int_Tables_number       1
_space_group_crystal_system       triclinic
_cell_length_a                    17.120522
_cell_length_b                    17.121701
_cell_length_c                    17.29047
_cell_angle_alpha                 90.132875
_cell_angle_beta                  90.000961
_cell_angle_gamma                 90.000334
_cell_volume                      5068.38435192

loop_
_atom_site_label
_atom_site_type_symbol
_atom_type_description
_atom_site_fract_x
_atom_site_fract_y
_atom_site_fract_z
_atom_type_partial_charge
C1    C     C_R   0.394713 0.697982 0.607540 -0.100742
C2    C     C_R   0.578063 0.671307 0.644988 -0.064198
C3    C     C_3   0.774380 0.191887 0.638505 0.607151
C4    C     C_3   0.774263 0.808208 0.361460 0.607124
C5    C     C_3   0.279779 0.246071 0.721068 0.583974
C6    C     C_3   0.752598 0.279203 0.278927 0.583944
C7    C     C_3   0.192580 0.775656 0.637750 0.605870
C8    C     C_3   0.692526 0.724365 0.862261 0.605880
C9    C     C_3   0.252483 0.220906 0.221016 0.584021
C10   C     C_3   0.779681 0.253830 0.778991 0.584023
C11   C     C_3   0.274252 0.691776 0.138538 0.607156
C12   C     C_3   0.274277 0.308202 0.861465 0.607136
C13   C     C_R   0.669761 0.422244 0.354034 -0.056192
C14   C     C_3   0.779791 0.746066 0.221068 0.583973
C15   C     C_3   0.252441 0.779033 0.779035 0.584069
C16   C     C_3   0.692417 0.275490 0.137781 0.605845
C17   C     C_R   0.302043 0.606264 0.606946 -0.128070
C18   C     C_R   0.606228 0.697900 0.393065 -0.132263
C19   C     C_R   0.422003 0.329933 0.645694 -0.055376
C20   C     C_R   0.328393 0.578289 0.355290 -0.065593
C21   C     C_R   0.697948 0.394777 0.607507 -0.105211
C22   C     C_R   0.894701 0.197997 0.107495 -0.100699
C23   C     C_R   0.078057 0.828697 0.855009 -0.064176
C24   C     C_R   0.169745 0.077739 0.145977 -0.056252
C25   C     C_R   0.578075 0.328673 0.355025 -0.064292
C26   C     C_R   0.802034 0.893724 0.893083 -0.128142
C27   C     C_R   0.106229 0.802099 0.106930 -0.132254
C28   C     C_R   0.922016 0.170054 0.854298 -0.055433
C29   C     C_R   0.828394 0.921711 0.144709 -0.065607
C30   C     C_R   0.197955 0.105229 0.892516 -0.105177
C31   C     C_R   0.894703 0.802008 0.892489 -0.100747
C32   C     C_R   0.078059 0.171305 0.144990 -0.064212
C33   C     C_R   0.169744 0.922262 0.854024 -0.056281
C34   C     C_R   0.802032 0.106280 0.106904 -0.128094
C35   C     C_R   0.106230 0.197901 0.893069 -0.132269
C36   C     C_R   0.669748 0.577742 0.645975 -0.056256
C37   C     C_R   0.922006 0.829936 0.145695 -0.055378
C38   C     C_R   0.828407 0.078279 0.855280 -0.065482
C39   C     C_R   0.197956 0.894770 0.107482 -0.105188
C40   C     C_3   0.266674 0.265277 0.334900 -0.036616
C41   C     C_3   0.677926 0.679331 0.747336 -0.040230
C42   C     C_3   0.320154 0.678422 0.253176 -0.038331
C43   C     C_3   0.734551 0.266912 0.665351 -0.036206
C44   C     C_3   0.734561 0.733092 0.334680 -0.036203
C45   C     C_3   0.320154 0.321573 0.746820 -0.038345
C46   C     C_3   0.677940 0.320644 0.252675 -0.040299
C47   C     C_R   0.302035 0.393725 0.393079 -0.128103
C48   C     C_3   0.266690 0.734704 0.665144 -0.036584
C49   C     C_3   0.766673 0.765275 0.834905 -0.036541
C50   C     C_3   0.177924 0.179331 0.247336 -0.040305
C51   C     C_3   0.820170 0.178412 0.753172 -0.038312
C52   C     C_3   0.234564 0.766903 0.165308 -0.036219
C53   C     C_3   0.234562 0.233093 0.834685 -0.036222
C54   C     C_3   0.820154 0.821575 0.246821 -0.038315
C55   C     C_3   0.177929 0.820666 0.752676 -0.040263
C56   C     C_3   0.766673 0.234731 0.165069 -0.036620
C57   C     C_R   0.318715 0.682167 0.625742 0.167667
C58   C     C_R   0.606222 0.302104 0.606950 -0.132288
C59   C     C_R   0.636151 0.362726 0.311685 0.093655
C60   C     C_R   0.636125 0.637240 0.688338 0.093581
C61   C     C_R   0.318700 0.317816 0.374302 0.167705
C62   C     C_R   0.682110 0.318814 0.625778 0.166930
C63   C     C_R   0.362188 0.636692 0.312169 0.092706
C64   C     C_R   0.362188 0.363304 0.687829 0.092723
C65   C     C_R   0.682121 0.681192 0.374254 0.166971
C66   C     C_R   0.818693 0.182195 0.125662 0.167756
C67   C     C_R   0.136117 0.862766 0.811658 0.093593
C68   C     C_R   0.136121 0.137238 0.188340 0.093621
C69   C     C_R   0.422005 0.670063 0.354304 -0.055367
C70   C     C_R   0.818697 0.817814 0.874310 0.167711
C71   C     C_R   0.182124 0.818803 0.125735 0.167004
C72   C     C_R   0.862214 0.136670 0.812150 0.092666
C73   C     C_R   0.862190 0.863308 0.187831 0.092705
C74   C     C_R   0.182123 0.181195 0.874261 0.166996
C75   C     C_3   0.719150 0.648944 0.820083 -0.244035
C76   C     C_3   0.225147 0.295016 0.262187 -0.266976
C77   C     C_3   0.704919 0.226795 0.738858 -0.266492
C78   C     C_3   0.350409 0.718043 0.179519 -0.245613
C79   C     C_3   0.245297 0.349343 0.787521 -0.298151
C80   C     C_R   0.328391 0.421706 0.644708 -0.065577
C81   C     C_3   0.809427 0.705496 0.294195 -0.302445
C82   C     C_3   0.294623 0.808798 0.706859 -0.300528
C83   C     C_3   0.649874 0.246433 0.210952 -0.296644
C84   C     C_3   0.718993 0.351006 0.179825 -0.243808
C85   C     C_3   0.225090 0.704956 0.737812 -0.267011
C86   C     C_3   0.704954 0.773062 0.261084 -0.266384
C87   C     C_3   0.350417 0.281926 0.820462 -0.245586
C88   C     C_3   0.245279 0.650662 0.212498 -0.298155
C89   C     C_3   0.809339 0.294547 0.705955 -0.302466
C90   C     C_3   0.294592 0.191147 0.293238 -0.300491
C91   C     C_R   0.697953 0.605227 0.392511 -0.105194
C92   C     C_3   0.649814 0.753447 0.789194 -0.296601
C93   C     C_3   0.219135 0.148950 0.320093 -0.243954
C94   C     C_3   0.725131 0.795021 0.762202 -0.266998
C95   C     C_3   0.204960 0.726949 0.238913 -0.266398
C96   C     C_3   0.850451 0.218200 0.679614 -0.245716
C97   C     C_3   0.745288 0.849339 0.287509 -0.298159
C98   C     C_3   0.309420 0.205492 0.794187 -0.302447
C99   C     C_3   0.794553 0.308944 0.206611 -0.300495
C100  C     C_3   0.149808 0.746574 0.710782 -0.296584
C101  C     C_3   0.219214 0.851054 0.679964 -0.244031
C102  C     C_R   0.394705 0.302009 0.392485 -0.100690
C103  C     C_3   0.725300 0.205012 0.237874 -0.266850
C104  C     C_3   0.204950 0.273072 0.761096 -0.266405
C105  C     C_3   0.850412 0.781937 0.320469 -0.245616
C106  C     C_3   0.745382 0.150607 0.712368 -0.298069
C107  C     C_3   0.309439 0.794494 0.205784 -0.302450
C108  C     C_3   0.794597 0.691158 0.793226 -0.300547
C109  C     C_3   0.149820 0.253459 0.289177 -0.296555
C110  C     C_3   0.192518 0.224384 0.362255 0.605869
C111  C     C_3   0.752474 0.720923 0.721015 0.584036
C112  C     C_3   0.279805 0.753941 0.278919 0.583971
Cl1   Cl    Cl    0.154730 0.229174 0.457995 -0.543419
Cl2   Cl    Cl    0.294791 0.221110 0.126691 -0.577939
Cl3   Cl    Cl    0.780744 0.297501 0.872789 -0.588476
Cl4   Cl    Cl    0.268167 0.652481 0.043383 -0.526954
Cl5   Cl    Cl    0.268227 0.347469 0.956634 -0.526966
Cl6   Cl    Cl    0.780997 0.702251 0.127338 -0.588488
Cl7   Cl    Cl    0.294679 0.778771 0.873393 -0.577973
Cl8   Cl    Cl    0.654486 0.270546 0.042102 -0.543496
Cl9   Cl    Cl    0.794770 0.721148 0.626684 -0.578041
Cl10  Cl    Cl    0.281028 0.797773 0.372641 -0.588417
Cl11  Cl    Cl    0.768463 0.152749 0.543276 -0.527040
Cl12  Cl    Cl    0.768196 0.847482 0.456624 -0.527103
Cl13  Cl    Cl    0.280968 0.202265 0.627334 -0.588462
Cl14  Cl    Cl    0.795057 0.279147 0.373189 -0.578041
Cl15  Cl    Cl    0.154858 0.770930 0.541980 -0.543486
Cl16  Cl    Cl    0.654748 0.729131 0.958006 -0.543556
H1    H     H_    0.422734 0.754566 0.606747 0.109136
H2    H     H_    0.544251 0.722568 0.659248 0.102298
H3    H     H_    0.720417 0.456391 0.338579 0.113728
H4    H     H_    0.245160 0.578780 0.606578 0.120484
H5    H     H_    0.578675 0.754750 0.393310 0.125671
H6    H     H_    0.456349 0.279378 0.661068 0.111855
H7    H     H_    0.277252 0.544245 0.341112 0.100138
H8    H     H_    0.754494 0.422893 0.606820 0.112969
H9    H     H_    0.922731 0.254576 0.106697 0.109089
H10   H     H_    0.044245 0.777436 0.840748 0.102320
H11   H     H_    0.220400 0.043591 0.161434 0.113654
H12   H     H_    0.544259 0.277412 0.340771 0.102302
H13   H     H_    0.745151 0.921209 0.893454 0.120533
H14   H     H_    0.078674 0.745248 0.106684 0.125675
H15   H     H_    0.956360 0.220610 0.838925 0.111782
H16   H     H_    0.777255 0.955756 0.158887 0.100140
H17   H     H_    0.254497 0.077108 0.893206 0.112931
H18   H     H_    0.922729 0.745426 0.893286 0.109128
H19   H     H_    0.044242 0.222562 0.159251 0.102344
H20   H     H_    0.220403 0.956405 0.838571 0.113610
H21   H     H_    0.745150 0.078793 0.106535 0.120602
H22   H     H_    0.078676 0.254751 0.893315 0.125631
H23   H     H_    0.720405 0.543597 0.661431 0.113604
H24   H     H_    0.956353 0.779383 0.161071 0.111862
H25   H     H_    0.777266 0.044237 0.841098 0.100148
H26   H     H_    0.254499 0.922890 0.106792 0.112936
H27   H     H_    0.714761 0.588553 0.842874 0.191049
H28   H     H_    0.228960 0.355177 0.238590 0.181068
H29   H     H_    0.644988 0.231655 0.762990 0.178933
H30   H     H_    0.410523 0.712486 0.156108 0.188881
H31   H     H_    0.220236 0.409076 0.785041 0.173010
H32   H     H_    0.835025 0.645983 0.296402 0.171275
H33   H     H_    0.354528 0.833566 0.705806 0.170503
H34   H     H_    0.245152 0.421210 0.393449 0.120528
H35   H     H_    0.589793 0.222119 0.212544 0.178065
H36   H     H_    0.714471 0.411362 0.156967 0.191117
H37   H     H_    0.228848 0.644783 0.761385 0.181028
H38   H     H_    0.645055 0.768089 0.236895 0.178974
H39   H     H_    0.410538 0.287461 0.843862 0.188907
H40   H     H_    0.220201 0.590936 0.214996 0.173010
H41   H     H_    0.834856 0.354100 0.703862 0.171233
H42   H     H_    0.354479 0.166338 0.294350 0.170522
H43   H     H_    0.589691 0.777663 0.787721 0.178099
H44   H     H_    0.214732 0.088565 0.342896 0.191118
H45   H     H_    0.578669 0.245253 0.606703 0.125592
H46   H     H_    0.728931 0.855187 0.738616 0.181020
H47   H     H_    0.145064 0.731934 0.263106 0.178978
H48   H     H_    0.910600 0.212770 0.656261 0.188846
H49   H     H_    0.720221 0.909069 0.285022 0.172998
H50   H     H_    0.335011 0.145975 0.796386 0.171257
H51   H     H_    0.854403 0.333837 0.205382 0.170538
H52   H     H_    0.089672 0.722388 0.712211 0.178142
H53   H     H_    0.214868 0.911451 0.657183 0.191095
H54   H     H_    0.729232 0.144881 0.261527 0.181116
H55   H     H_    0.145047 0.268108 0.736915 0.178965
H56   H     H_    0.456352 0.720617 0.338929 0.111870
H57   H     H_    0.910529 0.787481 0.343877 0.188872
H58   H     H_    0.720400 0.090837 0.714750 0.173049
H59   H     H_    0.335047 0.854003 0.203566 0.171267
H60   H     H_    0.854488 0.666358 0.794326 0.170495
H61   H     H_    0.089701 0.277685 0.287693 0.178178
H62   H     H_    0.277249 0.455746 0.658884 0.100134
H63   H     H_    0.754496 0.577106 0.393200 0.112967
H64   H     H_    0.422730 0.245428 0.393281 0.109103
N1    N     N_R   0.424590 0.632770 0.578330 -0.056119
N2    N     N_R   0.575410 0.632770 0.578330 -0.047717
N3    N     N_R   0.632770 0.424590 0.421670 -0.045060
N4    N     N_R   0.367230 0.575410 0.578330 -0.055140
N5    N     N_R   0.575410 0.632770 0.421670 -0.056207
N6    N     N_R   0.424590 0.367230 0.578330 -0.044481
N7    N     N_R   0.367230 0.575410 0.421670 -0.047348
N8    N     N_R   0.632770 0.424590 0.578330 -0.057054
N9    N     N_R   0.924590 0.132770 0.078330 -0.056137
N10   N     N_R   0.075410 0.867230 0.921670 -0.047707
N11   N     N_R   0.132770 0.075410 0.078330 -0.045044
N12   N     N_R   0.575410 0.367230 0.421670 -0.047754
N13   N     N_R   0.867230 0.924590 0.921670 -0.055150
N14   N     N_R   0.075410 0.867230 0.078330 -0.056207
N15   N     N_R   0.924590 0.132770 0.921670 -0.044464
N16   N     N_R   0.867230 0.924590 0.078330 -0.047343
N17   N     N_R   0.132770 0.075410 0.921670 -0.057065
N18   N     N_R   0.924590 0.867230 0.921670 -0.056127
N19   N     N_R   0.075410 0.132770 0.078330 -0.047726
N20   N     N_R   0.132770 0.924590 0.921670 -0.045037
N21   N     N_R   0.867230 0.075410 0.078330 -0.055157
N22   N     N_R   0.075410 0.132770 0.921670 -0.056200
N23   N     N_R   0.632770 0.575410 0.578330 -0.045039
N24   N     N_R   0.924590 0.867230 0.078330 -0.044475
N25   N     N_R   0.867230 0.075410 0.921670 -0.047317
N26   N     N_R   0.132770 0.924590 0.078330 -0.057070
N27   N     N_R   0.367230 0.424590 0.421670 -0.055146
N28   N     N_R   0.575410 0.367230 0.578330 -0.056190
N29   N     N_R   0.424590 0.632770 0.421670 -0.044472
N30   N     N_R   0.367230 0.424590 0.578330 -0.047348
N31   N     N_R   0.632770 0.575410 0.421670 -0.057070
N32   N     N_R   0.424590 0.367230 0.421670 -0.056120
Ni1   Ni    Ni4+2 0.500000 0.631570 0.500000 0.247817
Ni2   Ni    Ni4+2 0.500000 0.368430 0.500000 0.247752
Ni3   Ni    Ni4+2 0.631570 0.500000 0.500000 0.251358
Ni4   Ni    Ni4+2 0.368430 0.500000 0.500000 0.242584
Ni5   Ni    Ni4+2 1.000000 0.131570 0.000000 0.247762
Ni6   Ni    Ni4+2 1.000000 0.868430 0.000000 0.247807
Ni7   Ni    Ni4+2 0.131570 0.000000 0.000000 0.251320
Ni8   Ni    Ni4+2 0.868430 0.000000 0.000000 0.242618

loop_
_geom_bond_atom_site_label_1
_geom_bond_atom_site_label_2
_ccdc_geom_bond_type
C58   C62   A    
C14   C86   S    
C93   C110  S    
N4    Ni4   S    
C24   N11   A    
N29   Ni1   S    
C46   C59   S    
N14   Ni6   S    
C103  H54   S    
C107  C112  S    
C39   N26   A    
C53   C74   S    
C86   H38   S    
C25   N12   A    
N25   Ni8   S    
C34   C66   A    
C30   N17   A    
C17   C57   A    
N20   Ni7   S    
C102  N32   A    
C48   C57   S    
C35   C74   A    
C32   H19   S    
C7    Cl15  S    
N14   N26   A    
C18   C65   A    
C99   H51   S    
C22   H9    S    
C3    C43   S    
C41   C60   S    
C43   C89   S    
C29   N16   A    
C83   C103  S    
C18   H5    S    
C9    Cl2   S    
N2    Ni1   S    
C77   C106  S    
N6    N30   A    
C1    H1    S    
C95   C112  S    
C16   Cl8   S    
C36   N23   A    
C79   H31   S    
C30   C74   A    
C33   N20   A    
N31   Ni3   S    
C111  Cl9   S    
C53   C104  S    
C23   C67   A    
C12   C79   S    
C107  H59   S    
C94   C111  S    
C16   C84   S    
C27   H14   S    
C4    Cl12  S    
C52   C95   S    
N17   Ni7   S    
C105  H57   S    
C86   C97   S    
C95   H47   S    
N10   Ni6   S    
C22   C66   A    
C42   C112  S    
C11   C52   S    
C23   H10   S    
C50   C68   S    
N27   N32   A    
C47   H34   S    
C58   N28   A    
C78   H30   S    
C31   C70   A    
C87   H39   S    
C63   C69   A    
C10   C89   S    
C109  H61   S    
C76   C109  S    
C88   H40   S    
C55   C100  S    
C10   C77   S    
N24   Ni6   S    
C14   C81   S    
C56   C66   S    
C54   C97   S    
C3    C96   S    
N7    N29   A    
C35   H22   S    
C49   C94   S    
C15   C82   S    
C26   H13   S    
N19   Ni5   S    
N7    Ni4   S    
C11   C88   S    
C21   H8    S    
C69   N29   A    
C90   C93   S    
C31   H18   S    
C51   C96   S    
C32   C68   A    
C87   C98   S    
N9    Ni5   S    
C5    C104  S    
C75   C108  S    
C3    C106  S    
C81   H32   S    
C4    C97   S    
C17   H4    S    
C64   C80   A    
C38   N25   A    
N11   N19   A    
C44   C65   S    
C28   C72   A    
C2    C60   A    
C92   H43   S    
C44   C86   S    
C10   C51   S    
C40   C90   S    
C15   Cl7   S    
N13   Ni8   S    
C35   N22   A    
C34   H21   S    
C8    Cl16  S    
C49   C108  S    
C81   C105  S    
C24   H11   S    
N18   Ni6   S    
C29   C73   A    
C38   C72   A    
N15   N25   A    
C7    C100  S    
C23   N10   A    
C47   C61   A    
C25   H12   S    
C52   C107  S    
C44   C81   S    
N2    N23   A    
C32   N19   A    
N15   Ni5   S    
C40   C110  S    
N3    N12   A    
C39   H26   S    
C14   Cl6   S    
C29   H16   S    
C5    C45   S    
C76   H28   S    
C50   C109  S    
C40   C61   S    
C40   C76   S    
C78   C107  S    
C19   H6    S    
N8    Ni3   S    
C15   C55   S    
N27   Ni4   S    
C1    N1    A    
C16   C56   S    
C20   N7    A    
C112  Cl10  S    
C25   C59   A    
C33   H20   S    
C1    C57   A    
C41   C75   S    
C54   C73   S    
C97   H49   S    
N30   Ni4   S    
C19   C64   A    
N1    N4    A    
N9    N21   A    
C90   H42   S    
C18   N5    A    
C92   C94   S    
C13   H3    S    
N28   Ni2   S    
C45   C79   S    
C28   H15   S    
C6    C103  S    
C11   Cl4   S    
C110  Cl1   S    
C6    Cl14  S    
C21   C62   A    
N21   Ni8   S    
N16   Ni8   S    
C50   C93   S    
C8    C92   S    
C11   C78   S    
C9    C76   S    
C94   H46   S    
C42   C78   S    
C49   C70   S    
C41   C111  S    
C26   C70   A    
C46   C84   S    
C79   C104  S    
C26   N13   A    
C98   H50   S    
C51   C72   S    
C37   H24   S    
C91   N31   A    
C106  H58   S    
N5    Ni1   S    
C27   C71   A    
C33   C67   A    
C30   H17   S    
C104  H55   S    
C65   C91   A    
C22   N9    A    
C83   H35   S    
C19   N6    A    
C39   C71   A    
C6    C46   S    
C54   C105  S    
C45   C87   S    
C84   C99   S    
C80   H62   S    
C108  H60   S    
C37   N24   A    
C9    C50   S    
C12   C53   S    
C56   C103  S    
N10   N20   A    
N5    N31   A    
C34   N21   A    
N32   Ni2   S    
C9    C90   S    
C96   H48   S    
C55   C67   S    
C36   H23   S    
C13   C59   A    
C82   H33   S    
N3    Ni3   S    
C53   C98   S    
C43   C77   S    
C4    C44   S    
C4    C105  S    
C55   C101  S    
C45   C64   S    
C37   C73   A    
N17   N22   A    
C38   H25   S    
C108  C111  S    
C15   C85   S    
C14   C54   S    
C85   H37   S    
C6    C99   S    
C27   N14   A    
C89   C96   S    
C61   C102  A    
C89   H41   S    
C12   C87   S    
C52   C71   S    
C109  C110  S    
C7    C48   S    
N11   Ni7   S    
C84   H36   S    
C31   N18   A    
C47   N27   A    
N13   N18   A    
C20   C63   A    
C51   C106  S    
N8    N28   A    
C8    C49   S    
C3    Cl11  S    
C2    H2    S    
C82   C101  S    
C48   C82   S    
N23   Ni3   S    
C102  H64   S    
C8    C75   S    
C20   H7    S    
C91   H63   S    
C101  H53   S    
N26   Ni7   S    
C88   C95   S    
C24   C68   A    
C69   H56   S    
N1    Ni1   S    
C46   C83   S    
C58   H45   S    
C75   H27   S    
C41   C92   S    
C42   C88   S    
C5    C98   S    
N16   N24   A    
C13   N3    A    
C5    Cl13  S    
C85   C100  S    
C28   N15   A    
C36   C60   A    
C48   C85   S    
C77   H29   S    
C17   N4    A    
C16   C83   S    
C12   Cl5   S    
C21   N8    A    
C56   C99   S    
C2    N2    A    
C93   H44   S    
N22   Ni5   S    
N12   Ni2   S    
C42   C63   S    
C10   Cl3   S    
N6    Ni2   S    
C43   C62   S    
C80   N30   A    
C7    C101  S    
C100  H52   S    
