data_mof_unit_16770.cif
_audit_creation_date              2012-12-11T14:36:06-0500
_audit_creation_method            fapswitch 2.2
_symmetry_space_group_name_H-M    P1
_symmetry_Int_Tables_number       1
_space_group_crystal_system       triclinic
_cell_length_a                    13.462326
_cell_length_b                    13.530526
_cell_length_c                    27.422475
_cell_angle_alpha                 91.142939
_cell_angle_beta                  89.727618
_cell_angle_gamma                 59.939572
_cell_volume                      4321.73185283

loop_
_atom_site_label
_atom_site_type_symbol
_atom_type_description
_atom_site_fract_x
_atom_site_fract_y
_atom_site_fract_z
_atom_type_partial_charge
C1    C     C_R   0.596134 0.071687 0.575179 0.543225
C2    C     C_1   0.646050 0.713382 0.659466 -0.055975
C3    C     C_3   0.303030 0.461378 0.313767 -0.061212
C4    C     C_3   0.429254 0.857986 0.832460 -0.086805
C5    C     C_3   0.421347 0.991981 0.693501 -0.099352
C6    C     C_3   0.071736 0.154675 0.739544 -0.110863
C7    C     C_R   0.599153 0.780487 0.568929 0.540687
C8    C     C_3   0.163154 0.062888 0.772998 -0.103922
C9    C     C_1   0.104209 0.195292 0.902497 0.025895
C10   C     C_1   0.217202 0.145321 0.615497 -0.010978
C11   C     C_3   0.065881 0.248784 0.774360 0.267745
C12   C     C_3   0.156221 0.158091 0.807228 0.017362
C13   C     C_3   0.161195 0.254169 0.745117 -0.133801
C14   C     C_3   0.167651 0.159216 0.710516 -0.004560
C15   C     C_1   0.628675 0.737119 0.617103 -0.005802
C16   C     C_3   0.252721 0.162236 0.778554 -0.122054
C17   C     C_3   0.257971 0.068995 0.743531 0.308457
C18   C     C_1   0.135427 0.171771 0.860352 -0.003392
C19   C     C_R   0.274485 0.123753 0.568895 0.531949
C20   C     C_1   0.185133 0.156038 0.657438 -0.046384
C21   C     C_3   0.566658 0.247777 0.745259 -0.096036
C22   C     C_3   0.528298 0.206481 0.790285 -0.141464
C23   C     C_1   0.687984 0.203154 0.904715 0.007575
C24   C     C_1   0.600896 0.093072 0.626268 -0.022558
C25   C     C_3   0.684079 0.206152 0.768790 0.322639
C26   C     C_3   0.653418 0.590136 0.769612 -0.171221
C27   C     C_3   0.646044 0.166400 0.813314 0.068306
C28   C     C_3   0.734143 0.087115 0.744494 -0.092712
C29   C     C_3   0.616146 0.127875 0.721344 -0.002197
C30   C     C_3   0.694517 0.046942 0.789353 -0.131501
C31   C     C_R   0.624510 0.100391 0.431757 0.597425
C32   C     C_3   0.576621 0.086611 0.765453 -0.135514
C33   C     C_1   0.666131 0.186528 0.863936 -0.010483
C34   C     C_1   0.605875 0.108743 0.669356 -0.074002
C35   C     C_R   0.735809 0.706011 0.359276 -0.145386
C36   C     C_R   0.746644 0.689008 0.308758 0.011737
C37   C     C_3   0.680364 0.660553 0.806949 0.076561
C38   C     C_R   0.756748 0.672316 0.206511 0.014636
C39   C     C_R   0.843796 0.677352 0.232307 -0.125315
C40   C     C_R   0.837789 0.687586 0.283152 -0.124927
C41   C     C_R   0.766293 0.652016 0.156123 -0.159831
C42   C     C_R   0.678090 0.647139 0.131076 0.005121
C43   C     C_R   0.603737 0.772844 0.430919 0.569204
C44   C     C_R   0.571398 0.676625 0.359497 0.227551
C45   C     C_R   0.571812 0.675464 0.308503 0.024456
C46   C     C_R   0.660147 0.681288 0.283101 0.027822
C47   C     C_R   0.482657 0.674925 0.282383 -0.115367
C48   C     C_3   0.563471 0.702553 0.745497 -0.113631
C49   C     C_R   0.479277 0.683257 0.232027 -0.132500
C50   C     C_R   0.569363 0.683705 0.206270 0.031346
C51   C     C_R   0.662055 0.679193 0.231951 0.031022
C52   C     C_R   0.572358 0.681714 0.155324 0.224682
C53   C     C_R   0.643109 0.708776 0.384273 0.005570
C54   C     C_R   0.223996 0.052417 0.357546 -0.157982
C55   C     C_R   0.275468 0.121329 0.431988 0.570246
C56   C     C_R   0.193835 0.068269 0.308590 0.008298
C57   C     C_R   0.152709 0.097771 0.208109 0.006757
C58   C     C_R   0.190051 0.990711 0.228417 -0.103706
C59   C     C_3   0.659829 0.694409 0.711966 -0.043918
C60   C     C_R   0.212371 0.975605 0.278228 -0.104716
C61   C     C_R   0.129167 0.114465 0.158332 -0.169051
C62   C     C_R   0.095695 0.221021 0.138207 -0.002951
C63   C     C_R   0.148998 0.256976 0.369640 0.224787
C64   C     C_R   0.127463 0.272460 0.319638 0.028120
C65   C     C_R   0.151488 0.177333 0.288974 0.029094
C66   C     C_R   0.088868 0.379510 0.299076 -0.132610
C67   C     C_3   0.749167 0.581971 0.734983 -0.078854
C68   C     C_R   0.080251 0.390886 0.248976 -0.137524
C69   C     C_R   0.103317 0.297366 0.218324 0.026574
C70   C     C_3   0.592083 0.770645 0.783151 0.282960
C71   C     C_R   0.135304 0.190890 0.238449 0.020367
C72   C     C_R   0.092738 0.309756 0.167889 0.265778
C73   C     C_R   0.209069 0.144974 0.387212 0.010966
C74   C     C_R   0.573204 0.244627 0.365933 0.205058
C75   C     C_R   0.571579 0.261980 0.314926 0.016462
C76   C     C_R   0.578426 0.289085 0.212929 -0.032552
C77   C     C_R   0.499855 0.379886 0.242645 -0.124747
C78   C     C_R   0.492001 0.366449 0.292813 0.307837
C79   C     C_3   0.773490 0.653594 0.772479 0.320574
C80   C     C_R   0.591059 0.304974 0.163447 -0.135675
C81   C     C_3   0.685972 0.766231 0.748970 -0.091465
C82   C     C_R   0.674266 0.213866 0.134629 -0.004020
C83   C     C_R   0.740252 0.053168 0.354729 0.186454
C84   C     C_R   0.734010 0.065087 0.304268 0.022105
C85   C     C_R   0.650618 0.169422 0.284301 -0.059898
C86   C     C_R   0.808578 0.973097 0.273146 -0.081033
C87   C     C_R   0.803450 0.984355 0.223089 -0.136658
C88   C     C_R   0.727619 0.089185 0.203169 0.029832
C89   C     C_R   0.650701 0.182218 0.233450 0.054594
C90   C     C_R   0.734702 0.104447 0.153729 -0.121213
C91   C     C_1   0.698604 0.608965 0.900833 0.022365
C92   C     C_1   0.690731 0.636415 0.858977 0.029408
C93   C     C_R   0.650320 0.136185 0.384817 0.004938
C94   C     C_R   0.050791 0.235028 0.949917 0.551542
C95   C     C_R   0.711868 0.563035 0.948390 0.551439
C96   C     C_R   0.722328 0.225007 0.951086 0.549690
C97   C     C_R   0.045810 0.247528 0.089258 0.555972
C98   C     C_R   0.705650 0.578379 0.085643 0.569023
C99   C     C_R   0.717182 0.234440 0.089117 0.542144
C100  C     C_3   0.952328 0.621698 0.750151 -0.090935
C101  C     C_3   0.752630 0.301836 0.724387 -0.111858
C102  C     C_3   0.170902 0.409835 0.136854 -0.118402
Cl1   Cl    Cl    0.938731 0.368176 0.798584 -0.599598
Cl2   Cl    Cl    0.445263 0.719670 0.122422 -0.637259
Cl3   Cl    Cl    0.480262 0.639857 0.391830 -0.474344
Cl4   Cl    Cl    0.102552 0.377016 0.409977 -0.565006
Cl5   Cl    Cl    0.488888 0.358524 0.407868 -0.423616
Cl6   Cl    Cl    0.865173 0.936592 0.379558 -0.582639
Cr1   Cr    Cr6+3 0.417550 0.169090 0.500530 1.127994
Cr2   Cr    Cr6+3 0.669180 0.913420 0.499920 1.086843
Cr3   Cr    Cr6+3 0.413260 0.917540 0.499520 1.083686
Cr4   Cr    Cr6+3 0.909170 0.177380 0.020380 1.038868
Cr5   Cr    Cr6+3 0.912710 0.429210 0.018220 1.062692
Cr6   Cr    Cr6+3 0.657170 0.432570 0.019030 1.071102
H1    H     H_    0.327737 0.162732 0.794718 0.119444
H2    H     H_    0.794517 0.725337 0.378485 0.181357
H3    H     H_    0.916283 0.673525 0.213158 0.107437
H4    H     H_    0.904909 0.693151 0.302472 0.128080
H5    H     H_    0.408069 0.684087 0.213532 0.163638
H6    H     H_    0.412245 0.672889 0.300561 0.194246
H7    H     H_    0.134183 0.045658 0.135527 0.148889
H8    H     H_    0.266804 0.966574 0.371482 0.163002
H9    H     H_    0.203931 0.918324 0.205671 0.136357
H10   H     H_    0.700501 0.837696 0.740118 0.095435
H11   H     H_    0.244544 0.891456 0.292985 0.125801
H12   H     H_    0.157701 0.334064 0.733663 0.122002
H13   H     H_    0.055047 0.473683 0.234413 0.151883
H14   H     H_    0.070347 0.454295 0.321018 0.167643
H15   H     H_    0.542763 0.389571 0.148522 0.146220
H16   H     H_    0.443246 0.462082 0.226959 0.119114
H17   H     H_    0.797042 0.033080 0.131207 0.131076
H18   H     H_    0.862643 0.912313 0.200081 0.103872
H19   H     H_    0.870803 0.890928 0.286918 0.166460
H20   H     H_    0.476987 0.722385 0.733391 0.147349
H21   H     H_    0.639281 0.518787 0.779166 0.166209
H22   H     H_    0.166607 0.983089 0.784549 0.108589
H23   H     H_    0.444333 0.255533 0.809745 0.113338
H24   H     H_    0.997812 0.151700 0.723559 0.127733
H25   H     H_    0.914467 0.703313 0.730329 0.097504
H26   H     H_    0.969583 0.549520 0.724773 0.128813
H27   H     H_    0.036126 0.605018 0.764458 0.145642
H28   H     H_    0.668285 0.370810 0.711789 0.110066
H29   H     H_    0.789897 0.228980 0.697511 0.106665
H30   H     H_    0.811494 0.336388 0.725431 0.176851
H31   H     H_    0.221821 0.341221 0.109112 0.131918
H32   H     H_    0.223087 0.398131 0.169890 0.099556
H33   H     H_    0.150693 0.492478 0.120955 0.141209
H34   H     H_    0.513620 0.329986 0.726848 0.104817
H35   H     H_    0.308575 0.380336 0.325375 0.146740
H36   H     H_    0.273373 0.479525 0.275475 0.067183
H37   H     H_    0.237222 0.531427 0.337352 0.192223
H38   H     H_    0.379816 0.836597 0.806213 0.137070
H39   H     H_    0.367714 0.939887 0.851115 0.141191
H40   H     H_    0.466625 0.792322 0.860818 0.106097
H41   H     H_    0.403817 0.081697 0.694876 0.100730
H42   H     H_    0.404635 0.969199 0.656615 0.137221
H43   H     H_    0.513997 0.936642 0.699415 0.137729
H44   H     H_    0.532049 0.036878 0.765513 0.174213
H45   H     H_    0.746402 0.964637 0.807877 0.136568
H46   H     H_    0.818762 0.038434 0.725463 0.108666
H47   H     H_    0.845457 0.631673 0.137208 0.161324
H48   H     H_    0.813971 0.506108 0.713710 0.133785
O1    O     O_R   0.301710 0.195650 0.554160 -0.498857
O2    O     O_R   0.635520 0.542770 0.964420 -0.506185
O3    O     O_R   0.665950 0.325030 0.970100 -0.495227
O4    O     O_R   0.522390 0.158990 0.550460 -0.475645
O5    O     O_R   0.816620 0.158530 0.074540 -0.517527
O6    O     O_R   0.004460 0.188870 0.069750 -0.507424
O7    O     O_R   0.025800 0.341780 0.072300 -0.462730
O8    O     O_R   0.807650 0.528950 0.067500 -0.504558
O9    O     O_R   0.633420 0.550490 0.071810 -0.446418
O10   O     O_R   0.664000 0.332180 0.069640 -0.498704
O11   O     O_3   0.826350 0.346390 0.019210 -0.259400
O12   O     O_R   0.658900 0.818120 0.449760 -0.499895
O13   O     O_R   0.694390 0.003530 0.554040 -0.486450
O14   O     O_R   0.657700 0.819660 0.549320 -0.513566
O15   O     O_R   0.501930 0.803280 0.552920 -0.489730
O16   O     O_R   0.318170 0.023580 0.549580 -0.499526
O17   O     O_R   0.303010 0.193990 0.446760 -0.434482
O18   O     O_R   0.523600 0.157450 0.450900 -0.454438
O19   O     O_R   0.695690 0.001860 0.446640 -0.441477
O20   O     O_3   0.881942 0.628702 0.789765 -0.515869
O21   O     O_3   0.742592 0.268061 0.771663 -0.538181
O22   O     O_3   0.066857 0.413700 0.148629 -0.561214
O23   O     O_R   0.503220 0.801620 0.445520 -0.447327
O24   O     O_3   0.408599 0.458343 0.319694 -0.485673
O25   O     O_3   0.514030 0.872357 0.808674 -0.553511
O26   O     O_3   0.359524 0.968433 0.728632 -0.550153
O27   O     O_R   0.319370 0.022040 0.450020 -0.508304
O28   O     O_3   0.499990 0.000010 0.499990 -0.312742
O29   O     O_R   0.818720 0.150820 0.967160 -0.503669
O30   O     O_R   0.006410 0.181720 0.970200 -0.495087
O31   O     O_R   0.027890 0.334070 0.964920 -0.494505
O32   O     O_R   0.809600 0.521790 0.967960 -0.484048

loop_
_geom_bond_atom_site_label_1
_geom_bond_atom_site_label_2
_ccdc_geom_bond_type
C66   C68   A    
C87   C88   A    
C16   H1    S    
C44   Cl3   S    
C41   H47   S    
C8    H22   S    
C94   O31   A    
C11   C13   S    
C41   C42   A    
C40   H4    S    
C35   C36   A    
C74   C93   A    
C59   C81   S    
C47   C49   A    
Cr2   O13   S    
C27   C33   S    
C25   C28   S    
Cr6   O10   S    
C37   C79   S    
C22   H23   S    
C58   H9    S    
C22   C32   S    
Cr6   O3    S    
C26   C67   S    
C55   O27   A    
C96   O29   A    
C48   H20   S    
C28   C29   S    
C84   C86   A    
C4    H40   S    
C29   C32   S    
C100  H27   S    
C42   C98   S    
C102  H31   S    
C38   C39   A    
C101  H30   S    
C35   C53   A    
C43   O23   A    
C17   O26   S    
C58   C60   A    
C56   C65   A    
C83   C93   A    
C28   H46   S    
C97   O7    A    
C83   Cl6   S    
C7    O15   A    
C61   H7    S    
C82   C99   S    
C69   C71   A    
C70   C81   S    
C39   H3    S    
C26   H21   S    
C100  H26   S    
C59   C67   S    
C74   Cl5   S    
C44   C53   A    
C43   C53   S    
Cr6   O11   S    
C52   Cl2   S    
C12   C16   S    
Cr2   O19   S    
C10   C20   T    
C16   C17   S    
C23   C33   T    
Cr3   O16   S    
C50   C52   A    
C36   C46   A    
C78   O24   S    
C13   C14   S    
C100  O20   S    
Cr1   O28   S    
C32   H44   S    
C101  O21   S    
C26   C48   S    
C76   C89   A    
C7    C15   S    
Cr4   O11   S    
C54   H8    S    
C37   C70   S    
C31   O19   A    
C27   C30   S    
C14   C17   S    
C30   H45   S    
C55   O17   A    
C75   C85   A    
C23   C96   S    
C99   O5    A    
C45   C47   A    
Cr6   O9    S    
C4    H38   S    
C54   C56   A    
Cr3   O23   S    
C3    H35   S    
C74   C75   A    
C81   H10   S    
C21   H34   S    
C14   C20   S    
C36   C40   A    
C67   C79   S    
C76   C77   A    
C72   O22   S    
C38   C41   A    
C80   C82   A    
Cr1   O1    S    
C6    C11   S    
C79   C81   S    
C85   C89   A    
C86   C87   A    
C68   C69   A    
Cr5   O7    S    
C99   O10   A    
C63   C73   A    
C60   H11   S    
C65   C71   A    
Cr4   O5    S    
C21   C29   S    
C29   C34   S    
Cr2   O28   S    
C24   C34   T    
C56   C60   A    
C64   C66   A    
C87   H18   S    
C6    H24   S    
C69   C72   A    
C100  H25   S    
C102  H33   S    
Cr4   O30   S    
C62   C97   S    
C101  H28   S    
Cr1   O17   S    
C54   C73   A    
Cr6   O2    S    
C83   C84   A    
C68   H13   S    
C10   C19   S    
C8    C12   S    
C55   C73   S    
C7    O14   A    
C50   C51   A    
C62   C72   A    
C35   H2    S    
C19   O1    A    
C84   C85   A    
C63   Cl4   S    
C2    C15   T    
C19   O16   A    
C70   O25   S    
C1    C24   S    
Cr5   O32   S    
C13   H12   S    
C47   H6    S    
C88   C90   A    
Cr3   O27   S    
C95   O32   A    
C5    H43   S    
C22   C27   S    
C49   C50   A    
C90   H17   S    
C97   O6    A    
C3    O24   S    
C91   C92   T    
C44   C45   A    
C4    O25   S    
C48   C59   S    
Cr5   O11   S    
C21   C25   S    
C39   C40   A    
C1    O13   A    
C3    H36   S    
C80   H15   S    
C37   C92   S    
C2    C59   S    
Cr5   O31   S    
C76   C80   A    
C86   H19   S    
C48   C70   S    
C6    C8    S    
C11   C12   S    
C26   C37   S    
C57   C61   A    
Cr5   O8    S    
C38   C51   A    
Cr2   O14   S    
C25   C27   S    
C5    H42   S    
C3    H37   S    
C8    C17   S    
C82   C90   A    
C79   O20   S    
C31   O18   A    
C102  O22   S    
C64   C65   A    
C28   C30   S    
C6    C14   S    
C31   C93   S    
C95   O2    A    
C102  H32   S    
Cr4   O29   S    
C30   C32   S    
C101  H29   S    
C67   H48   S    
C57   C58   A    
C49   H5    S    
Cr2   O12   S    
C1    O4    A    
Cr1   O18   S    
C46   C51   A    
C43   O12   A    
C66   H14   S    
C4    H39   S    
C77   H16   S    
C5    H41   S    
C61   C62   A    
C75   C78   A    
C94   O30   A    
C98   O9    A    
Cr1   O4    S    
C91   C95   S    
C63   C64   A    
C98   O8    A    
C45   C46   A    
C9    C18   T    
C88   C89   A    
Cr3   O28   S    
C57   C71   A    
C13   C16   S    
C12   C18   S    
Cr3   O15   S    
C77   C78   A    
C11   Cl1   S    
C96   O3    A    
C5    O26   S    
C21   C22   S    
C9    C94   S    
C25   O21   S    
C42   C52   A    
Cr4   O6    S    
