data_mof_unit_64003.cif
_audit_creation_date              2013-03-05T16:32:18-0500
_audit_creation_method            fapswitch 2.2
_symmetry_space_group_name_H-M    P1
_symmetry_Int_Tables_number       1
_space_group_crystal_system       triclinic
_cell_length_a                    41.550615
_cell_length_b                    35.674998
_cell_length_c                    21.477513
_cell_angle_alpha                 90.038509
_cell_angle_beta                  59.093868
_cell_angle_gamma                 90.046301
_cell_volume                      27316.028806

loop_
_atom_site_label
_atom_site_type_symbol
_atom_site_description
_atom_site_fract_x
_atom_site_fract_y
_atom_site_fract_z
_atom_type_partial_charge
O1    O     O_R   0.945630 0.468530 0.054370 -0.574796
O2    O     O_R   0.054370 0.468530 0.945630 -0.574766
O3    O     O_R   0.445630 0.968530 0.054370 -0.574795
O4    O     O_R   0.554370 0.968530 0.945630 -0.574762
O5    O     O_R   0.945630 0.531470 0.054380 -0.580495
O6    O     O_R   0.054370 0.531470 0.945620 -0.580498
O7    O     O_R   0.445630 0.031470 0.054380 -0.580499
O8    O     O_R   0.554370 0.031470 0.945620 -0.580502
C1    C     C_R   0.927845 0.499970 0.073307 0.812403
C2    C     C_R   0.072155 0.499985 0.926664 0.812313
C3    C     C_R   0.427845 0.999970 0.073309 0.812403
C4    C     C_R   0.572155 0.999985 0.926663 0.812312
O9    O     O_R   0.000010 0.468530 0.091570 -0.583101
O10   O     O_R   0.999990 0.468530 0.908430 -0.583288
O11   O     O_R   0.500010 0.968530 0.091570 -0.583104
O12   O     O_R   0.499990 0.968530 0.908430 -0.583294
O13   O     O_R   0.000010 0.531470 0.091580 -0.577436
O14   O     O_R   0.999990 0.531470 0.908420 -0.577326
O15   O     O_R   0.500010 0.031470 0.091580 -0.577433
O16   O     O_R   0.499990 0.031470 0.908420 -0.577323
C5    C     C_R   0.999541 0.499942 0.120766 0.844894
C6    C     C_R   0.000466 0.499925 0.879230 0.844824
C7    C     C_R   0.499541 0.999942 0.120767 0.844893
C8    C     C_R   0.500467 0.999925 0.879229 0.844824
Cu1   Cu    Cu3+1 0.000000 0.462740 0.000000 0.986687
Cu2   Cu    Cu3+1 0.500000 0.962740 0.000000 0.986691
Cu3   Cu    Cu3+1 0.000000 0.537260 0.000000 1.000942
Cu4   Cu    Cu3+1 0.500000 0.037260 0.000000 1.000950
C9    C     C_3   0.975356 0.525572 0.253985 0.086499
C10   C     C_3   0.024827 0.525369 0.745869 0.086375
C11   C     C_3   0.475348 0.025564 0.253994 0.086504
C12   C     C_3   0.524836 0.025360 0.745858 0.086377
C13   C     C_3   0.010102 0.532521 0.260162 0.317652
C14   C     C_3   0.990126 0.532526 0.739682 0.318474
C15   C     C_3   0.510092 0.032523 0.260172 0.317669
C16   C     C_3   0.490137 0.032529 0.739670 0.318498
C17   C     C_3   0.999604 0.499090 0.312155 -0.246121
C18   C     C_3   0.000360 0.499018 0.687886 -0.246587
C19   C     C_3   0.499605 0.999088 0.312153 -0.246121
C20   C     C_3   0.500359 0.999017 0.687889 -0.246593
C21   C     C_3   0.964803 0.491643 0.305589 0.090325
C22   C     C_3   0.035117 0.491366 0.694467 0.089119
C23   C     C_3   0.464806 0.991631 0.305586 0.090331
C24   C     C_3   0.535114 0.991352 0.694470 0.089110
C25   C     C_3   0.988597 0.465591 0.240170 0.079720
C26   C     C_3   0.011142 0.465472 0.760047 0.081186
C27   C     C_3   0.488607 0.965587 0.240158 0.079680
C28   C     C_3   0.511129 0.965468 0.760061 0.081163
C29   C     C_3   0.023095 0.473508 0.246513 0.294681
C30   C     C_3   0.976684 0.473595 0.753705 0.294560
C31   C     C_3   0.523104 0.973514 0.246502 0.294645
C32   C     C_3   0.476674 0.973602 0.753719 0.294540
C33   C     C_3   0.034538 0.507179 0.193982 -0.307419
C34   C     C_3   0.965518 0.507352 0.806020 -0.306691
C35   C     C_3   0.534535 0.007189 0.193983 -0.307387
C36   C     C_3   0.465521 0.007365 0.806019 -0.306650
C37   C     C_3   0.999248 0.499602 0.188930 -0.126600
C38   C     C_3   0.000758 0.499557 0.811074 -0.126694
C39   C     C_3   0.499248 0.999601 0.188930 -0.126598
C40   C     C_3   0.500759 0.999558 0.811074 -0.126694
H1    H     H_    0.063145 0.513595 0.148122 0.183277
H2    H     H_    0.936967 0.513959 0.851863 0.183118
H3    H     H_    0.563140 0.013614 0.148124 0.183277
H4    H     H_    0.436973 0.013982 0.851861 0.183116
C41   C     C_R   0.672860 0.512627 0.275649 0.155950
C42   C     C_R   0.327146 0.512692 0.724289 0.155888
C43   C     C_R   0.172861 0.012624 0.275650 0.155905
C44   C     C_R   0.827145 0.012690 0.724287 0.155836
C45   C     C_R   0.633535 0.513019 0.315536 -0.164828
C46   C     C_R   0.366473 0.513070 0.684428 -0.164458
C47   C     C_R   0.133535 0.013016 0.315536 -0.164788
C48   C     C_R   0.866473 0.013068 0.684427 -0.164414
H5    H     H_    0.618493 0.524773 0.291209 0.169239
H6    H     H_    0.381523 0.524856 0.708750 0.169314
H7    H     H_    0.118495 0.024768 0.291206 0.169317
H8    H     H_    0.881521 0.024854 0.708751 0.169398
C49   C     C_R   0.613536 0.499220 0.386644 -0.111215
C50   C     C_R   0.386464 0.499219 0.613344 -0.111311
C51   C     C_R   0.113536 0.999219 0.386645 -0.111257
C52   C     C_R   0.886464 0.999218 0.613343 -0.111362
C53   C     C_R   0.633194 0.484072 0.417592 -0.207404
C54   C     C_R   0.366797 0.484029 0.582399 -0.207173
C55   C     C_R   0.133193 0.984073 0.417596 -0.207488
C56   C     C_R   0.866798 0.984028 0.582396 -0.207255
H9    H     H_    0.617876 0.472434 0.471854 0.200548
H10   H     H_    0.382108 0.472351 0.528157 0.200516
H11   H     H_    0.117874 0.972437 0.471859 0.200549
H12   H     H_    0.882109 0.972351 0.528154 0.200517
C57   C     C_R   0.672471 0.482069 0.378025 0.328483
C58   C     C_R   0.327517 0.482036 0.621946 0.328531
C59   C     C_R   0.172471 0.982069 0.378030 0.328487
C60   C     C_R   0.827518 0.982035 0.621942 0.328536
C61   C     C_R   0.692637 0.497221 0.307151 0.007811
C62   C     C_R   0.307360 0.497243 0.692789 0.007853
C63   C     C_R   0.192637 0.997219 0.307155 0.007807
C64   C     C_R   0.807360 0.997241 0.692785 0.007850
C65   C     C_1   0.733204 0.498496 0.268958 0.046453
C66   C     C_1   0.266793 0.498529 0.730948 0.046595
C67   C     C_1   0.233204 0.998494 0.268964 0.046435
C68   C     C_1   0.766793 0.998527 0.730943 0.046579
C69   C     C_1   0.767023 0.499774 0.237222 0.002861
C70   C     C_1   0.232976 0.499816 0.762661 0.002850
C71   C     C_1   0.267023 0.999772 0.237228 0.002850
C72   C     C_1   0.732976 0.999813 0.762655 0.002842
C73   C     C_R   0.827340 0.517376 0.129119 0.163169
C74   C     C_R   0.172683 0.517583 0.870630 0.163137
C75   C     C_R   0.327339 0.017381 0.129131 0.163165
C76   C     C_R   0.672684 0.017589 0.870617 0.163130
C77   C     C_R   0.866539 0.517297 0.090250 -0.210423
C78   C     C_R   0.133484 0.517500 0.909516 -0.210514
C79   C     C_R   0.366539 0.017302 0.090260 -0.210421
C80   C     C_R   0.633485 0.017507 0.909504 -0.210507
H13   H     H_    0.881707 0.529961 0.036795 0.158590
H14   H     H_    0.118335 0.530277 0.962884 0.158761
H15   H     H_    0.381706 0.029971 0.036809 0.158594
H16   H     H_    0.618336 0.030289 0.962866 0.158767
C81   C     C_R   0.886617 0.499920 0.118003 -0.100726
C82   C     C_R   0.113382 0.499965 0.881916 -0.100767
C83   C     C_R   0.386617 0.999920 0.118006 -0.100733
C84   C     C_R   0.613382 0.999964 0.881912 -0.100772
C85   C     C_R   0.867498 0.483419 0.187834 0.160349
C86   C     C_R   0.132477 0.483312 0.812197 0.160058
C87   C     C_R   0.367499 0.983412 0.187832 0.160341
C88   C     C_R   0.632476 0.983304 0.812200 0.160046
C89   C     C_R   0.827649 0.485269 0.229856 0.140914
C90   C     C_R   0.172327 0.485168 0.770141 0.140454
C91   C     C_R   0.327650 0.985262 0.229855 0.140915
C92   C     C_R   0.672326 0.985159 0.770142 0.140450
C93   C     C_R   0.807668 0.501058 0.198848 0.068712
C94   C     C_R   0.192332 0.501109 0.801023 0.068870
C95   C     C_R   0.307668 0.001057 0.198853 0.068711
C96   C     C_R   0.692332 0.001108 0.801017 0.068873
O17   O     O_R   0.031460 0.554330 0.468560 -0.584471
O18   O     O_R   0.968540 0.554330 0.531440 -0.584785
O19   O     O_R   0.531460 0.054330 0.468560 -0.584470
O20   O     O_R   0.468540 0.054330 0.531440 -0.584787
C97   C     C_R   0.000008 0.572308 0.499991 0.892683
C98   C     C_R   0.500008 0.072308 0.499991 0.892718
O21   O     O_R   0.031470 0.499960 0.376970 -0.529093
O22   O     O_R   0.968530 0.499960 0.623030 -0.528287
O23   O     O_R   0.531470 0.999960 0.376970 -0.529079
O24   O     O_R   0.468530 0.999960 0.623030 -0.528267
O25   O     O_R   0.968530 0.499940 0.439910 -0.607333
O26   O     O_R   0.031470 0.499940 0.560090 -0.606779
O27   O     O_R   0.468530 0.999940 0.439910 -0.607322
O28   O     O_R   0.531470 0.999940 0.560090 -0.606761
C99   C     C_R   0.999906 0.499365 0.379792 0.905429
C100  C     C_R   0.000086 0.499328 0.620216 0.903086
C101  C     C_R   0.499907 0.999363 0.379792 0.905393
C102  C     C_R   0.500086 0.999326 0.620216 0.903030
Cu5   Cu    Cu3+1 0.037270 0.499960 0.462740 1.043151
Cu6   Cu    Cu3+1 0.962730 0.499960 0.537260 1.041133
Cu7   Cu    Cu3+1 0.537270 0.999960 0.462740 1.043184
Cu8   Cu    Cu3+1 0.462730 0.999960 0.537260 1.041136
O29   O     O_R   0.031490 0.445590 0.468510 -0.571591
O30   O     O_R   0.968510 0.445590 0.531490 -0.575176
O31   O     O_R   0.531490 0.945590 0.468510 -0.571559
O32   O     O_R   0.468510 0.945590 0.531490 -0.575196
C103  C     C_R   0.999981 0.427786 0.499667 0.861954
C104  C     C_R   0.499982 0.927787 0.499663 0.861846
O33   O     O_R   0.500010 0.554270 0.552980 -0.593591
O34   O     O_R   0.499990 0.554270 0.447020 -0.592778
O35   O     O_R   0.000010 0.054270 0.552980 -0.593516
O36   O     O_R   0.999990 0.054270 0.447020 -0.592754
C105  C     C_R   0.500051 0.572121 0.499998 0.778688
C106  C     C_R   0.000057 0.072119 0.499991 0.778537
O37   O     O_R   0.554380 0.499900 0.498630 -0.590514
O38   O     O_R   0.445620 0.499900 0.501370 -0.590199
O39   O     O_R   0.054380 0.999900 0.498630 -0.590657
O40   O     O_R   0.945620 0.999900 0.501370 -0.590332
O41   O     O_R   0.554370 0.499880 0.392640 -0.563914
O42   O     O_R   0.445630 0.499880 0.607360 -0.563824
O43   O     O_R   0.054370 0.999880 0.392640 -0.563805
O44   O     O_R   0.945630 0.999880 0.607360 -0.563700
C107  C     C_R   0.572153 0.499835 0.427938 0.845522
C108  C     C_R   0.427847 0.499832 0.572061 0.845979
C109  C     C_R   0.072153 0.999835 0.427938 0.845480
C110  C     C_R   0.927847 0.999832 0.572061 0.845962
Cu9   Cu    Cu3+1 0.500000 0.499910 0.562760 1.042726
Cu10  Cu    Cu3+1 0.500000 0.499910 0.437240 1.043208
Cu11  Cu    Cu3+1 1.000000 0.999910 0.562760 1.042722
Cu12  Cu    Cu3+1 1.000000 0.999910 0.437240 1.043173
O45   O     O_R   0.500000 0.445540 0.553030 -0.544134
O46   O     O_R   0.500000 0.445540 0.446970 -0.544192
O47   O     O_R   1.000000 0.945540 0.553030 -0.544130
O48   O     O_R   1.000000 0.945540 0.446970 -0.544188
C111  C     C_R   0.500000 0.427856 0.499982 0.932325
C112  C     C_R   0.000000 0.927856 0.499982 0.932337
C113  C     C_R   0.472688 0.327129 0.561829 0.055397
C114  C     C_R   0.527347 0.327154 0.437973 0.055363
C115  C     C_R   0.972688 0.827129 0.561830 0.055397
C116  C     C_R   0.027347 0.827154 0.437973 0.055366
C117  C     C_R   0.473148 0.366724 0.562105 0.296944
C118  C     C_R   0.526863 0.366748 0.437747 0.296945
C119  C     C_R   0.973148 0.866724 0.562105 0.296941
C120  C     C_R   0.026863 0.866749 0.437747 0.296944
C121  C     C_R   0.500001 0.386455 0.499940 -0.325411
C122  C     C_R   0.000001 0.886455 0.499940 -0.325416
C123  C     C_R   0.500026 0.307562 0.499892 0.016901
C124  C     C_R   0.000025 0.807562 0.499892 0.016902
C125  C     C_1   0.500042 0.266996 0.499878 0.025932
C126  C     C_1   0.000042 0.766996 0.499878 0.025931
C127  C     C_1   0.000048 0.733251 0.499882 -0.025872
C128  C     C_1   0.500048 0.233251 0.499882 -0.025871
C129  C     C_R   0.966149 0.672973 0.542383 0.153684
C130  C     C_R   0.033928 0.672984 0.457464 0.153535
C131  C     C_R   0.466149 0.172973 0.542382 0.153691
C132  C     C_R   0.533928 0.172984 0.457464 0.153537
C133  C     C_R   0.966463 0.633657 0.541802 -0.128943
C134  C     C_R   0.033596 0.633666 0.458103 -0.128345
C135  C     C_R   0.466463 0.133657 0.541801 -0.128939
C136  C     C_R   0.533596 0.133666 0.458103 -0.128336
H17   H     H_    0.940431 0.618525 0.574507 0.172860
H18   H     H_    0.059620 0.618541 0.425420 0.172984
H19   H     H_    0.440431 0.118525 0.574505 0.172850
H20   H     H_    0.559620 0.118541 0.425421 0.172976
C137  C     C_R   0.000024 0.613767 0.499966 -0.088297
C138  C     C_R   0.500024 0.113767 0.499966 -0.088273
C139  C     C_R   0.000043 0.692758 0.499908 0.110534
C140  C     C_R   0.500043 0.192758 0.499908 0.110537
C141  C     C_R   0.498539 0.673207 0.445937 0.131039
C142  C     C_R   0.502350 0.672596 0.555807 0.121846
C143  C     C_R   0.997479 0.173194 0.447084 0.130259
C144  C     C_R   0.003382 0.172594 0.554627 0.121343
C145  C     C_R   0.498491 0.633856 0.445925 -0.172065
C146  C     C_R   0.502139 0.633298 0.554821 -0.171859
C147  C     C_R   0.997482 0.133843 0.447026 -0.172083
C148  C     C_R   0.003172 0.133295 0.553656 -0.171855
H21   H     H_    0.496981 0.618974 0.403510 0.168078
H22   H     H_    0.503591 0.618004 0.596871 0.168820
H23   H     H_    0.995158 0.118953 0.405524 0.168033
H24   H     H_    0.005455 0.117998 0.594783 0.168728
C149  C     C_R   0.500213 0.613641 0.500188 -0.108558
C150  C     C_R   0.000228 0.113636 0.500161 -0.108390
C151  C     C_R   0.500467 0.692713 0.501185 0.100759
C152  C     C_R   0.000429 0.192707 0.501190 0.100545
C153  C     C_1   0.500239 0.733250 0.502116 0.018052
C154  C     C_1   0.000180 0.233244 0.502148 0.017444
C155  C     C_1   0.999768 0.267015 0.502988 0.158849
C156  C     C_1   0.499829 0.767019 0.502939 0.158915
C157  C     C_R   0.981837 0.326646 0.471271 0.344905
C158  C     C_R   0.016919 0.327430 0.534161 0.341759
C159  C     C_R   0.481942 0.826639 0.471090 0.344673
C160  C     C_R   0.516890 0.827442 0.534251 0.341657
C161  C     C_R   0.981979 0.366245 0.469697 0.033835
C162  C     C_R   0.017340 0.367019 0.532949 0.032205
C163  C     C_R   0.482048 0.866240 0.469576 0.033896
C164  C     C_R   0.517301 0.867030 0.533041 0.032188
C165  C     C_R   0.999914 0.386382 0.500441 -0.103484
C166  C     C_R   0.499919 0.886384 0.500438 -0.103465
C167  C     C_R   0.999036 0.307519 0.503795 -0.182185
C168  C     C_R   0.499082 0.807523 0.503744 -0.182345
N1    N     N_R   0.021801 0.569602 0.269531 0.139177
O49   O     O_R   0.031034 0.594959 0.219683 -0.334164
O50   O     O_R   0.022852 0.577724 0.327472 -0.383177
N2    N     N_R   0.978690 0.569674 0.730124 0.139156
O51   O     O_R   0.969667 0.595100 0.779816 -0.334110
O52   O     O_R   0.977649 0.577782 0.672187 -0.382984
N3    N     N_R   0.521781 0.069607 0.269553 0.139177
O53   O     O_R   0.531005 0.094968 0.219714 -0.334159
O54   O     O_R   0.522832 0.077728 0.327493 -0.383186
N4    N     N_R   0.478713 0.069681 0.730099 0.139155
O55   O     O_R   0.469701 0.095110 0.779779 -0.334107
O56   O     O_R   0.477672 0.077786 0.672161 -0.382992
N5    N     N_R   0.691349 0.463752 0.409899 0.119994
O57   O     O_R   0.678224 0.466518 0.479294 -0.333464
O58   O     O_R   0.717458 0.439235 0.372513 -0.348009
N6    N     N_R   0.308628 0.463669 0.590086 0.120072
O59   O     O_R   0.321753 0.466394 0.520690 -0.332940
O60   O     O_R   0.282514 0.439140 0.627486 -0.347819
N7    N     N_R   0.191347 0.963754 0.409908 0.119990
O61   O     O_R   0.178223 0.966524 0.479302 -0.333518
O62   O     O_R   0.217454 0.939233 0.372527 -0.348005
N8    N     N_R   0.808629 0.963668 0.590081 0.120070
O63   O     O_R   0.821755 0.966394 0.520685 -0.332987
O64   O     O_R   0.782518 0.939135 0.627477 -0.347805
C169  C     C_3   0.806902 0.534822 0.095251 -0.818335
H25   H     H_    0.826571 0.547048 0.041113 0.241866
H26   H     H_    0.789854 0.513144 0.088190 0.237911
H27   H     H_    0.788277 0.557585 0.130702 0.232996
C170  C     C_3   0.193145 0.535191 0.904363 -0.818231
H28   H     H_    0.173494 0.547546 0.958391 0.241909
H29   H     H_    0.210146 0.513578 0.911625 0.237783
H30   H     H_    0.211817 0.557884 0.868720 0.233213
C171  C     C_3   0.306901 0.034832 0.095268 -0.818334
H31   H     H_    0.326569 0.047064 0.041136 0.241864
H32   H     H_    0.289855 0.013156 0.088197 0.237910
H33   H     H_    0.288274 0.057592 0.130729 0.232995
C172  C     C_3   0.693146 0.035204 0.904343 -0.818220
H34   H     H_    0.673496 0.047566 0.958364 0.241909
H35   H     H_    0.710146 0.013593 0.911616 0.237785
H36   H     H_    0.711820 0.057893 0.868689 0.233214
C173  C     C_3   0.890262 0.464641 0.216141 -0.849195
H37   H     H_    0.873504 0.454004 0.272309 0.235052
H38   H     H_    0.905384 0.440183 0.181439 0.252679
H39   H     H_    0.911014 0.484732 0.214747 0.209014
C174  C     C_3   0.109690 0.464363 0.784039 -0.848031
H40   H     H_    0.126429 0.453664 0.727903 0.235319
H41   H     H_    0.094600 0.439923 0.818841 0.252836
H42   H     H_    0.088908 0.484362 0.785408 0.208774
C175  C     C_3   0.390263 0.964627 0.216132 -0.849167
H43   H     H_    0.373506 0.953988 0.272298 0.235046
H44   H     H_    0.405383 0.940170 0.181424 0.252688
H45   H     H_    0.411017 0.984715 0.214739 0.209008
C176  C     C_3   0.609689 0.964347 0.784051 -0.847984
H46   H     H_    0.626427 0.953645 0.727917 0.235318
H47   H     H_    0.594601 0.939908 0.818860 0.252848
H48   H     H_    0.588904 0.984343 0.785417 0.208763
C177  C     C_3   0.806975 0.471008 0.307332 -0.746509
H49   H     H_    0.776629 0.477270 0.336879 0.270068
H50   H     H_    0.810472 0.440181 0.307844 0.252079
H51   H     H_    0.818089 0.484969 0.338672 0.221284
C178  C     C_3   0.192979 0.470747 0.692761 -0.745507
H52   H     H_    0.223329 0.477021 0.663160 0.270076
H53   H     H_    0.189457 0.439907 0.692454 0.252324
H54   H     H_    0.181871 0.484582 0.661340 0.221432
C179  C     C_3   0.306976 0.970995 0.307327 -0.746534
H55   H     H_    0.276631 0.977257 0.336877 0.270072
H56   H     H_    0.310473 0.940167 0.307829 0.252080
H57   H     H_    0.318091 0.984951 0.338670 0.221280
C180  C     C_3   0.692978 0.970730 0.692768 -0.745515
H58   H     H_    0.723328 0.977005 0.663164 0.270078
H59   H     H_    0.689455 0.939890 0.692473 0.252332
H60   H     H_    0.681869 0.984560 0.661342 0.221429
C181  C     C_3   0.442742 0.305320 0.626191 -0.717781
H61   H     H_    0.421299 0.323338 0.669731 0.274164
H62   H     H_    0.427678 0.286654 0.608153 0.217734
H63   H     H_    0.456007 0.287941 0.649788 0.231192
C182  C     C_3   0.557301 0.305375 0.373580 -0.717714
H64   H     H_    0.578727 0.323416 0.330052 0.274159
H65   H     H_    0.572384 0.286756 0.391584 0.217753
H66   H     H_    0.544041 0.287948 0.349977 0.231176
C183  C     C_3   0.942742 0.805320 0.626191 -0.717778
H67   H     H_    0.921299 0.823338 0.669731 0.274164
H68   H     H_    0.927678 0.786654 0.608154 0.217735
H69   H     H_    0.956007 0.787941 0.649788 0.231190
C184  C     C_3   0.057301 0.805375 0.373580 -0.717719
H70   H     H_    0.078726 0.823416 0.330052 0.274158
H71   H     H_    0.072384 0.786756 0.391583 0.217753
H72   H     H_    0.044041 0.787948 0.349977 0.231175
N9    N     N_R   0.445790 0.387059 0.624794 0.131175
O65   O     O_R   0.421912 0.408905 0.620614 -0.365850
O66   O     O_R   0.446295 0.385603 0.684810 -0.324200
N10   N     N_R   0.554210 0.387108 0.375085 0.131156
O67   O     O_R   0.578100 0.408979 0.379274 -0.365869
O68   O     O_R   0.553694 0.385635 0.315077 -0.324224
N11   N     N_R   0.945790 0.887059 0.624794 0.131175
O69   O     O_R   0.921912 0.908905 0.620615 -0.365838
O70   O     O_R   0.946295 0.885603 0.684810 -0.324195
N12   N     N_R   0.054210 0.887108 0.375085 0.131156
O71   O     O_R   0.078100 0.908978 0.379274 -0.365858
O72   O     O_R   0.053693 0.885635 0.315077 -0.324224
C185  C     C_3   0.929626 0.693430 0.588494 -0.815669
H73   H     H_    0.905746 0.673751 0.618229 0.239021
H74   H     H_    0.931551 0.711154 0.628984 0.240956
H75   H     H_    0.923624 0.711530 0.553619 0.236781
C186  C     C_3   0.070459 0.693453 0.411325 -0.815328
H76   H     H_    0.094331 0.673782 0.381614 0.239094
H77   H     H_    0.068541 0.711130 0.370815 0.240940
H78   H     H_    0.076470 0.711602 0.446177 0.236779
C187  C     C_3   0.429626 0.193430 0.588493 -0.815677
H79   H     H_    0.405745 0.173751 0.618227 0.239019
H80   H     H_    0.431550 0.211154 0.628983 0.240956
H81   H     H_    0.423624 0.211530 0.553617 0.236781
C188  C     C_3   0.570459 0.193453 0.411326 -0.815325
H82   H     H_    0.594331 0.173782 0.381616 0.239093
H83   H     H_    0.568542 0.211130 0.370816 0.240940
H84   H     H_    0.576470 0.211602 0.446179 0.236780
C189  C     C_3   0.496462 0.693996 0.387002 -0.756530
H85   H     H_    0.495295 0.674534 0.347817 0.226074
H86   H     H_    0.470897 0.711743 0.411458 0.275320
H87   H     H_    0.521588 0.712110 0.356615 0.244793
C190  C     C_3   0.504699 0.692637 0.615148 -0.742630
H88   H     H_    0.505611 0.672717 0.653939 0.222815
H89   H     H_    0.530551 0.709974 0.590928 0.269909
H90   H     H_    0.479810 0.710976 0.645958 0.255328
C191  C     C_3   0.994233 0.193971 0.389444 -0.754964
H91   H     H_    0.992358 0.174503 0.351042 0.225854
H92   H     H_    0.968621 0.211660 0.415248 0.275317
H93   H     H_    0.019208 0.212142 0.357921 0.245508
C192  C     C_3   0.006861 0.192639 0.612690 -0.741497
H94   H     H_    0.008666 0.172719 0.650514 0.222737
H95   H     H_    0.032642 0.210110 0.587141 0.269252
H96   H     H_    0.982012 0.210853 0.644827 0.256245
C193  C     C_3   0.948382 0.555832 0.258708 -0.743756
H97   H     H_    0.935519 0.569849 0.312380 0.240036
H98   H     H_    0.963755 0.576938 0.215374 0.264206
H99   H     H_    0.925960 0.543104 0.252113 0.211973
C194  C     C_3   0.052020 0.555473 0.740958 -0.743996
H100  H     H_    0.064949 0.569422 0.687233 0.240231
H101  H     H_    0.036808 0.576660 0.784218 0.264191
H102  H     H_    0.074376 0.542618 0.747544 0.211921
C195  C     C_3   0.448365 0.055817 0.258728 -0.743787
H103  H     H_    0.435500 0.069830 0.312403 0.240042
H104  H     H_    0.463731 0.076927 0.215398 0.264205
H105  H     H_    0.425946 0.043083 0.252132 0.211970
C196  C     C_3   0.552039 0.055455 0.740936 -0.744024
H106  H     H_    0.564972 0.069401 0.687207 0.240239
H107  H     H_    0.536835 0.076647 0.784190 0.264189
H108  H     H_    0.574392 0.042593 0.747522 0.211918
N13   N     N_R   0.964701 0.305596 0.438957 0.119062
O73   O     O_R   0.980471 0.304399 0.368697 -0.340113
O74   O     O_R   0.936015 0.284149 0.479019 -0.350411
N14   N     N_R   0.035190 0.307240 0.565147 0.123104
O75   O     O_R   0.071399 0.309367 0.535838 -0.336398
O76   O     O_R   0.015811 0.285705 0.621177 -0.358779
N15   N     N_R   0.464934 0.805579 0.438535 0.119107
O77   O     O_R   0.480739 0.804545 0.368258 -0.339901
O78   O     O_R   0.436366 0.783949 0.478350 -0.349911
N16   N     N_R   0.535100 0.807261 0.565368 0.123298
O79   O     O_R   0.571302 0.809386 0.536183 -0.336100
O80   O     O_R   0.515678 0.785722 0.621373 -0.358700
C197  C     C_3   0.963027 0.387258 0.435812 -0.730898
H109  H     H_    0.951264 0.368714 0.411068 0.265471
H110  H     H_    0.939307 0.404021 0.477852 0.229556
H111  H     H_    0.983438 0.406280 0.392638 0.231802
C198  C     C_3   0.034841 0.388819 0.568831 -0.713958
H112  H     H_    0.042048 0.371047 0.602201 0.262311
H113  H     H_    0.060835 0.402870 0.526774 0.235413
H114  H     H_    0.014946 0.410322 0.605976 0.220687
C199  C     C_3   0.463116 0.887250 0.435646 -0.731050
H115  H     H_    0.451344 0.868705 0.410923 0.265486
H116  H     H_    0.439401 0.904027 0.477659 0.229402
H117  H     H_    0.483540 0.906258 0.392461 0.231990
C200  C     C_3   0.534747 0.888840 0.569015 -0.714131
H118  H     H_    0.541926 0.871074 0.602434 0.262308
H119  H     H_    0.560750 0.902899 0.527007 0.235342
H120  H     H_    0.514831 0.910338 0.606128 0.220785
C201  C     C_3   0.925202 0.482618 0.366901 -0.773986
H121  H     H_    0.906794 0.477845 0.344305 0.227992
H122  H     H_    0.925608 0.456958 0.395664 0.234445
H123  H     H_    0.913974 0.506405 0.405638 0.246828
C202  C     C_3   0.074655 0.482105 0.633206 -0.771721
H124  H     H_    0.093026 0.477224 0.655835 0.228181
H125  H     H_    0.074075 0.456449 0.604565 0.234878
H126  H     H_    0.086054 0.505822 0.594353 0.246790
C203  C     C_3   0.425208 0.982594 0.366896 -0.774006
H127  H     H_    0.406801 0.977815 0.344299 0.227993
H128  H     H_    0.425623 0.956934 0.395652 0.234430
H129  H     H_    0.413973 0.006377 0.405641 0.246833
C204  C     C_3   0.574648 0.982078 0.633213 -0.771705
H130  H     H_    0.593017 0.977191 0.655843 0.228186
H131  H     H_    0.574059 0.956422 0.604581 0.234869
H132  H     H_    0.586055 0.005791 0.594351 0.246793
C205  C     C_3   0.976611 0.426699 0.230605 -0.713917
H133  H     H_    0.970795 0.408840 0.277556 0.234609
H134  H     H_    0.950860 0.428809 0.227517 0.221263
H135  H     H_    0.999312 0.413679 0.180120 0.266356
C206  C     C_3   0.022882 0.426541 0.769875 -0.716754
H136  H     H_    0.028570 0.408612 0.723065 0.231610
H137  H     H_    0.048656 0.428546 0.772924 0.222429
H138  H     H_    0.000105 0.413669 0.820458 0.266019
C207  C     C_3   0.476631 0.926692 0.230580 -0.713836
H139  H     H_    0.470820 0.908831 0.277527 0.234619
H140  H     H_    0.450880 0.928797 0.227493 0.221257
H141  H     H_    0.499335 0.913678 0.180092 0.266373
C208  C     C_3   0.522858 0.926534 0.769906 -0.716712
H142  H     H_    0.528541 0.908602 0.723103 0.231590
H143  H     H_    0.548632 0.928532 0.772954 0.222442
H144  H     H_    0.500077 0.913670 0.820493 0.266025
N17   N     N_R   0.049329 0.444357 0.239663 0.142836
O81   O     O_R   0.068740 0.426551 0.178508 -0.323778
O82   O     O_R   0.052450 0.434837 0.294734 -0.350095
N18   N     N_R   0.950162 0.444627 0.760972 0.141736
O83   O     O_R   0.930889 0.426800 0.822125 -0.325518
O84   O     O_R   0.946310 0.435577 0.706523 -0.350398
N19   N     N_R   0.549349 0.944371 0.239633 0.142829
O85   O     O_R   0.568756 0.926566 0.178477 -0.323750
O86   O     O_R   0.552497 0.934869 0.294680 -0.350034
N20   N     N_R   0.450137 0.944645 0.761010 0.141703
O87   O     O_R   0.430871 0.926818 0.822165 -0.325549
O88   O     O_R   0.446249 0.935618 0.706593 -0.350370
C209  C     C_3   0.692166 0.528990 0.200213 -0.818748
H145  H     H_    0.723089 0.527090 0.171885 0.231666
H146  H     H_    0.682899 0.513812 0.166960 0.248157
H147  H     H_    0.684499 0.559021 0.203173 0.233935
C210  C     C_3   0.307850 0.529116 0.799695 -0.818156
H148  H     H_    0.276924 0.527228 0.827999 0.231591
H149  H     H_    0.317082 0.513975 0.832996 0.248055
H150  H     H_    0.315562 0.559149 0.796685 0.234291
C211  C     C_3   0.192167 0.028984 0.200211 -0.818697
H151  H     H_    0.223091 0.027083 0.171885 0.231657
H152  H     H_    0.182901 0.013804 0.166959 0.248167
H153  H     H_    0.184501 0.059015 0.203167 0.233957
C212  C     C_3   0.807848 0.029113 0.799694 -0.818085
H154  H     H_    0.776923 0.027224 0.827997 0.231580
H155  H     H_    0.817080 0.013971 0.832995 0.248068
H156  H     H_    0.815559 0.059146 0.796686 0.234317

loop_
_geom_bond_atom_site_label_1
_geom_bond_atom_site_label_2
_geom_bond_distance
_ccdc_geom_bond_type
C67   C71   1.207169 T    
C105  C149  1.481262 S    
C186  H76   1.110756 S    
C35   C39   1.548411 S    
C174  H41   1.109313 S    
C200  H118  1.107560 S    
O37   Cu9   1.950776 S    
O17   Cu5   1.950789 S    
C78   C82   1.395589 A    
C184  H70   1.107105 S    
C183  H67   1.107102 S    
C170  H30   1.110418 S    
O17   C97   1.292052 A    
C25   C37   1.542659 S    
C146  C149  1.403675 A    
O40   C110  1.303340 A    
C17   C21   1.546013 S    
C157  C161  1.413045 A    
C158  C167  1.406546 A    
C87   C175  1.518348 S    
Cu8   O32   1.950674 S    
O26   Cu5   1.977891 S    
C196  H107  1.109336 S    
C63   C67   1.447675 S    
C175  H45   1.109324 S    
C118  C121  1.411625 A    
N7    O61   1.301326 A    
C141  C145  1.403861 A    
C68   C72   1.207194 T    
N8    O63   1.301326 A    
C208  H142  1.109500 S    
C11   C39   1.539801 S    
C21   C201  1.522846 S    
C191  H93   1.110499 S    
O28   C102  1.280107 A    
Cu6   O30   1.950674 S    
N18   O83   1.300244 A    
C206  H137  1.108236 S    
C133  H17   1.083431 S    
C46   H6    1.084237 S    
Cu5   O29   1.950455 S    
O4    C4    1.288908 A    
O22   Cu6   1.976751 S    
C182  H64   1.107105 S    
C189  H87   1.110426 S    
C177  H50   1.110242 S    
C197  H110  1.109168 S    
C144  C148  1.402234 A    
C185  H74   1.110439 S    
C164  C166  1.417599 A    
C114  C123  1.412411 A    
C187  H81   1.110428 S    
C126  C127  1.203842 T    
C70   C94   1.450431 S    
C190  H90   1.110378 S    
C80   C84   1.395593 A    
C27   C207  1.522792 S    
C204  H132  1.109450 S    
O16   Cu4   1.977804 S    
C175  H43   1.105176 S    
C155  C167  1.445254 S    
O13   C5    1.283253 A    
O7    Cu4   1.949219 S    
C209  H147  1.110413 S    
C207  H141  1.109304 S    
O15   C7    1.283253 A    
C114  C182  1.515703 S    
C129  C185  1.507743 S    
C15   N3    1.458020 S    
C203  H129  1.109458 S    
O34   C105  1.304683 A    
C50   C54   1.399943 A    
C112  C122  1.476984 S    
C132  C136  1.402726 A    
C202  H126  1.109450 S    
C65   C69   1.207164 T    
C20   C102  1.459339 S    
C44   C64   1.416869 A    
C17   C99   1.459201 S    
C18   C100  1.459330 S    
O42   Cu9   1.948880 S    
C75   C95   1.411630 A    
N19   O86   1.299728 A    
N6    O60   1.300935 A    
O43   Cu12  1.948882 S    
C14   C34   1.544568 S    
O31   C104  1.290120 A    
C194  H100  1.109615 S    
O8    Cu4   1.949433 S    
C200  H120  1.109491 S    
C183  H69   1.110396 S    
C22   C202  1.522829 S    
C89   C177  1.515808 S    
C184  H72   1.110397 S    
C163  C166  1.418216 A    
C74   C94   1.411628 A    
C135  C138  1.403227 A    
C171  H33   1.110415 S    
O3    Cu2   1.949436 S    
C56   H12   1.083474 S    
N3    O54   1.299902 A    
C6    C38   1.457683 S    
N4    O56   1.299907 A    
C162  C198  1.517063 S    
C83   C87   1.415467 A    
C130  C139  1.411810 A    
C212  H156  1.110413 S    
C55   C59   1.402195 A    
C195  H103  1.109614 S    
C133  C137  1.403229 A    
C170  H28   1.110875 S    
C171  H32   1.110016 S    
C20   C32   1.536377 S    
C188  H82   1.110757 S    
C42   C46   1.402206 A    
C42   C210  1.508177 S    
C29   C33   1.546530 S    
C199  H116  1.109162 S    
C31   C35   1.546528 S    
C116  C124  1.412411 A    
C205  H133  1.109726 S    
C91   C95   1.421018 A    
O3    C3    1.288990 A    
C27   C39   1.542657 S    
C89   C93   1.421015 A    
C28   C32   1.534097 S    
C210  H149  1.110485 S    
C180  H58   1.104852 S    
C97   C137  1.479028 S    
C90   C94   1.421023 A    
C141  C189  1.507750 S    
C23   C27   1.545360 S    
O16   C8    1.283042 A    
O33   C105  1.303610 A    
Cu10  O46   1.951014 S    
C193  H98   1.109335 S    
C19   C31   1.536015 S    
C199  H115  1.106676 S    
C9    C13   1.536061 S    
O35   Cu11  1.950753 S    
C85   C173  1.518341 S    
C45   C49   1.400672 A    
C157  C167  1.406598 A    
C211  H153  1.110409 S    
C47   C51   1.400673 A    
N13   O73   1.300969 A    
C201  H121  1.109302 S    
C7    C39   1.457832 S    
C12   C196  1.522143 S    
C212  H154  1.105761 S    
C11   C23   1.545151 S    
C12   C16   1.535983 S    
C25   C205  1.522787 S    
C29   N17   1.458822 S    
Cu12  O48   1.951014 S    
N1    O49   1.300202 A    
C143  C147  1.403829 A    
C178  H53   1.110242 S    
C161  C197  1.517308 S    
C117  N9    1.434942 S    
C60   C64   1.414708 A    
C44   C212  1.508178 S    
C14   N2    1.458028 S    
C82   C86   1.415539 A    
C181  H62   1.110601 S    
O5    Cu3   1.949219 S    
C33   H1    1.110211 S    
O6    Cu3   1.949433 S    
C176  H47   1.109314 S    
C35   H3    1.110212 S    
C194  H102  1.108572 S    
C51   C109  1.475540 S    
O43   C109  1.302351 A    
O33   Cu9   1.950753 S    
C78   H14   1.084598 S    
O34   Cu10  1.950473 S    
C113  C123  1.412419 A    
C41   C61   1.416848 A    
C169  H25   1.110877 S    
O40   Cu12  1.950776 S    
C131  C135  1.402678 A    
C182  H65   1.110606 S    
N12   O71   1.300991 A    
O39   C109  1.303363 A    
C198  H113  1.109643 S    
C172  H34   1.110876 S    
N9    O66   1.300998 A    
C118  N10   1.434921 S    
C195  H105  1.108611 S    
C10   C14   1.535985 S    
O29   C103  1.290144 A    
O13   Cu3   1.978073 S    
C31   N19   1.458828 S    
C115  C124  1.412417 A    
C103  C165  1.477187 S    
C188  H84   1.110427 S    
C203  H128  1.109695 S    
N20   O87   1.300244 A    
C146  H22   1.083345 S    
C194  H101  1.109336 S    
C132  C188  1.507732 S    
C205  H135  1.109307 S    
C85   C89   1.423166 A    
C173  H37   1.105178 S    
C130  C134  1.402726 A    
C87   C91   1.423167 A    
O8    C4    1.290409 A    
C180  H60   1.110354 S    
C143  C191  1.507691 S    
C211  H151  1.105770 S    
O24   Cu8   1.976751 S    
O15   Cu4   1.978073 S    
N5    O58   1.300939 A    
N16   O79   1.301012 A    
O27   Cu8   1.977893 S    
C124  C126  1.447200 S    
C199  H117  1.109788 S    
C72   C96   1.450428 S    
C157  N13   1.434775 S    
C192  H96   1.110432 S    
C61   C65   1.447674 S    
C30   C34   1.546479 S    
O37   C107  1.303365 A    
C201  H123  1.109456 S    
O38   C108  1.303342 A    
C73   C77   1.397497 A    
C129  C139  1.411794 A    
C21   C25   1.545358 S    
C9    C21   1.545152 S    
O14   C6    1.283047 A    
C75   C79   1.397497 A    
C148  C150  1.403582 A    
C120  N12   1.434921 S    
O1    Cu1   1.949436 S    
N4    O55   1.300202 A    
C209  H146  1.110482 S    
C19   C101  1.459203 S    
O46   C111  1.302029 A    
C86   C174  1.518466 S    
O10   C6    1.279181 A    
C48   C52   1.400658 A    
C196  H106  1.109616 S    
O9    C5    1.279046 A    
O23   Cu7   1.976753 S    
C64   C68   1.447717 S    
O21   Cu5   1.976753 S    
C182  H66   1.110394 S    
C57   N5    1.436627 S    
C50   C108  1.475518 S    
C57   C61   1.414729 A    
C115  C119  1.412715 A    
C191  H92   1.110236 S    
C143  C152  1.412473 A    
C59   C63   1.414725 A    
C113  C117  1.412711 A    
C20   C24   1.546139 S    
C36   C40   1.548223 S    
N10   O67   1.300990 A    
N18   O84   1.299662 A    
C206  H136  1.109510 S    
C169  H27   1.110413 S    
C56   C60   1.402179 A    
C71   C95   1.450383 S    
C28   C208  1.522752 S    
C53   H9    1.083470 S    
O42   C108  1.302367 A    
C189  H86   1.110225 S    
C162  C165  1.417624 A    
C69   C93   1.450383 S    
C106  C150  1.481138 S    
C55   H11   1.083470 S    
C197  H109  1.106685 S    
C200  H119  1.109639 S    
C147  H23   1.083412 S    
C80   H16   1.084598 S    
C52   C56   1.399941 A    
C10   C194  1.522140 S    
O18   C97   1.291983 A    
C185  H73   1.110758 S    
C77   C81   1.395588 A    
Cu11  Cu12  2.695860 S    
C187  H80   1.110444 S    
C131  C140  1.411792 A    
C158  C162  1.412516 A    
C134  C137  1.403225 A    
C128  C140  1.444609 S    
C116  C120  1.412726 A    
C75   C171  1.507857 S    
C173  H39   1.109324 S    
C190  H89   1.110120 S    
C74   C78   1.397490 A    
C116  C184  1.515704 S    
C204  H131  1.109563 S    
C46   C50   1.400659 A    
C62   C66   1.447713 S    
C172  H36   1.110418 S    
C73   C169  1.507857 S    
C92   C180  1.515783 S    
C26   C206  1.522750 S    
C22   C26   1.545467 S    
C207  H140  1.108111 S    
C161  C165  1.418223 A    
C202  H125  1.109569 S    
C66   C70   1.207190 T    
Cu5   Cu6   2.657431 S    
C45   H5    1.084235 S    
O44   C110  1.302369 A    
O26   C100  1.280094 A    
C88   C92   1.423192 A    
C53   C57   1.402199 A    
C183  H68   1.110601 S    
C186  H77   1.110444 S    
C141  C151  1.412466 A    
O32   C104  1.289641 A    
C208  H143  1.108242 S    
C184  H71   1.110605 S    
C179  H56   1.110239 S    
C58   C62   1.414710 A    
C175  H44   1.109309 S    
O12   Cu2   1.977866 S    
C142  C151  1.411715 A    
O35   C106  1.303604 A    
O1    C1    1.288992 A    
C131  C187  1.507745 S    
C120  C122  1.411625 A    
C196  H108  1.108571 S    
N11   O69   1.300997 A    
C33   C37   1.548415 S    
C27   C31   1.533946 S    
C34   H2    1.110218 S    
N17   O81   1.300240 A    
C145  H21   1.083341 S    
C76   C80   1.397487 A    
C30   N18   1.458939 S    
C15   C19   1.536309 S    
C16   N4    1.458026 S    
C210  H148  1.105762 S    
C16   C36   1.544566 S    
O45   C111  1.301977 A    
O20   Cu8   1.950568 S    
C49   C53   1.399946 A    
C206  H138  1.109296 S    
O18   Cu6   1.950568 S    
N12   O72   1.300994 A    
O39   Cu11  1.950776 S    
O25   Cu6   1.977893 S    
C43   C63   1.416846 A    
C9    C37   1.539804 S    
C156  C168  1.445207 S    
C197  H111  1.109806 S    
C159  C163  1.413095 A    
Cu1   Cu3   2.658504 S    
C11   C15   1.536061 S    
C170  H29   1.110009 S    
C12   C40   1.539747 S    
O48   C112  1.302029 A    
C148  H24   1.083421 S    
C185  H75   1.110425 S    
C193  H97   1.109616 S    
C147  C150  1.403590 A    
C154  C155  1.204886 T    
O5    C1    1.290307 A    
O6    C2    1.290405 A    
O4    Cu2   1.949215 S    
C11   C195  1.522128 S    
C54   C58   1.402179 A    
C24   C204  1.522830 S    
C145  C149  1.403668 A    
O24   C102  1.281397 A    
C119  N11   1.434941 S    
C144  C152  1.411741 A    
C54   H10   1.083473 S    
C51   C55   1.399947 A    
C178  H52   1.104859 S    
C91   C179  1.515806 S    
O28   Cu7   1.977891 S    
C41   C45   1.402183 A    
C13   N1    1.458017 S    
C152  C154  1.446285 S    
O2    Cu1   1.949215 S    
C43   C47   1.402182 A    
O10   Cu1   1.977866 S    
Cu7   O31   1.950455 S    
C181  H61   1.107101 S    
C13   C17   1.536306 S    
C164  C200  1.517063 S    
O36   Cu12  1.950473 S    
Cu9   Cu10  2.695860 S    
C160  C164  1.412483 A    
N6    O59   1.301328 A    
C19   C23   1.546018 S    
C212  H155  1.110482 S    
C176  H46   1.105173 S    
C115  C183  1.515707 S    
C113  C181  1.515709 S    
C192  H95   1.110252 S    
C10   C22   1.545076 S    
C23   C203  1.522844 S    
C90   C178  1.515785 S    
O27   C101  1.279862 A    
C52   C110  1.475519 S    
C132  C140  1.411811 A    
O19   C98   1.292052 A    
C24   C28   1.545472 S    
C179  H57   1.110357 S    
C203  H127  1.109302 S    
C1    C81   1.471996 S    
C174  H40   1.105173 S    
C163  C199  1.517308 S    
C160  N16   1.434762 S    
C48   H8    1.084237 S    
C3    C83   1.471994 S    
O22   C100  1.281408 A    
C32   N20   1.458941 S    
C198  H112  1.107562 S    
O23   C101  1.281563 A    
C177  H49   1.104871 S    
O25   C99   1.279851 A    
C195  H104  1.109334 S    
O21   C99   1.281572 A    
C171  H31   1.110876 S    
C111  C121  1.476984 S    
C79   C83   1.395588 A    
N14   O76   1.300609 A    
C144  C192  1.507051 S    
C18   C22   1.546132 S    
C210  H150  1.110413 S    
C59   N7    1.436627 S    
C188  H83   1.110445 S    
N20   O88   1.299659 A    
C135  H19   1.083432 S    
C142  C146  1.402215 A    
C17   C29   1.536003 S    
C205  H134  1.108105 S    
C81   C85   1.415464 A    
O11   Cu2   1.977586 S    
C211  H152  1.110482 S    
C4    C84   1.472020 S    
C136  H20   1.083432 S    
C180  H59   1.110239 S    
N15   O77   1.300976 A    
C25   C29   1.533940 S    
N5    O57   1.301327 A    
N8    O64   1.300932 A    
C44   C48   1.402206 A    
C42   C62   1.416874 A    
C193  H99   1.108612 S    
N15   O78   1.300903 A    
O12   C8    1.279182 A    
C41   C209  1.508191 S    
C151  C153  1.446250 S    
O9    Cu1   1.977586 S    
C88   C176  1.518471 S    
C179  H55   1.104870 S    
C92   C96   1.421030 A    
O44   Cu11  1.948880 S    
C172  H35   1.110005 S    
N13   O74   1.300901 A    
C28   C40   1.542453 S    
Cu9   O45   1.950735 S    
N17   O82   1.299732 A    
C13   C33   1.544623 S    
C142  C190  1.507133 S    
C76   C96   1.411626 A    
C201  H122  1.109697 S    
C15   C35   1.544622 S    
C104  C166  1.477146 S    
C16   C20   1.536354 S    
O20   C98   1.291983 A    
N1    O50   1.299905 A    
Cu11  O47   1.950735 S    
O47   C112  1.301977 A    
C73   C93   1.411632 A    
C174  H42   1.109287 S    
C209  H145  1.105772 S    
C134  H18   1.083431 S    
O41   C107  1.302349 A    
N2    O52   1.299905 A    
C86   C90   1.423191 A    
C181  H63   1.110396 S    
C5    C37   1.457838 S    
C2    C82   1.472021 S    
O38   Cu10  1.950776 S    
N11   O70   1.300994 A    
C76   C172  1.507858 S    
O7    C3    1.290311 A    
N19   O85   1.300241 A    
C129  C133  1.402678 A    
C8    C40   1.457675 S    
C176  H48   1.109287 S    
N2    O51   1.300203 A    
C36   H4    1.110218 S    
C12   C24   1.545073 S    
C158  N14   1.434771 S    
C130  C186  1.507735 S    
C191  H91   1.110780 S    
N10   O68   1.300994 A    
C169  H26   1.110018 S    
C125  C128  1.203842 T    
O41   Cu10  1.948882 S    
C153  C156  1.204851 T    
C43   C211  1.508192 S    
C60   N8    1.436596 S    
N3    O53   1.300202 A    
O2    C2    1.288910 A    
C198  H114  1.109512 S    
C189  H85   1.110751 S    
C34   C38   1.548229 S    
C177  H51   1.110356 S    
C159  N15   1.434874 S    
N14   O75   1.301003 A    
N7    O62   1.300938 A    
C159  C168  1.406649 A    
C160  C168  1.406537 A    
C14   C18   1.536350 S    
N16   O80   1.300608 A    
O30   C103  1.289633 A    
C9    C193  1.522127 S    
O14   Cu3   1.977804 S    
C18   C30   1.536360 S    
C77   H13   1.084599 S    
C186  H78   1.110426 S    
C187  H79   1.110754 S    
C26   C30   1.534086 S    
Cu2   Cu4   2.658504 S    
O19   Cu7   1.950789 S    
C127  C139  1.444609 S    
C74   C170  1.507854 S    
O36   C106  1.304627 A    
C173  H38   1.109310 S    
C190  H88   1.110761 S    
C178  H54   1.110354 S    
C47   H7    1.084236 S    
C204  H130  1.109314 S    
C192  H94   1.110886 S    
C136  C138  1.403223 A    
C117  C121  1.411625 A    
C10   C38   1.539751 S    
O11   C7    1.279046 A    
C208  H144  1.109296 S    
C207  H139  1.109724 S    
C123  C125  1.447200 S    
C58   N6    1.436597 S    
C114  C118  1.412726 A    
C119  C122  1.411626 A    
C32   C36   1.546478 S    
C98   C138  1.479028 S    
C49   C107  1.475540 S    
C202  H124  1.109315 S    
N9    O65   1.300993 A    
C79   H15   1.084598 S    
Cu7   Cu8   2.657431 S    
C26   C38   1.542459 S    
C84   C88   1.415543 A    
