data_mof_unit_20606.cif
_audit_creation_date              2012-12-11T16:25:29-0500
_audit_creation_method            fapswitch 2.2
_symmetry_space_group_name_H-M    P1
_symmetry_Int_Tables_number       1
_space_group_crystal_system       triclinic
_cell_length_a                    20.191139
_cell_length_b                    7.263589
_cell_length_c                    13.571859
_cell_angle_alpha                 90.413579
_cell_angle_beta                  102.866172
_cell_angle_gamma                 89.474331
_cell_volume                      1940.36708587

loop_
_atom_site_label
_atom_site_type_symbol
_atom_type_description
_atom_site_fract_x
_atom_site_fract_y
_atom_site_fract_z
_atom_type_partial_charge
O1    O     O_R   0.449520 0.506760 0.599710 -0.537635
O2    O     O_R   0.550480 0.006760 0.400290 -0.539390
O3    O     O_R   0.587930 0.180200 0.595790 -0.527797
O4    O     O_R   0.412070 0.680200 0.404210 -0.522578
C1    C     C_R   0.615782 0.344432 0.614017 0.680603
C2    C     C_R   0.384193 0.845292 0.385940 0.684481
O5    O     O_R   0.452350 0.177380 0.611700 -0.537496
O6    O     O_R   0.547650 0.677380 0.388300 -0.538349
O7    O     O_R   0.413930 0.001760 0.416320 -0.543132
O8    O     O_R   0.586070 0.501760 0.583680 -0.535954
C3    C     C_R   0.436686 0.345335 0.638112 0.684562
C4    C     C_R   0.563233 0.844112 0.361773 0.686949
O9    O     O_3   0.487550 0.337460 0.435880 -0.376928
O10   O     O_3   0.512450 0.837460 0.564120 -0.373509
V1    V     V_3+5 0.502310 0.064670 0.511900 1.510054
V2    V     V_3+5 0.497690 0.564670 0.488100 1.520367
C5    C     C_R   0.614773 0.807377 0.112543 -0.170580
C6    C     C_R   0.385005 0.335500 0.887482 -0.175308
H1    H     H_    0.590817 0.769233 0.035539 0.135367
H2    H     H_    0.409312 0.312406 0.966086 0.133489
C7    C     C_R   0.605092 0.845859 0.285608 -0.105765
C8    C     C_R   0.394342 0.349480 0.713571 -0.101648
C9    C     C_R   0.932548 0.923885 0.315344 -0.159764
C10   C     C_R   0.067511 0.295954 0.685481 -0.160815
C11   C     C_R   0.896119 0.979042 0.385839 -0.113077
C12   C     C_R   0.104063 0.256335 0.612672 -0.113186
C13   C     C_R   0.825492 0.977178 0.361107 -0.121506
C14   C     C_R   0.174236 0.277334 0.634615 -0.125377
C15   C     C_R   0.789057 0.908309 0.266845 0.090197
C16   C     C_R   0.209748 0.347587 0.729173 0.089185
C17   C     C_R   0.826758 0.871575 0.191776 0.089858
C18   C     C_R   0.172254 0.377102 0.805170 0.089221
C19   C     C_R   0.716751 0.882155 0.242547 0.058775
C20   C     C_R   0.282008 0.369219 0.754533 0.058084
C21   C     C_R   0.684115 0.849989 0.138923 0.084156
C22   C     C_R   0.315192 0.375812 0.859012 0.084771
C23   C     C_R   0.722172 0.846625 0.063588 -0.077141
C24   C     C_R   0.277065 0.404971 0.933047 -0.079553
C25   C     C_R   0.792371 0.846918 0.090848 -0.227013
C26   C     C_R   0.206809 0.414740 0.904898 -0.220306
C27   C     C_R   0.675701 0.875723 0.316296 -0.079337
C28   C     C_R   0.323624 0.377849 0.682138 -0.084864
C29   C     C_R   0.576631 0.795566 0.185327 -0.060658
C30   C     C_R   0.422116 0.301565 0.814368 -0.057890
C31   C     C_R   0.898597 0.873783 0.217677 -0.035795
C32   C     C_R   0.100970 0.354355 0.781845 -0.039005
H3    H     H_    0.987302 0.935029 0.334544 0.095637
H4    H     H_    0.013405 0.271622 0.668086 0.097112
H5    H     H_    0.819983 0.831720 0.031290 0.123832
H6    H     H_    0.179211 0.438270 0.963853 0.124064
H7    H     H_    0.089871 0.789878 0.454206 0.117649
H8    H     H_    0.909339 0.417656 0.544594 0.117693
C33   C     C_R   0.245329 0.896827 0.034861 -0.102448
C34   C     C_R   0.754448 0.358056 0.966852 -0.103154
C35   C     C_R   0.306820 0.927099 0.004268 -0.039372
C36   C     C_R   0.692421 0.366790 0.998673 -0.041794
C37   C     C_R   0.366589 0.955055 0.075474 -0.135387
C38   C     C_R   0.631834 0.392692 0.929032 -0.137309
C39   C     C_R   0.368370 0.936123 0.177137 -0.073012
C40   C     C_R   0.630044 0.390153 0.826798 -0.064270
C41   C     C_R   0.309728 0.891339 0.211690 0.083509
C42   C     C_R   0.689583 0.366341 0.790240 0.081715
C43   C     C_R   0.245413 0.882164 0.140817 0.018844
C44   C     C_R   0.754287 0.360432 0.860449 0.016353
C45   C     C_R   0.315350 0.858904 0.316175 -0.144267
C46   C     C_R   0.684356 0.356262 0.684402 -0.142707
C47   C     C_R   0.255414 0.842881 0.353361 0.070114
C48   C     C_R   0.744152 0.367201 0.646542 0.069912
C49   C     C_R   0.190777 0.839094 0.284741 0.082310
C50   C     C_R   0.808986 0.368450 0.714758 0.084243
C51   C     C_R   0.185207 0.857344 0.179087 -0.168536
C52   C     C_R   0.814731 0.359986 0.820938 -0.167398
C53   C     C_R   0.258121 0.835213 0.458537 -0.131542
C54   C     C_R   0.740859 0.385309 0.541554 -0.141148
C55   C     C_R   0.198569 0.816514 0.494424 0.012234
C56   C     C_R   0.800177 0.407475 0.505568 0.005741
C57   C     C_R   0.135995 0.806587 0.426930 -0.167739
C58   C     C_R   0.863246 0.402246 0.572113 -0.169016
C59   C     C_R   0.131910 0.817953 0.323810 -0.137378
C60   C     C_R   0.867810 0.381794 0.674904 -0.132879
H9    H     H_    0.413282 0.985103 0.052013 0.123170
H10   H     H_    0.584855 0.410904 0.954188 0.124910
H11   H     H_    0.417169 0.954831 0.228350 0.101567
H12   H     H_    0.580806 0.408370 0.776487 0.094917
H13   H     H_    0.306211 0.841735 0.513130 0.103008
H14   H     H_    0.692466 0.389144 0.487550 0.105194
O11   O     O_R   0.913760 0.203480 0.916370 -0.534399
O12   O     O_R   0.086240 0.703480 0.083630 -0.536423
O13   O     O_R   0.047590 0.535230 0.888250 -0.529942
O14   O     O_R   0.952410 0.035230 0.111750 -0.528079
C61   C     C_R   0.061989 0.367107 0.860470 0.665744
C62   C     C_R   0.937943 0.869838 0.139447 0.665740
O15   O     O_R   0.912020 0.532880 0.904260 -0.540782
O16   O     O_R   0.087980 0.032880 0.095740 -0.539624
O17   O     O_R   0.949590 0.708460 0.099750 -0.531998
O18   O     O_R   0.050410 0.208460 0.900250 -0.529756
C63   C     C_R   0.884343 0.365725 0.887664 0.687342
C64   C     C_R   0.115592 0.864971 0.112503 0.686935
O19   O     O_3   0.012370 0.375360 0.064120 -0.371792
O20   O     O_3   0.987630 0.875360 0.935880 -0.371541
V3    V     V_3+5 0.997700 0.648160 0.988110 1.487777
V4    V     V_3+5 0.002300 0.148160 0.011890 1.493025
C65   C     C_1   0.512231 0.703210 0.157837 0.272703
N1    N     N_1   0.461633 0.624121 0.135495 -0.336751
C66   C     C_1   0.482359 0.188182 0.841277 0.275895
N2    N     N_1   0.529233 0.091731 0.862530 -0.339650
C67   C     C_1   0.184743 0.877828 0.955144 0.278534
N3    N     N_1   0.136979 0.863287 0.890249 -0.288648
C68   C     C_1   0.815774 0.352393 0.045952 0.280338
N4    N     N_1   0.864021 0.349514 0.110614 -0.290862
C69   C     C_1   0.311469 0.925986 0.899613 0.328774
N5    N     N_1   0.316894 0.925079 0.816572 -0.329640
C70   C     C_1   0.688034 0.346595 0.102826 0.331790
N6    N     N_1   0.682624 0.328664 0.185250 -0.334865
C71   C     C_1   0.200432 0.801321 0.600510 0.301924
N7    N     N_1   0.200155 0.787993 0.685230 -0.309372
C72   C     C_1   0.797678 0.443062 0.400785 0.307485
N8    N     N_1   0.797494 0.473043 0.317201 -0.315975
H15   H     H_    0.081766 0.809454 0.275205 0.093768
H16   H     H_    0.918228 0.381816 0.722917 0.090879
C73   C     C_1   0.690823 0.839692 0.956733 0.315330
N9    N     N_1   0.666021 0.835150 0.871233 -0.317094
C74   C     C_1   0.307919 0.418725 0.039748 0.317443
N10   N     N_1   0.331842 0.428723 0.125385 -0.311011
C75   C     C_1   0.704280 0.864648 0.424237 0.253836
N11   N     N_1   0.726180 0.854854 0.510500 -0.346620
C76   C     C_1   0.296318 0.410110 0.575470 0.253578
N12   N     N_1   0.275382 0.431405 0.489723 -0.349421
H17   H     H_    0.801083 0.042395 0.414879 0.132108
H18   H     H_    0.199616 0.222447 0.579019 0.130694
H19   H     H_    0.922707 0.030978 0.458818 0.119848
H20   H     H_    0.078220 0.201414 0.540003 0.119627

loop_
_geom_bond_atom_site_label_1
_geom_bond_atom_site_label_2
_ccdc_geom_bond_type
C46   C48   A    
C60   H16   S    
C9    C31   A    
O18   V4    S    
C13   C15   A    
C33   C43   A    
C69   N5    T    
O1    C3    A    
C44   C52   A    
O2    C4    A    
C2    O7    A    
H7    C57   S    
O12   V3    S    
O3    V1    S    
C74   N10   T    
C30   C66   S    
O5    C3    A    
C54   C56   A    
C56   C58   A    
C21   C23   A    
C39   H11   S    
C38   H10   S    
C58   C60   A    
C37   C39   A    
O16   C64   A    
C38   C40   A    
C71   N7    T    
C15   C19   A    
C40   C42   A    
C41   C43   A    
C31   C62   S    
O14   V4    S    
C42   C44   A    
C5    H1    S    
C61   O18   A    
C7    C29   A    
C2    C45   S    
C8    C30   A    
C17   C25   A    
C20   C28   A    
C45   C47   A    
C59   H15   S    
C36   C70   S    
C47   C53   A    
O13   C61   A    
C6    H2    S    
C24   C74   S    
C35   C69   S    
C33   C35   A    
C49   C51   A    
O6    V2    S    
C24   C26   A    
C53   C55   A    
H8    C58   S    
C52   C63   S    
C57   C59   A    
C51   C64   S    
C34   C36   A    
C39   C41   A    
C9    H3    S    
C42   C46   A    
C50   C60   A    
C10   H4    S    
C27   C75   S    
O4    C2    A    
O15   V3    S    
C16   C20   A    
C32   C61   S    
C4    C7    S    
C62   O17   A    
C34   C68   S    
C47   C49   A    
O4    V2    S    
C5    C29   A    
C6    C30   A    
O11   V4    S    
C33   C67   S    
O14   C62   A    
O6    C4    A    
O1    V2    S    
C54   H14   S    
O2    V1    S    
C55   C57   A    
C53   H13   S    
C73   N9    T    
C28   C76   S    
C23   C73   S    
C48   C50   A    
C25   H5    S    
C43   C51   A    
C35   C37   A    
C75   N11   T    
C13   H17   S    
C7    C27   A    
C49   C59   A    
C55   C71   S    
C67   N3    T    
C76   N12   T    
C11   H19   S    
O15   C63   A    
C12   H20   S    
C70   N6    T    
O13   V3    S    
C18   C32   A    
C10   C12   A    
C1    C46   S    
O3    C1    A    
C14   C16   A    
C11   C13   A    
C66   N2    T    
C3    C8    S    
C12   C14   A    
C56   C72   S    
C19   C27   A    
C22   C24   A    
O7    V1    S    
C10   C32   A    
C1    O8    A    
C15   C17   A    
O8    V2    S    
C68   N4    T    
C16   C18   A    
C40   H12   S    
C14   H18   S    
C6    C22   A    
C8    C28   A    
C34   C44   A    
C9    C11   A    
C26   H6    S    
O5    V1    S    
O20   V3    S    
C19   C21   A    
C36   C38   A    
C20   C22   A    
C18   C26   A    
C37   H9    S    
C29   C65   S    
C41   C45   A    
O19   V4    S    
O16   V4    S    
C23   C25   A    
C17   C31   A    
O9    V2    S    
C65   N1    T    
O10   V1    S    
C50   C52   A    
C5    C21   A    
C72   N8    T    
C48   C54   A    
O12   C64   A    
O17   V3    S    
O11   C63   A    
