data_mof_unit_30597.cif
_audit_creation_date              2012-12-11T16:45:49-0500
_audit_creation_method            fapswitch 2.2
_symmetry_space_group_name_H-M    P1
_symmetry_Int_Tables_number       1
_space_group_crystal_system       monoclinic
_cell_length_a                    19.774476
_cell_length_b                    17.039558
_cell_length_c                    15.303196
_cell_angle_alpha                 90.0
_cell_angle_beta                  52.558751
_cell_angle_gamma                 90.0
_cell_volume                      4094.05291584

loop_
_atom_site_label
_atom_site_type_symbol
_atom_type_description
_atom_site_fract_x
_atom_site_fract_y
_atom_site_fract_z
_atom_type_partial_charge
C1    C     C_R   0.840087 0.673657 0.046556 -0.104386
C2    C     C_R   0.150507 0.310964 0.070812 0.169030
C3    C     C_R   0.349493 0.810964 0.929188 0.169029
C4    C     C_R   0.650507 0.810964 0.070812 0.169029
C5    C     C_R   0.888530 0.685426 0.305179 0.087801
C6    C     C_R   0.111469 0.685426 0.694820 0.087801
C7    C     C_R   0.388531 0.185426 0.305179 0.087802
C8    C     C_R   0.611469 0.185426 0.694820 0.087802
C9    C     C_R   0.862239 0.720912 0.481561 0.174933
C10   C     C_R   0.137761 0.720912 0.518439 0.174933
C11   C     C_R   0.362240 0.220912 0.481561 0.174930
C12   C     C_R   0.159912 0.673657 0.953444 -0.104386
C13   C     C_R   0.637760 0.220912 0.518439 0.174929
C14   C     C_R   0.873109 0.743717 0.385773 0.044760
C15   C     C_R   0.126891 0.743717 0.614227 0.044760
C16   C     C_R   0.373109 0.243717 0.385773 0.044761
C17   C     C_R   0.626891 0.243717 0.614227 0.044761
C18   C     C_R   0.355353 0.322346 0.378287 -0.195346
C19   C     C_R   0.644646 0.322346 0.621713 -0.195345
C20   C     C_R   0.855354 0.822346 0.378287 -0.195345
C21   C     C_R   0.144646 0.822346 0.621713 -0.195345
C22   C     C_R   0.306544 0.368202 0.473671 -0.193284
C23   C     C_R   0.340087 0.173657 0.046556 -0.104386
C24   C     C_R   0.693456 0.368202 0.526329 -0.193283
C25   C     C_R   0.806544 0.868202 0.473671 -0.193283
C26   C     C_R   0.193456 0.868202 0.526329 -0.193283
C27   C     C_R   0.274605 0.334861 0.576422 -0.000084
C28   C     C_R   0.725395 0.334861 0.423578 -0.000084
C29   C     C_R   0.774605 0.834861 0.576422 -0.000086
C30   C     C_R   0.225395 0.834861 0.423578 -0.000086
C31   C     C_R   0.813765 0.765888 0.575955 0.233727
C32   C     C_R   0.186235 0.765888 0.424045 0.233727
C33   C     C_R   0.313766 0.265888 0.575954 0.233725
C34   C     C_R   0.659912 0.173657 0.953444 -0.104386
C35   C     C_R   0.686234 0.265888 0.424046 0.233726
C36   C     C_3   0.779883 0.694014 0.648140 -0.277706
C37   C     C_3   0.220116 0.694014 0.351860 -0.277707
C38   C     C_3   0.279885 0.194015 0.648139 -0.277704
C39   C     C_3   0.720116 0.194014 0.351860 -0.277705
C40   C     C_R   0.848577 0.330824 0.219174 -0.134057
C41   C     C_R   0.151423 0.330824 0.780826 -0.134057
C42   C     C_R   0.348577 0.830824 0.219174 -0.134057
C43   C     C_R   0.651423 0.830824 0.780826 -0.134058
C44   C     C_3   0.833215 0.645368 0.544335 -0.661760
C45   C     C_R   0.806393 0.362606 0.323581 0.079875
C46   C     C_3   0.166784 0.645368 0.455665 -0.661760
C47   C     C_3   0.333217 0.145369 0.544334 -0.661765
C48   C     C_3   0.666783 0.145368 0.455666 -0.661763
C49   C     C_2   0.784940 0.184099 0.956879 -0.164194
C50   C     C_2   0.215060 0.184099 0.043121 -0.164194
C51   C     C_2   0.284940 0.684099 0.956879 -0.164195
C52   C     C_2   0.715060 0.684099 0.043121 -0.164196
C53   C     C_2   0.310479 0.752972 0.903542 -0.205394
C54   C     C_2   0.689521 0.752972 0.096458 -0.205394
C55   C     C_2   0.810479 0.252972 0.903542 -0.205395
C56   C     C_R   0.193607 0.362606 0.676419 0.079876
C57   C     C_2   0.189521 0.252972 0.096458 -0.205395
C58   C     C_R   0.866502 0.388418 0.895438 -0.162409
C59   C     C_R   0.133497 0.388418 0.104562 -0.162409
C60   C     C_R   0.366502 0.888418 0.895438 -0.162408
C61   C     C_R   0.633498 0.888417 0.104562 -0.162408
C62   C     C_R   0.908389 0.607731 0.303065 -0.146296
C63   C     C_R   0.091611 0.607731 0.696935 -0.146296
C64   C     C_R   0.408389 0.107731 0.303065 -0.146297
C65   C     C_R   0.591611 0.107731 0.696935 -0.146298
C66   C     C_R   0.877469 0.298437 0.990867 -0.089902
C67   C     C_R   0.306393 0.862606 0.323581 0.079875
C68   C     C_R   0.122531 0.298437 0.009133 -0.089901
C69   C     C_R   0.377469 0.798437 0.990867 -0.089905
C70   C     C_R   0.622531 0.798437 0.009133 -0.089905
C71   C     C_R   0.897282 0.698580 0.209414 -0.136798
C72   C     C_R   0.102718 0.698580 0.790586 -0.136798
C73   C     C_R   0.397282 0.198580 0.209414 -0.136798
C74   C     C_R   0.602718 0.198580 0.790586 -0.136798
C75   C     C_R   0.858092 0.421967 0.316435 -0.125270
C76   C     C_R   0.141908 0.421967 0.683565 -0.125270
C77   C     C_R   0.358092 0.921967 0.316435 -0.125269
C78   C     C_R   0.693607 0.862606 0.676419 0.079875
C79   C     C_R   0.641908 0.921967 0.683565 -0.125269
C80   C     C_R   0.830301 0.580880 0.950337 -0.127686
C81   C     C_R   0.169699 0.580880 0.049663 -0.127685
C82   C     C_R   0.330301 0.080880 0.950337 -0.127688
C83   C     C_R   0.669699 0.080880 0.049663 -0.127687
C84   C     C_R   0.788922 0.644638 0.020658 0.153525
C85   C     C_R   0.211078 0.644638 0.979342 0.153525
C86   C     C_R   0.288922 0.144638 0.020658 0.153525
C87   C     C_R   0.711078 0.144638 0.979342 0.153525
C88   C     C_2   0.808007 0.686062 0.719930 0.550996
C89   C     C_R   0.849493 0.310964 0.929188 0.169030
C90   C     C_2   0.191992 0.686062 0.280070 0.550995
C91   C     C_2   0.308009 0.186063 0.719929 0.550991
C92   C     C_2   0.691991 0.186063 0.280071 0.550993
H1    H     H_    0.830483 0.724663 0.094622 0.087667
H2    H     H_    0.289342 0.683576 0.307435 0.115451
H3    H     H_    0.210660 0.183576 0.692565 0.115452
H4    H     H_    0.789341 0.183576 0.307435 0.115451
H5    H     H_    0.886641 0.613103 0.533899 0.197068
H6    H     H_    0.113358 0.613104 0.466101 0.197068
H7    H     H_    0.386643 0.113104 0.533898 0.197067
H8    H     H_    0.613357 0.113104 0.466102 0.197067
H9    H     H_    0.793305 0.609437 0.530894 0.202464
H10   H     H_    0.206694 0.609437 0.469106 0.202464
H11   H     H_    0.293307 0.109437 0.530893 0.202465
H12   H     H_    0.169517 0.724663 0.905377 0.087667
H13   H     H_    0.706693 0.109437 0.469106 0.202465
H14   H     H_    0.807002 0.163296 0.002503 0.116758
H15   H     H_    0.192998 0.163296 0.997497 0.116758
H16   H     H_    0.307002 0.663295 0.002502 0.116758
H17   H     H_    0.692998 0.663296 0.997497 0.116758
H18   H     H_    0.290132 0.772903 0.855621 0.122940
H19   H     H_    0.709868 0.772903 0.144379 0.122939
H20   H     H_    0.790132 0.272903 0.855621 0.122940
H21   H     H_    0.209868 0.272902 0.144379 0.122940
H22   H     H_    0.825887 0.286764 0.192921 0.117172
H23   H     H_    0.330483 0.224663 0.094623 0.087667
H24   H     H_    0.174113 0.286764 0.807078 0.117173
H25   H     H_    0.325887 0.786764 0.192921 0.117170
H26   H     H_    0.674113 0.786764 0.807079 0.117170
H27   H     H_    0.862247 0.415157 0.834824 0.090254
H28   H     H_    0.137752 0.415157 0.165176 0.090254
H29   H     H_    0.362248 0.915157 0.834824 0.090253
H30   H     H_    0.637752 0.915157 0.165176 0.090253
H31   H     H_    0.923720 0.580068 0.352439 0.108084
H32   H     H_    0.076280 0.580068 0.647561 0.108084
H33   H     H_    0.423720 0.080068 0.352439 0.108084
H34   H     H_    0.669517 0.224663 0.905377 0.087667
H35   H     H_    0.576280 0.080068 0.647561 0.108084
H36   H     H_    0.886212 0.242862 0.016765 0.067208
H37   H     H_    0.113788 0.242862 0.983235 0.067208
H38   H     H_    0.386212 0.742862 0.016765 0.067209
H39   H     H_    0.613787 0.742862 0.983235 0.067208
H40   H     H_    0.899562 0.754991 0.175492 0.084895
H41   H     H_    0.100438 0.754991 0.824508 0.084895
H42   H     H_    0.399562 0.254991 0.175492 0.084895
H43   H     H_    0.600438 0.254991 0.824508 0.084895
H44   H     H_    0.845380 0.459747 0.381481 0.092139
H45   H     H_    0.284807 0.424799 0.467885 0.127559
H46   H     H_    0.154620 0.459747 0.618519 0.092139
H47   H     H_    0.345380 0.959748 0.381481 0.092139
H48   H     H_    0.654620 0.959748 0.618519 0.092139
H49   H     H_    0.809655 0.546824 0.910862 0.089975
H50   H     H_    0.190345 0.546824 0.089138 0.089975
H51   H     H_    0.309654 0.046824 0.910862 0.089975
H52   H     H_    0.690345 0.046824 0.089138 0.089975
H53   H     H_    0.368905 0.345485 0.303353 0.124442
H54   H     H_    0.631094 0.345485 0.696647 0.124441
H55   H     H_    0.868906 0.845485 0.303353 0.124441
H56   H     H_    0.715192 0.424799 0.532115 0.127559
H57   H     H_    0.131094 0.845485 0.696647 0.124441
H58   H     H_    0.800225 0.630202 0.759112 -0.016038
H59   H     H_    0.199774 0.630202 0.240889 -0.016037
H60   H     H_    0.300232 0.130202 0.759106 -0.016033
H61   H     H_    0.699770 0.130202 0.240892 -0.016034
H62   H     H_    0.784808 0.924799 0.467885 0.127559
H63   H     H_    0.215192 0.924799 0.532115 0.127559
H64   H     H_    0.710658 0.683576 0.692565 0.115451
N1    N     N_R   0.908660 0.628630 0.995840 -0.046869
N2    N     N_R   0.096530 0.421430 0.063580 -0.039647
N3    N     N_R   0.403470 0.921430 0.936420 -0.039646
N4    N     N_R   0.596530 0.921430 0.063580 -0.039647
N5    N     N_R   0.927500 0.575670 0.211370 -0.039080
N6    N     N_R   0.072500 0.575670 0.788630 -0.039080
N7    N     N_R   0.427500 0.075670 0.211370 -0.039080
N8    N     N_R   0.572500 0.075670 0.788630 -0.039080
N9    N     N_R   0.908660 0.365680 0.995820 -0.046825
N10   N     N_R   0.091340 0.365680 0.004180 -0.046825
N11   N     N_R   0.408660 0.865680 0.995820 -0.046825
N12   N     N_R   0.091340 0.628630 0.004160 -0.046869
N13   N     N_R   0.591340 0.865680 0.004180 -0.046825
N14   N     N_R   0.922310 0.631420 0.151980 -0.039552
N15   N     N_R   0.077690 0.631420 0.848020 -0.039552
N16   N     N_R   0.422310 0.131420 0.151980 -0.039552
N17   N     N_R   0.577690 0.131420 0.848020 -0.039552
N18   N     N_R   0.927500 0.426330 0.211360 -0.042072
N19   N     N_R   0.072500 0.426330 0.788640 -0.042071
N20   N     N_R   0.427500 0.926330 0.211360 -0.042071
N21   N     N_R   0.572500 0.926330 0.788640 -0.042071
N22   N     N_R   0.903470 0.570760 0.936440 -0.042229
N23   N     N_R   0.408660 0.128630 0.995840 -0.046869
N24   N     N_R   0.096530 0.570760 0.063560 -0.042229
N25   N     N_R   0.403470 0.070760 0.936440 -0.042229
N26   N     N_R   0.596530 0.070760 0.063560 -0.042229
N27   N     N_R   0.591340 0.128630 0.004160 -0.046869
N28   N     N_R   0.922310 0.368460 0.151950 -0.047312
N29   N     N_R   0.077690 0.368460 0.848050 -0.047312
N30   N     N_R   0.422310 0.868460 0.151950 -0.047312
N31   N     N_R   0.577690 0.868460 0.848050 -0.047312
N32   N     N_R   0.903470 0.421430 0.936420 -0.039647
Ni1   Ni    Ni4+2 0.000000 0.630300 0.000000 0.215046
Ni2   Ni    Ni4+2 0.500000 0.130300 0.000000 0.215046
Ni3   Ni    Ni4+2 0.000000 0.369700 0.000000 0.206780
Ni4   Ni    Ni4+2 0.500000 0.869700 0.000000 0.206780
Ni5   Ni    Ni4+2 0.988090 0.497570 0.863760 0.213656
Ni6   Ni    Ni4+2 0.011910 0.497570 0.136240 0.213656
Ni7   Ni    Ni4+2 0.488090 0.997570 0.863760 0.213656
Ni8   Ni    Ni4+2 0.511910 0.997570 0.136240 0.213656
O1    O     O_2   0.838456 0.741511 0.735807 -0.579091
O2    O     O_2   0.161544 0.741512 0.264193 -0.579092
O3    O     O_2   0.338453 0.241515 0.735811 -0.579093
O4    O     O_2   0.661546 0.241514 0.264190 -0.579093

loop_
_geom_bond_atom_site_label_1
_geom_bond_atom_site_label_2
_ccdc_geom_bond_type
C53   H18   S    
C88   O1    D    
C63   N6    A    
C83   C87   A    
C21   C26   A    
C59   H28   S    
C56   C76   A    
C55   H20   S    
C49   C87   S    
C11   C47   S    
C67   C77   A    
C60   N3    A    
C80   C84   A    
C18   H53   S    
C51   C85   S    
C4    C70   A    
C63   H32   S    
N8    Ni7   S    
C7    C73   A    
C27   C33   A    
C43   C78   A    
C6    C72   A    
N11   Ni4   S    
C46   H10   S    
C82   N25   A    
C36   H64   S    
N2    Ni6   S    
C37   C90   S    
C65   H35   S    
C22   H45   S    
C3    C69   A    
C70   N13   A    
C12   H12   S    
C2    C68   A    
C10   C15   A    
C91   H60   S    
C59   N2    A    
C62   N5    A    
C20   C25   A    
N17   Ni2   S    
C47   H7    S    
N15   Ni1   S    
N10   Ni3   S    
C44   H5    S    
C52   C84   S    
N26   N27   A    
C70   H39   S    
N9    Ni3   S    
C6    C15   S    
C77   H47   S    
C54   H19   S    
C40   H22   S    
N6    N15   A    
C28   C35   A    
C66   H36   S    
C69   H38   S    
C23   C86   A    
C38   H3    S    
C10   C46   S    
N4    N13   A    
C79   N21   A    
C92   H61   S    
C45   C75   A    
C21   H57   S    
C23   N23   A    
C30   C67   S    
C34   N27   A    
N4    Ni8   S    
C91   O3    D    
C3    C60   A    
C42   N30   A    
C79   H48   S    
C71   H40   S    
C8    C65   A    
C18   C22   A    
N5    Ni6   S    
C75   N18   A    
C26   H63   S    
C68   H37   S    
C64   N7    A    
N25   Ni7   S    
C62   H31   S    
C52   C54   D    
N29   Ni3   S    
C66   C89   A    
N1    Ni1   S    
C25   C29   A    
C40   C45   A    
C48   H8    S    
N22   Ni5   S    
C28   C45   S    
C2    C57   S    
C19   H54   S    
C47   H11   S    
C29   C78   S    
C58   N32   A    
N9    N32   A    
C72   N15   A    
C14   C20   A    
C11   C33   A    
C74   N17   A    
C24   H56   S    
C61   N4    A    
N18   N28   A    
C9    C31   A    
C78   C79   A    
C51   H16   S    
C57   H21   S    
N16   Ni2   S    
C82   C86   A    
C38   C91   S    
C36   C88   S    
N12   Ni1   S    
C90   H59   S    
C83   N26   A    
C61   H30   S    
C1    C84   A    
C80   N22   A    
C6    C63   A    
N3    Ni7   S    
C9    C14   A    
C69   N11   A    
C41   C56   A    
N28   Ni3   S    
N19   N29   A    
C11   C16   A    
C48   H13   S    
N14   Ni1   S    
C43   N31   A    
C34   H34   S    
C49   C55   D    
C74   H43   S    
C8    C74   A    
N31   Ni4   S    
C20   H55   S    
C41   N29   A    
N8    N17   A    
C16   C18   A    
C32   C37   S    
N20   Ni8   S    
C73   N16   A    
N20   N30   A    
N7    N16   A    
C5    C14   S    
N5    N14   A    
C12   C85   A    
C1    H1    S    
C7    C16   S    
C2    C59   A    
N32   Ni5   S    
N18   Ni6   S    
C77   N20   A    
C37   H2    S    
C42   C67   A    
C46   H6    S    
C36   C44   S    
N26   Ni8   S    
C41   H24   S    
N27   Ni2   S    
C39   C92   S    
N24   Ni6   S    
N2    N10   A    
C65   N8    A    
N7    Ni8   S    
C81   H50   S    
C9    C44   S    
C7    C64   A    
N21   Ni7   S    
C66   N9    A    
C4    C54   S    
C25   H62   S    
C75   H44   S    
C50   C57   D    
C88   H58   S    
C76   N19   A    
C24   C28   A    
C81   N24   A    
C82   H51   S    
C12   N12   A    
C13   C48   S    
C44   H9    S    
C42   H25   S    
C13   C35   A    
C49   H14   S    
C90   O2    D    
C76   H46   S    
C27   C56   S    
C8    C17   S    
N21   N31   A    
C38   C47   S    
C22   C27   A    
N1    N22   A    
C1    N1    A    
C19   C24   A    
C29   C31   A    
N12   N24   A    
C83   H52   S    
C30   C32   A    
C3    C53   S    
C72   H41   S    
C50   H15   S    
N23   Ni2   S    
C52   H17   S    
C80   H49   S    
C35   C39   S    
C4    C61   A    
N6    Ni5   S    
C58   H27   S    
C17   C19   A    
N3    N11   A    
C5    C62   A    
C34   C87   A    
N30   Ni4   S    
C60   H29   S    
C55   C89   S    
C58   C89   A    
C71   N14   A    
C39   H4    S    
C50   C86   S    
C43   H26   S    
C23   H23   S    
C13   C17   A    
C10   C32   A    
C15   C21   A    
C73   H42   S    
C5    C71   A    
C64   H33   S    
C31   C36   S    
C33   C38   S    
N23   N25   A    
N13   Ni4   S    
C51   C53   D    
C37   C46   S    
C92   O4    D    
N19   Ni5   S    
C81   C85   A    
C39   C48   S    
C40   N28   A    
C26   C30   A    
C68   N10   A    
