data_mof_unit_46847.cif
_audit_creation_date              2012-12-11T15:57:40-0500
_audit_creation_method            fapswitch 2.2
_symmetry_space_group_name_H-M    P1
_symmetry_Int_Tables_number       1
_space_group_crystal_system       triclinic
_cell_length_a                    10.810289
_cell_length_b                    10.773565
_cell_length_c                    17.004221
_cell_angle_alpha                 99.836408
_cell_angle_beta                  100.232291
_cell_angle_gamma                 61.059473
_cell_volume                      1697.2279027

loop_
_atom_site_label
_atom_site_type_symbol
_atom_type_description
_atom_site_fract_x
_atom_site_fract_y
_atom_site_fract_z
_atom_type_partial_charge
C1    C     C_R   0.354511 0.773494 0.400258 0.524886
C2    C     C_2   0.803895 0.348968 0.149186 -0.067769
C3    C     C_2   0.799218 0.249848 0.183848 -0.131965
C4    C     C_2   0.761169 0.284378 0.265533 -0.151882
C5    C     C_2   0.329675 0.843453 0.327576 0.263105
C6    C     C_2   0.354570 0.811473 0.153357 -0.076260
C7    C     C_2   0.435008 0.848207 0.212312 -0.131604
C8    C     C_2   0.445310 0.820059 0.295104 -0.119126
C9    C     C_2   0.346640 0.328142 0.658413 -0.053154
C10   C     C_2   0.324539 0.358230 0.831949 0.245570
C11   C     C_2   0.445621 0.287150 0.798356 -0.137592
C12   C     C_R   0.405920 0.374800 0.356203 0.556384
C13   C     C_2   0.453131 0.308069 0.717926 -0.113134
C14   C     C_1   0.817507 0.342149 0.708718 -0.041904
C15   C     C_1   0.843900 0.313720 0.776417 -0.042226
C16   C     C_1   0.339514 0.810655 0.709171 -0.032656
C17   C     C_1   0.312417 0.838480 0.777014 -0.042959
C18   C     C_R   0.889435 0.311011 0.084132 0.566979
C19   C     C_R   0.321737 0.302510 0.118834 0.547804
C20   C     C_R   0.296218 0.888666 0.082573 0.556258
C21   C     C_R   0.885041 0.297314 0.858739 0.547372
C22   C     C_R   0.306523 0.296470 0.895592 0.552447
C23   C     C_R   0.772298 0.378801 0.402928 0.517124
C24   C     C_R   0.277888 0.885276 0.856620 0.534996
C25   C     C_R   0.358608 0.769630 0.627132 0.554751
C26   C     C_R   0.369809 0.346110 0.581842 0.532567
C27   C     C_R   0.773531 0.380845 0.629575 0.547572
C28   C     C_1   0.374488 0.362971 0.271707 -0.055144
C29   C     C_1   0.349571 0.343929 0.200726 -0.042698
C30   C     C_2   0.829300 0.337088 0.324993 0.239661
Cr1   Cr    Cr6+3 0.608020 0.610770 0.522990 0.999981
Cr2   Cr    Cr6+3 0.289390 0.599570 0.488050 0.973401
Cr3   Cr    Cr6+3 0.602610 0.289690 0.489020 0.990550
Cr4   Cr    Cr6+3 0.053780 0.052210 0.965970 0.995238
Cr5   Cr    Cr6+3 0.060060 0.372530 0.992430 1.016372
Cr6   Cr    Cr6+3 0.372600 0.061970 0.991430 1.016871
H1    H     H_    0.836513 0.140795 0.156573 0.144447
H2    H     H_    0.553310 0.298602 0.706415 0.138953
H3    H     H_    0.247026 0.332384 0.665802 0.143649
H4    H     H_    0.676089 0.265346 0.276272 0.103796
H5    H     H_    0.762762 0.457808 0.177778 0.132286
H6    H     H_    0.482701 0.911836 0.202098 0.149120
H7    H     H_    0.550258 0.778065 0.328695 0.102639
H8    H     H_    0.310372 0.744803 0.163829 0.141409
H9    H     H_    0.540904 0.206564 0.828828 0.108008
O1    O     O_R   0.749250 0.499990 0.439200 -0.527273
O2    O     O_R   0.299400 0.468710 0.556310 -0.503283
O3    O     O_R   0.489240 0.256450 0.560730 -0.509284
O4    O     O_R   0.723350 0.306730 0.584410 -0.501374
O5    O     O_3   0.500010 0.500010 0.500020 -0.259892
O6    O     O_R   0.170650 0.915100 0.051290 -0.512087
O7    O     O_R   0.941960 0.184500 0.049060 -0.492955
O8    O     O_R   0.922640 0.402670 0.071640 -0.511476
O9    O     O_R   0.196880 0.368740 0.083740 -0.495148
O10   O     O_R   0.411120 0.181190 0.091480 -0.517996
O11   O     O_R   0.364220 0.944920 0.062310 -0.499630
O12   O     O_R   0.477870 0.725740 0.440280 -0.522259
O13   O     O_R   0.158740 0.906940 0.874970 -0.543422
O14   O     O_R   0.930920 0.176940 0.885610 -0.504720
O15   O     O_R   0.910730 0.394510 0.895320 -0.526538
O16   O     O_R   0.185840 0.361180 0.920280 -0.496141
O17   O     O_R   0.399210 0.173040 0.915160 -0.540244
O18   O     O_R   0.353170 0.937370 0.898860 -0.491373
O19   O     O_3   0.162150 0.162240 0.983280 -0.240938
O20   O     O_R   0.260770 0.742210 0.412610 -0.531016
O21   O     O_R   0.297990 0.466320 0.394220 -0.522703
O22   O     O_R   0.487720 0.253870 0.385870 -0.514492
O23   O     O_R   0.721940 0.304340 0.422320 -0.546978
O24   O     O_R   0.750770 0.502570 0.614050 -0.507514
O25   O     O_R   0.479280 0.728140 0.602370 -0.488912
O26   O     O_R   0.262290 0.744790 0.587460 -0.517231
O27   O     O_3   0.205072 0.464346 0.793093 -0.589300
C31   C     C_3   0.153298 0.596431 0.840979 0.028854
H10   H     H_    0.177666 0.667702 0.814059 0.172497
H11   H     H_    0.201685 0.590516 0.904868 0.115191
C32   C     C_3   0.991592 0.660309 0.837979 -0.254074
H12   H     H_    0.943494 0.664158 0.774373 0.179340
H13   H     H_    0.966592 0.591139 0.866491 0.206714
C33   C     C_3   0.924130 0.810220 0.881293 -0.454834
H14   H     H_    0.978246 0.812223 0.943126 0.158713
H15   H     H_    0.810250 0.845219 0.885187 0.131155
H16   H     H_    0.929836 0.886125 0.847272 0.185218
O28   O     O_3   0.942409 0.353475 0.307400 -0.590260
C34   C     C_3   0.007823 0.408524 0.373041 0.039215
H17   H     H_    0.120493 0.365085 0.362794 0.179262
H18   H     H_    0.013882 0.369816 0.430941 0.118576
C35   C     C_3   0.937227 0.571950 0.375874 -0.238657
H19   H     H_    0.984664 0.601681 0.334182 0.143412
H20   H     H_    0.822060 0.615708 0.354635 0.183104
C36   C     C_3   0.954055 0.641590 0.460420 -0.433405
H21   H     H_    0.925533 0.599107 0.505481 0.167794
H22   H     H_    0.882869 0.758078 0.462912 0.115832
H23   H     H_    0.064776 0.623010 0.476593 0.199213
O29   O     O_3   0.198200 0.901030 0.280692 -0.582831
C37   C     C_3   0.078799 0.969134 0.324066 0.037947
H24   H     H_    0.014906 0.075899 0.303872 0.183955
H25   H     H_    0.102715 0.987437 0.390159 0.127931
C38   C     C_3   0.990183 0.889552 0.301304 -0.257512
H26   H     H_    0.945172 0.900497 0.237277 0.153477
H27   H     H_    0.058713 0.774197 0.307550 0.198035
C39   C     C_3   0.869138 0.946584 0.353362 -0.463494
H28   H     H_    0.911030 0.942033 0.417916 0.152396
H29   H     H_    0.812276 0.881678 0.337641 0.131781
H30   H     H_    0.791925 0.057845 0.342606 0.175510

loop_
_geom_bond_atom_site_label_1
_geom_bond_atom_site_label_2
_ccdc_geom_bond_type
C35   H19   S    
C39   H28   S    
Cr5   O8    S    
C31   H10   S    
C37   H24   S    
C34   C35   S    
C20   O11   A    
C5    O29   S    
C37   C38   S    
C18   O7    A    
C7    C8    S    
C10   C22   S    
Cr4   O6    S    
C12   C28   S    
C1    C5    S    
C28   C29   T    
C32   H13   S    
C21   O14   A    
C20   O6    A    
C2    C18   S    
C2    H5    S    
Cr3   O4    S    
C9    H3    S    
C7    H6    S    
C30   O28   S    
C9    C13   D    
C18   O8    A    
Cr1   O25   S    
C4    H4    S    
C16   C17   T    
Cr1   O1    S    
C1    O20   A    
C32   C33   S    
Cr5   O19   S    
C25   O26   A    
C14   C27   S    
Cr6   O18   S    
C27   O24   A    
C26   O3    A    
C39   H29   S    
C23   O1    A    
C6    H8    S    
Cr5   O9    S    
C31   H11   S    
Cr6   O17   S    
C9    C26   S    
Cr2   O26   S    
C12   O22   A    
C17   C24   S    
C23   C30   S    
C32   H12   S    
C21   O15   A    
C33   H15   S    
Cr3   O5    S    
C12   O21   A    
Cr5   O15   S    
C23   O23   A    
Cr6   O11   S    
C1    O12   A    
C22   O17   A    
C36   H22   S    
O28   C34   S    
C15   C21   S    
Cr4   O19   S    
Cr5   O16   S    
C34   H17   S    
Cr2   O5    S    
C13   H2    S    
C26   O2    A    
C19   O9    A    
C24   O18   A    
C38   H27   S    
C35   H20   S    
Cr4   O14   S    
Cr2   O2    S    
C11   H9    S    
C5    C8    D    
Cr1   O5    S    
C3    C4    S    
C19   C29   S    
Cr3   O22   S    
C36   H23   S    
Cr2   O21   S    
C19   O10   A    
C16   C25   S    
C34   H18   S    
O27   C31   S    
C33   H16   S    
C37   H25   S    
C6    C7    D    
C39   H30   S    
C38   C39   S    
C6    C20   S    
Cr4   O7    S    
Cr1   O12   S    
C2    C3    D    
Cr6   O10   S    
C22   O16   A    
C11   C13   S    
C36   H21   S    
C8    H7    S    
C31   C32   S    
O29   C37   S    
C10   C11   D    
C33   H14   S    
Cr1   O24   S    
C3    H1    S    
C24   O13   A    
C38   H26   S    
C35   C36   S    
Cr4   O13   S    
Cr3   O3    S    
C14   C15   T    
C25   O25   A    
Cr6   O19   S    
C4    C30   D    
C27   O4    A    
Cr3   O23   S    
Cr2   O20   S    
C10   O27   S    
