data_mof_unit_65901.cif
_audit_creation_date              2013-03-05T15:53:36-0500
_audit_creation_method            fapswitch 2.2
_symmetry_space_group_name_H-M    P1
_symmetry_Int_Tables_number       1
_space_group_crystal_system       triclinic
_cell_length_a                    9.965792
_cell_length_b                    10.559895
_cell_length_c                    13.594297
_cell_angle_alpha                 91.628687
_cell_angle_beta                  82.783206
_cell_angle_gamma                 87.082491
_cell_volume                      1416.58416334

loop_
_atom_site_label
_atom_site_type_symbol
_atom_site_description
_atom_site_fract_x
_atom_site_fract_y
_atom_site_fract_z
_atom_type_partial_charge
O1    O     O_R   0.385310 0.683220 0.500000 -0.573868
O2    O     O_R   0.614640 0.683250 0.500010 -0.553869
C1    C     C_R   0.498785 0.737268 0.483256 0.975010
O3    O     O_R   0.368830 0.499960 0.640340 -0.584003
O4    O     O_R   0.598160 0.499980 0.640350 -0.610888
C2    C     C_R   0.475683 0.502875 0.685541 0.968691
Zn1   Zn    Zn3+2 0.346870 0.499980 0.499990 1.035061
Zn2   Zn    Zn3+2 0.653130 0.500020 0.500010 1.061926
O5    O     O_R   0.385360 0.316750 0.499990 -0.617957
O6    O     O_R   0.614690 0.316780 0.500000 -0.573300
O7    O     O_R   0.401840 0.500020 0.359650 -0.606603
O8    O     O_R   0.631170 0.500040 0.359660 -0.605957
C3    C     C_R   0.503417 0.258662 0.501320 0.936566
C4    C     C_R   0.524631 0.497670 0.314470 0.885578
C5    C     C_1   0.543615 0.487636 0.210568 -0.074382
C6    C     C_2   0.553099 0.472010 0.018920 0.170051
C7    C     C_2   0.458473 0.541819 0.980000 0.212030
C8    C     C_1   0.453233 0.530652 0.876807 0.112823
C9    C     C_1   0.553670 0.478747 0.122690 0.092757
C10   C     C_1   0.458730 0.517364 0.789340 -0.039091
C11   C     C_R   0.239756 0.910670 0.480143 0.264553
C12   C     C_R   0.130685 0.976141 0.539520 0.221459
C13   C     C_R   0.156361 0.071354 0.607993 0.207568
C14   C     C_R   0.288598 0.112298 0.606519 0.231692
C15   C     C_R   0.392901 0.059817 0.534216 -0.097734
C16   C     C_R   0.373630 0.944335 0.488705 -0.101746
C17   C     C_R   0.491332 0.868494 0.454907 -0.183076
C18   C     C_R   0.610376 0.925374 0.418389 0.272433
C19   C     C_R   0.617503 0.055545 0.434641 0.246124
C20   C     C_R   0.510808 0.121908 0.497925 -0.157800
C21   C     C_R   0.830991 0.585892 0.672994 0.275626
C22   C     C_R   0.880980 0.565426 0.762579 -0.235663
C23   C     C_R   0.020025 0.554827 0.763509 0.274336
C24   C     C_R   0.103475 0.573717 0.675027 0.248433
C25   C     C_R   0.055763 0.540361 0.584474 0.031522
C26   C     C_R   0.911938 0.543748 0.583680 0.096072
N1    N     N_R   0.857120 0.501200 0.500900 -0.101698
C27   C     C_R   0.944663 0.460842 0.419175 -0.006321
C28   C     C_R   0.087267 0.461501 0.419020 -0.014143
N2    N     N_R   0.142720 0.501280 0.500940 -0.096340
Br1   Br    Br    0.330505 0.659976 0.057357 -0.299773
Br2   Br    Br    0.715821 0.738272 0.681438 -0.347018
H1    H     H_    0.815903 0.584597 0.831945 0.223676
Br3   Br    Br    0.087786 0.560296 0.888953 -0.289584
Br4   Br    Br    0.199634 0.725959 0.683349 -0.379010
H2    H     H_    0.153107 0.428867 0.352888 0.165686
Br5   Br    Br    0.682944 0.355200 0.942148 -0.355882
Br6   Br    Br    0.753405 0.827331 0.335964 -0.293006
Br7   Br    Br    0.203965 0.798091 0.373007 -0.321051
Br8   Br    Br    0.948485 0.929598 0.532269 -0.272646
Br9   Br    Br    0.010499 0.150368 0.699325 -0.269226
Br10  Br    Br    0.331381 0.218562 0.714400 -0.368551
Br11  Br    Br    0.768383 0.138283 0.364487 -0.354624
H3    H     H_    0.904631 0.427789 0.353287 0.175138

loop_
_geom_bond_atom_site_label_1
_geom_bond_atom_site_label_2
_geom_bond_distance
_ccdc_geom_bond_type
C14   Br10  1.924592 S    
O4    Zn2   1.917650 S    
C5    C9    1.186848 T    
Zn1   N2    2.032280 S    
C19   C20   1.421932 A    
C21   Br2   1.920465 S    
C2    C10   1.402964 S    
C13   Br9   1.927424 S    
C21   C22   1.390844 A    
C27   H3    1.081424 S    
Zn2   O8    1.947595 S    
C13   C14   1.405674 A    
C17   C18   1.398647 A    
C22   C23   1.386186 A    
C1    C17   1.449610 S    
C23   C24   1.399095 A    
C24   Br4   1.920794 S    
O1    Zn1   1.991587 S    
C11   C12   1.407987 A    
Zn1   O7    1.917650 S    
C16   C17   1.405871 A    
N1    C27   1.367029 A    
C19   Br11  1.937680 S    
O3    Zn1   1.947595 S    
C6    Br5   1.926195 S    
C11   Br7   1.933130 S    
C18   C19   1.392826 A    
C11   C16   1.415926 A    
O8    C4    1.292681 A    
C7    C8    1.412173 S    
C8    C10   1.187385 T    
C6    C9    1.411188 S    
O4    C2    1.294179 A    
O7    C4    1.297119 A    
C7    Br1   1.927582 S    
C28   H2    1.081053 S    
O3    C2    1.295816 A    
Zn2   N1    2.035147 S    
C25   N2    1.378609 A    
C12   Br8   1.918680 S    
C3    C20   1.441360 S    
C28   N2    1.368842 A    
C27   C28   1.421271 A    
C14   C15   1.416833 A    
Zn2   O6    1.991585 S    
C24   C25   1.415978 A    
O2    Zn2   1.953301 S    
C15   C20   1.416049 A    
Zn1   O5    1.953299 S    
O5    C3    1.301277 A    
C21   C26   1.417630 A    
C26   N1    1.384707 A    
O2    C1    1.310242 A    
C15   C16   1.384772 A    
C4    C5    1.401582 S    
C23   Br3   1.911868 S    
C22   H1    1.083029 S    
C12   C13   1.405591 A    
C18   Br6   1.934356 S    
C25   C26   1.433361 A    
C6    C7    1.337699 D    
O1    C1    1.290284 A    
O6    C3    1.292902 A    
