data_mof_unit_29236.cif
_audit_creation_date              2012-12-10T19:00:14-0500
_audit_creation_method            fapswitch 2.2
_symmetry_space_group_name_H-M    P1
_symmetry_Int_Tables_number       1
_space_group_crystal_system       triclinic
_cell_length_a                    9.554406
_cell_length_b                    10.829217
_cell_length_c                    13.405949
_cell_angle_alpha                 90.088544
_cell_angle_beta                  72.713625
_cell_angle_gamma                 89.666582
_cell_volume                      1324.38769382

loop_
_atom_site_label
_atom_site_type_symbol
_atom_type_description
_atom_site_fract_x
_atom_site_fract_y
_atom_site_fract_z
_atom_type_partial_charge
C1    C     C_R   0.500279 0.737610 0.498282 0.796295
C2    C     C_R   0.437522 0.493238 0.976798 0.040296
C3    C     C_R   0.454768 0.544840 0.876291 0.075706
C4    C     C_R   0.538944 0.525557 0.031490 0.073449
C5    C     C_R   0.655537 0.607228 0.984923 0.118715
C6    C     C_R   0.660603 0.666717 0.891792 -0.260444
C7    C     C_R   0.554532 0.643930 0.841650 0.151804
C8    C     C_R   0.526226 0.481944 0.132436 -0.227391
C9    C     C_R   0.742928 0.593171 0.137024 -0.160493
C10   C     C_R   0.371881 0.494574 0.814172 -0.098199
C11   C     C_R   0.375520 0.937262 0.494042 0.143465
C12   C     C_R   0.421210 0.501853 0.699954 0.803425
C13   C     C_R   0.503247 0.870684 0.489080 -0.126456
C14   C     C_R   0.636039 0.934548 0.471556 -0.213610
C15   C     C_R   0.636308 0.063154 0.472515 -0.208093
C16   C     C_R   0.503867 0.129031 0.491531 -0.096848
C17   C     C_R   0.375854 0.064572 0.497038 0.073531
C18   C     C_3   0.229293 0.071393 0.577734 -0.463458
C19   C     C_3   0.226754 0.930984 0.572658 -0.041015
C20   C     C_R   0.962130 0.460389 0.414262 0.217314
C21   C     C_R   0.891767 0.547358 0.581559 -0.074008
C22   C     C_R   0.040180 0.547219 0.581656 -0.101584
C23   C     C_R   0.500589 0.262325 0.499350 0.808843
C24   C     C_R   0.109848 0.461264 0.413916 0.253205
C25   C     C_3   0.138066 0.336329 0.364728 -0.538244
C26   C     C_3   0.977813 0.334020 0.367805 -0.266288
C27   C     C_R   0.578407 0.502152 0.299993 0.799471
C28   C     C_R   0.759745 0.636272 0.036265 -0.182039
C29   C     C_R   0.621990 0.520468 0.186863 -0.036422
C30   C     C_R   0.254186 0.415914 0.858858 -0.209273
C31   C     C_R   0.226934 0.376429 0.960793 -0.128712
C32   C     C_R   0.319573 0.410877 0.018339 -0.161594
Cu1   Cu    Cu3+1 0.359330 0.500020 0.500010 0.935893
Cu2   Cu    Cu3+1 0.640670 0.499980 0.499990 0.942586
H1    H     H_    0.818214 0.623689 0.178394 0.150915
H2    H     H_    0.738882 0.110083 0.462935 0.153671
H3    H     H_    0.236328 0.107012 0.653957 0.172734
H4    H     H_    0.145547 0.118409 0.548582 0.200512
H5    H     H_    0.227671 0.884973 0.646636 0.157454
H6    H     H_    0.809205 0.583476 0.648799 0.151916
H7    H     H_    0.067549 0.584341 0.648371 0.146105
H8    H     H_    0.216886 0.339557 0.285046 0.180346
H9    H     H_    0.165427 0.266536 0.416555 0.208025
H10   H     H_    0.741463 0.737994 0.861800 0.147398
H11   H     H_    0.912627 0.263790 0.421769 0.158159
H12   H     H_    0.849789 0.697774 0.000713 0.134478
H13   H     H_    0.438264 0.422914 0.173740 0.129506
H14   H     H_    0.188486 0.378340 0.812739 0.154150
H15   H     H_    0.295505 0.370203 0.094571 0.125126
H16   H     H_    0.138481 0.312625 0.993252 0.167287
H17   H     H_    0.738597 0.885730 0.461615 0.168302
N1    N     N_R   0.852320 0.499070 0.499340 -0.195013
N2    N     N_R   0.148230 0.499110 0.499340 -0.183651
O1    O     O_R   0.381190 0.680360 0.500000 -0.579295
O2    O     O_R   0.618780 0.680320 0.499990 -0.589294
O3    O     O_R   0.323230 0.500000 0.650990 -0.593085
O4    O     O_R   0.560820 0.499960 0.650980 -0.568768
O5    O     O_R   0.381220 0.319680 0.500010 -0.577657
O6    O     O_R   0.618810 0.319640 0.500000 -0.585641
O7    O     O_R   0.439180 0.500040 0.349020 -0.579827
O8    O     O_R   0.676770 0.500000 0.349010 -0.577644
C33   C     C_3   0.109874 0.881525 0.525941 -0.831976
H18   H     H_    0.111609 0.931320 0.453111 0.235738
H19   H     H_    0.129413 0.782161 0.507085 0.255549
H20   H     H_    0.999748 0.892777 0.583469 0.226006
C34   C     C_1   0.955117 0.333398 0.264138 0.291882
N3    N     N_1   0.936226 0.332777 0.182812 -0.318229
C35   C     C_3   0.538258 0.739413 0.763542 -0.846298
H21   H     H_    0.537732 0.833252 0.797264 0.225121
H22   H     H_    0.631387 0.733925 0.691066 0.241142
H23   H     H_    0.433219 0.731503 0.744827 0.205031

loop_
_geom_bond_atom_site_label_1
_geom_bond_atom_site_label_2
_ccdc_geom_bond_type
C25   H8    S    
C23   O5    A    
C2    C4    A    
C1    O1    A    
C6    C7    A    
Cu1   O7    S    
C5    C28   A    
C27   C29   S    
C10   C30   A    
Cu2   O4    S    
Cu2   N1    S    
C14   H17   S    
C33   H20   S    
C17   C18   S    
C9    C29   A    
C30   C31   A    
C4    C8    A    
C11   C19   S    
C16   C23   S    
C25   H9    S    
Cu1   O3    S    
C2    C3    A    
C24   N2    A    
C8    H13   S    
Cu2   O2    S    
C20   N1    A    
C3    C10   A    
C6    H10   S    
C13   C14   A    
C23   O6    A    
C11   C13   A    
C28   H12   S    
C18   H4    S    
Cu1   O5    S    
C21   H6    S    
C20   C26   S    
C35   H23   S    
C12   O4    A    
C19   H5    S    
C35   H22   S    
C7    C35   S    
C12   O3    A    
C18   H3    S    
Cu1   Cu2   S    
C22   N2    A    
C3    C7    A    
C27   O7    A    
C21   N1    A    
Cu1   N2    S    
C5    C6    A    
C10   C12   S    
C1    O2    A    
C22   H7    S    
C32   H15   S    
C8    C29   A    
C31   H16   S    
C15   C16   A    
C26   C34   S    
C16   C17   A    
C20   C24   A    
C15   H2    S    
Cu1   O1    S    
C1    C13   S    
C24   C25   S    
C2    C32   A    
C18   C19   S    
C30   H14   S    
C34   N3    T    
C9    H1    S    
C14   C15   A    
C11   C17   A    
C33   H19   S    
C19   C33   S    
C26   H11   S    
C25   C26   S    
C21   C22   A    
Cu2   O6    S    
C35   H21   S    
Cu2   O8    S    
C33   H18   S    
C31   C32   A    
C9    C28   A    
C4    C5    A    
C27   O8    A    
