data_mof_unit_45164.cif
_audit_creation_date              2012-12-11T16:19:43-0500
_audit_creation_method            fapswitch 2.2
_symmetry_space_group_name_H-M    P1
_symmetry_Int_Tables_number       1
_space_group_crystal_system       triclinic
_cell_length_a                    13.541395
_cell_length_b                    14.021827
_cell_length_c                    29.927494
_cell_angle_alpha                 96.960682
_cell_angle_beta                  89.868547
_cell_angle_gamma                 118.595734
_cell_volume                      4942.42679858

loop_
_atom_site_label
_atom_site_type_symbol
_atom_type_description
_atom_site_fract_x
_atom_site_fract_y
_atom_site_fract_z
_atom_type_partial_charge
C1    C     C_R   0.719613 0.097791 0.569046 0.560796
C2    C     C_1   0.350309 0.648756 0.761657 0.114945
C3    C     C_1   0.350835 0.649225 0.721525 0.157488
C4    C     C_R   0.382272 0.785330 0.550465 0.576012
C5    C     C_R   0.311128 0.611295 0.899626 -0.039633
C6    C     C_3   0.253571 0.032092 0.714475 0.139807
C7    C     C_3   0.269636 0.218468 0.715179 -0.253667
C8    C     C_3   0.262645 0.229630 0.767117 -0.214331
C9    C     C_1   0.298526 0.198921 0.877473 0.071374
C10   C     C_3   0.328157 0.149101 0.700492 0.000473
C11   C     C_3   0.245729 0.039863 0.767030 0.160593
C12   C     C_R   0.351121 0.655676 0.674015 0.014737
C13   C     C_3   0.310355 0.163181 0.788594 0.001233
C14   C     C_3   0.435507 0.209898 0.777433 -0.274517
C15   C     C_3   0.446191 0.207134 0.725998 -0.228614
C16   C     C_R   0.396709 0.118620 0.568941 0.562018
C17   C     C_1   0.305282 0.178419 0.837781 0.024633
C18   C     C_1   0.342207 0.143836 0.651810 0.006411
C19   C     C_1   0.362347 0.135421 0.612890 0.061510
C20   C     C_3   0.696020 0.091452 0.724980 -0.239605
C21   C     C_3   0.854391 0.285495 0.725121 0.156266
C22   C     C_3   0.882370 0.298609 0.777380 -0.055179
C23   C     C_R   0.253935 0.643312 0.651972 -0.122771
C24   C     C_1   0.890389 0.204176 0.880565 0.067045
C25   C     C_3   0.809704 0.162930 0.703954 -0.037706
C26   C     C_3   0.709004 0.115789 0.777464 0.100266
C27   C     C_3   0.837323 0.182506 0.792843 -0.041118
C28   C     C_R   0.723441 0.098050 0.443465 0.574180
C29   C     C_3   0.900119 0.124705 0.768542 -0.200452
C30   C     C_3   0.892620 0.122786 0.716958 -0.211292
C31   C     C_1   0.858984 0.192945 0.841834 0.029509
C32   C     C_1   0.789622 0.146227 0.654634 0.024179
C33   C     C_1   0.764550 0.127676 0.614787 0.063386
C34   C     C_R   0.256200 0.671022 0.608320 0.061624
C35   C     C_3   0.315188 0.760159 0.268529 0.170895
C36   C     C_3   0.277753 0.563886 0.273752 -0.250419
C37   C     C_3   0.256312 0.542492 0.222054 0.101417
C38   C     C_1   0.306072 0.599692 0.111291 0.129948
C39   C     C_3   0.361479 0.688326 0.290170 -0.106429
C40   C     C_R   0.382040 0.783418 0.425413 0.569802
C41   C     C_3   0.312068 0.734873 0.215915 -0.268740
C42   C     C_3   0.346110 0.644596 0.200692 -0.084607
C43   C     C_3   0.475171 0.685771 0.218217 0.353927
C44   C     C_3   0.484964 0.711501 0.274100 0.174065
C45   C     C_R   0.257501 0.654333 0.830655 -0.093197
C46   C     C_1   0.327261 0.622931 0.151304 0.112697
C47   C     C_1   0.360723 0.707011 0.339748 0.115050
C48   C     C_1   0.366241 0.733686 0.379755 0.139235
C49   C     C_R   0.368041 0.134475 0.398832 0.002874
C50   C     C_R   0.458541 0.186964 0.372009 -0.141776
C51   C     C_R   0.440275 0.190932 0.327370 -0.179964
C52   C     C_R   0.397626 0.115360 0.442846 0.606830
C53   C     C_R   0.331428 0.138589 0.307654 -0.004143
C54   C     C_R   0.236739 0.088742 0.333725 0.288050
C55   C     C_R   0.255812 0.092047 0.380997 0.251882
C56   C     C_R   0.237797 0.632741 0.874902 -0.122189
C57   C     C_R   0.245922 0.066610 0.141487 0.039191
C58   C     C_R   0.241779 0.089736 0.096945 0.014022
C59   C     C_R   0.409097 0.267936 0.116957 -0.065230
C60   C     C_R   0.415551 0.242760 0.159766 -0.076355
C61   C     C_R   0.330253 0.146986 0.173020 -0.000201
C62   C     C_1   0.325215 0.138764 0.220142 0.098739
C63   C     C_1   0.323663 0.136822 0.259991 0.114076
C64   C     C_R   0.360911 0.719268 0.588083 -0.023566
C65   C     C_R   0.317911 0.196185 0.086469 -0.009431
C66   C     C_R   0.791799 0.144148 0.404798 -0.003177
C67   C     C_R   0.414860 0.629104 0.881534 0.178508
C68   C     C_R   0.813938 0.074982 0.373400 -0.071258
C69   C     C_R   0.839872 0.100415 0.329770 -0.033044
C70   C     C_R   0.840473 0.192693 0.316620 -0.034416
C71   C     C_R   0.836107 0.270420 0.349122 -0.083454
C72   C     C_R   0.817805 0.249721 0.393937 0.232673
C73   C     C_R   0.829110 0.280409 0.158969 0.235563
C74   C     C_R   0.864061 0.288986 0.114670 -0.076356
C75   C     C_R   0.868818 0.117898 0.111887 -0.123530
C76   C     C_R   0.454088 0.718339 0.608414 -0.117735
C77   C     C_R   0.837566 0.110685 0.156195 -0.114238
C78   C     C_R   0.428060 0.638205 0.835093 0.053036
C79   C     C_R   0.824860 0.194979 0.180837 0.030990
C80   C     C_1   0.827874 0.200330 0.229206 0.124242
C81   C     C_1   0.835054 0.200750 0.269351 0.084471
C82   C     C_R   0.889982 0.210892 0.091741 -0.023263
C83   C     C_R   0.284292 0.233073 0.922759 0.549368
C84   C     C_R   0.268781 0.550868 0.938922 0.556390
C85   C     C_R   0.944248 0.222277 0.924015 0.552372
C86   C     C_R   0.293127 0.240352 0.048169 0.575961
C87   C     C_R   0.274138 0.556848 0.064996 0.568240
C88   C     C_R   0.449588 0.685191 0.650769 0.260937
C89   C     C_R   0.347337 0.649269 0.809712 -0.036986
C90   C     C_R   0.952660 0.231808 0.050245 0.554757
C91   C     C_2   0.004399 0.376351 0.793674 0.643207
C92   C     C_2   0.148587 0.647333 0.585081 0.644682
C93   C     C_2   0.522676 0.639309 0.297637 0.653736
C94   C     C_2   0.383624 0.883293 0.284118 0.693534
C95   C     C_2   0.164789 0.002791 0.060727 0.601217
C96   C     C_2   0.164552 0.960074 0.155593 0.643309
C97   C     C_2   0.521217 0.628492 0.812787 0.655978
Cr1   Cr    Cr6+3 0.583400 0.162540 0.509180 1.167922
Cr2   Cr    Cr6+3 0.584070 0.916690 0.495550 1.100021
Cr3   Cr    Cr6+3 0.332550 0.920810 0.495240 1.155694
Cr4   Cr    Cr6+3 0.086700 0.177000 0.983690 1.115454
Cr5   Cr    Cr6+3 0.336880 0.419130 0.994740 1.178035
Cr6   Cr    Cr6+3 0.084850 0.422220 0.995960 1.080349
H1    H     H_    0.160770 0.625404 0.888626 0.196982
H2    H     H_    0.288161 0.997871 0.781054 0.161095
H3    H     H_    0.196821 0.665542 0.811518 0.207900
H4    H     H_    0.486078 0.295966 0.794186 0.169079
H5    H     H_    0.669952 0.168511 0.787768 0.095153
H6    H     H_    0.630119 0.109005 0.712556 0.130013
H7    H     H_    0.782241 0.302044 0.721680 0.101822
H8    H     H_    0.832972 0.335753 0.794401 0.094222
H9    H     H_    0.863621 0.037605 0.700143 0.160034
H10   H     H_    0.977545 0.174203 0.705387 0.218062
H11   H     H_    0.864375 0.039557 0.776110 0.219649
H12   H     H_    0.168357 0.000932 0.697954 0.177638
H13   H     H_    0.176572 0.614049 0.669321 0.202469
H14   H     H_    0.667262 0.003224 0.713604 0.236564
H15   H     H_    0.989449 0.165064 0.781346 0.178079
H16   H     H_    0.225532 0.707280 0.201280 0.182014
H17   H     H_    0.308912 0.509781 0.283778 0.233008
H18   H     H_    0.196968 0.535660 0.290315 0.184347
H19   H     H_    0.173783 0.538831 0.215670 0.205183
H20   H     H_    0.359646 0.807295 0.198952 0.236895
H21   H     H_    0.545025 0.220445 0.384867 0.189905
H22   H     H_    0.533475 0.749726 0.592491 0.181757
H23   H     H_    0.317301 0.301497 0.704654 0.166940
H24   H     H_    0.483384 0.301732 0.183595 0.166020
H25   H     H_    0.471153 0.347481 0.109039 0.209532
H26   H     H_    0.512494 0.230026 0.307387 0.147417
H27   H     H_    0.876396 0.359338 0.099054 0.170921
H28   H     H_    0.844710 0.345915 0.339431 0.202219
H29   H     H_    0.802424 0.997082 0.381282 0.215618
H30   H     H_    0.832659 0.043628 0.172407 0.202717
H31   H     H_    0.885829 0.055022 0.094944 0.193861
H32   H     H_    0.850058 0.043548 0.305022 0.226674
H33   H     H_    0.146250 0.777582 0.701758 0.397281
H34   H     H_    0.183337 0.179438 0.698485 0.152385
H35   H     H_    0.111891 0.405961 0.661726 0.356674
H36   H     H_    0.168465 0.416136 0.791292 0.324784
H37   H     H_    0.454057 0.946996 0.788023 0.360217
H38   H     H_    0.133043 0.685702 0.351975 0.366269
H39   H     H_    0.065071 0.261655 0.171267 0.369005
H40   H     H_    0.617587 0.011757 0.302622 0.348357
H41   H     H_    0.052675 0.598389 0.526731 0.364176
H42   H     H_    0.500773 0.541303 0.345434 0.362557
H43   H     H_    0.630618 0.757436 0.126300 0.391373
H44   H     H_    0.462754 0.036991 0.267491 0.327079
H45   H     H_    0.174102 0.201505 0.775570 0.187534
H46   H     H_    0.523099 0.458635 0.232870 0.374769
H47   H     H_    0.146469 0.929940 0.996595 0.351530
H48   H     H_    0.003249 0.855266 0.166121 0.389618
H49   H     H_    0.930735 0.904530 0.318900 0.390268
H50   H     H_    0.132285 0.080625 0.490707 0.367868
H51   H     H_    0.642312 0.266095 0.212323 0.322164
H52   H     H_    0.933186 0.536537 0.442233 0.380051
H53   H     H_    0.605735 0.543026 0.801856 0.358636
H54   H     H_    0.519814 0.770415 0.967350 0.343141
H55   H     H_    0.714707 0.808776 0.717572 0.396478
H56   H     H_    0.311305 0.317857 0.781425 0.151509
H57   H     H_    0.002315 0.970170 0.838055 0.387910
H58   H     H_    0.496942 0.167234 0.714688 0.167392
H59   H     H_    0.494171 0.292789 0.718150 0.154338
H60   H     H_    0.471571 0.161274 0.790468 0.131118
O1    O     O_R   0.494060 0.188820 0.559230 -0.491115
O2    O     O_R   0.170530 0.527770 0.952070 -0.508321
O3    O     O_R   0.987720 0.318450 0.945940 -0.494326
O4    O     O_R   0.678470 0.153390 0.554100 -0.467036
O5    O     O_R   0.976400 0.159230 0.032040 -0.491675
O6    O     O_R   0.193740 0.188470 0.029020 -0.474931
O7    O     O_R   0.364860 0.335530 0.039220 -0.489716
O8    O     O_R   0.330170 0.515340 0.044800 -0.449117
O9    O     O_R   0.177230 0.536000 0.050040 -0.508360
O10   O     O_R   0.993930 0.326080 0.036750 -0.495583
O11   O     O_3   0.169480 0.339450 0.991460 -0.294396
O12   O     O_R   0.480140 0.824500 0.445020 -0.472803
O13   O     O_R   0.697870 0.003940 0.549410 -0.507072
O14   O     O_R   0.480980 0.827230 0.535590 -0.518835
O15   O     O_R   0.309390 0.811640 0.537920 -0.448756
O16   O     O_R   0.341810 0.023400 0.546180 -0.472839
O17   O     O_R   0.493150 0.185870 0.461540 -0.484679
O18   O     O_R   0.677630 0.150660 0.463530 -0.442607
O19   O     O_R   0.696960 0.000990 0.451710 -0.484188
O20   O     O_2   0.264579 0.900279 0.642762 -0.281635
O21   O     O_2   0.416948 0.970662 0.701291 -0.295880
O22   O     O_3   0.221908 0.817002 0.717778 -0.489794
O23   O     O_R   0.308480 0.808690 0.440220 -0.476731
O24   O     O_2   0.910217 0.386331 0.650161 -0.252182
O25   O     O_2   0.006796 0.498690 0.721216 -0.246347
O26   O     O_3   0.069296 0.359757 0.684845 -0.523070
O27   O     O_2   0.025638 0.454393 0.822410 -0.524503
O28   O     O_R   0.091830 0.359267 0.776817 -0.678840
O29   O     O_2   0.610839 0.026831 0.851645 -0.287280
O30   O     O_2   0.687894 0.927204 0.804461 -0.187826
O31   O     O_3   0.502095 0.915860 0.775723 -0.441309
O32   O     O_2   0.141095 0.803810 0.263266 -0.137709
O33   O     O_2   0.085603 0.614276 0.269412 -0.274379
O34   O     O_R   0.340970 0.020670 0.455610 -0.442962
O35   O     O_3   0.171804 0.758039 0.341048 -0.453134
O36   O     O_2   0.277604 0.398879 0.155417 -0.241329
O37   O     O_2   0.242779 0.343154 0.230933 -0.226064
O38   O     O_3   0.080565 0.336309 0.184079 -0.535728
O39   O     O_2   0.587829 0.865983 0.348237 -0.326452
O40   O     O_2   0.710354 0.850959 0.292626 -0.218304
O41   O     O_3   0.607824 0.956692 0.276532 -0.474588
O42   O     O_2   0.074449 0.652800 0.606845 -0.437669
O43   O     O_R   0.129709 0.613668 0.538524 -0.652101
O44   O     O_2   0.612013 0.641171 0.289318 -0.376777
O45   O     O_3   0.500010 0.000010 0.499990 -0.305325
O46   O     O_R   0.464326 0.581469 0.332572 -0.720438
O47   O     O_2   0.548316 0.897704 0.193727 -0.230247
O48   O     O_2   0.691973 0.845100 0.204960 -0.190364
O49   O     O_3   0.560288 0.760162 0.133031 -0.498437
O50   O     O_2   0.404283 0.917999 0.324402 -0.497795
O51   O     O_R   0.414448 0.958413 0.253090 -0.647525
O52   O     O_2   0.486975 0.544896 0.147708 -0.232447
O53   O     O_2   0.644194 0.632697 0.203084 -0.165401
O54   O     O_3   0.460456 0.472016 0.224620 -0.492005
O55   O     O_2   0.065720 0.943688 0.066924 -0.454404
O56   O     O_R   0.969690 0.151000 0.934080 -0.482982
O57   O     O_R   0.206347 0.990546 0.018821 -0.679693
O58   O     O_2   0.198844 0.901856 0.169303 -0.461546
O59   O     O_R   0.049789 0.928766 0.155094 -0.605463
O60   O     O_2   0.063799 0.115950 0.310667 -0.281305
O61   O     O_2   0.096195 0.988029 0.258161 -0.221612
O62   O     O_3   0.005646 0.921798 0.331786 -0.385455
O63   O     O_2   0.058578 0.083400 0.404705 -0.227020
O64   O     O_2   0.090057 0.930857 0.418861 -0.202998
O65   O     O_3   0.195983 0.116214 0.471434 -0.535367
O66   O     O_2   0.906016 0.477300 0.207007 -0.144630
O67   O     O_R   0.187530 0.180840 0.938210 -0.478614
O68   O     O_2   0.745639 0.417936 0.153185 -0.260971
O69   O     O_3   0.709564 0.331513 0.227648 -0.511390
O70   O     O_2   0.723356 0.358320 0.439821 -0.269464
O71   O     O_2   0.877294 0.350327 0.479460 -0.248453
O72   O     O_3   0.927545 0.479227 0.417908 -0.502609
O73   O     O_2   0.581270 0.696583 0.789210 -0.368690
O74   O     O_R   0.540194 0.541178 0.818904 -0.671070
O75   O     O_2   0.534012 0.546468 0.917740 -0.194884
O76   O     O_2   0.640599 0.733893 0.900074 -0.214443
O77   O     O_3   0.522258 0.701904 0.970176 -0.484788
O78   O     O_R   0.358160 0.327300 0.941250 -0.474594
O79   O     O_2   0.535899 0.589802 0.698724 -0.262245
O80   O     O_2   0.646153 0.685535 0.637908 -0.261846
O81   O     O_3   0.640513 0.803420 0.710789 -0.459164
O82   O     O_2   0.028151 0.994079 0.752398 -0.362044
O83   O     O_2   0.059021 0.845880 0.771842 -0.202409
O84   O     O_3   0.084388 0.998525 0.835754 -0.517628
O85   O     O_R   0.323950 0.507710 0.953980 -0.429600
S1    S     S_3+6 0.293319 0.930011 0.692740 -0.015487
S2    S     S_3+6 0.145006 0.052766 0.418738 0.090317
S3    S     S_3+6 0.798108 0.380770 0.186593 0.060437
S4    S     S_3+6 0.834460 0.359799 0.434798 0.042371
S5    S     S_3+6 0.531939 0.652498 0.917193 0.089453
S6    S     S_3+6 0.570454 0.687700 0.674404 0.051594
S7    S     S_3+6 0.099754 0.967021 0.781083 -0.007214
S8    S     S_3+6 0.962112 0.386618 0.694569 0.026218
S9    S     S_3+6 0.628459 0.993965 0.803830 0.031376
S10   S     S_3+6 0.173622 0.730575 0.284798 0.056507
S11   S     S_3+6 0.219441 0.403317 0.197690 0.038665
S12   S     S_3+6 0.598883 0.848375 0.298351 0.044789
S13   S     S_3+6 0.571345 0.802646 0.188830 0.100861
S14   S     S_3+6 0.518001 0.582444 0.197257 0.108408
S15   S     S_3+6 0.098480 0.028543 0.307148 0.120507

loop_
_geom_bond_atom_site_label_1
_geom_bond_atom_site_label_2
_ccdc_geom_bond_type
Cr5   O7    S    
C7    C10   S    
C66   C68   A    
C29   H11   S    
C1    O13   A    
C8    C13   S    
H33   O22   S    
C27   C29   S    
C86   O6    A    
O41   S12   S    
C41   C42   S    
H50   O65   S    
C35   C39   S    
C52   O17   A    
C35   S10   S    
H38   O35   S    
C64   C76   A    
C4    O14   A    
C5    C67   A    
H44   O51   S    
O68   S3    D    
O60   S15   D    
C21   H7    S    
C51   H26   S    
C75   H31   S    
C1    C33   S    
C65   C86   S    
C53   C54   A    
C45   H3    S    
O82   S7    D    
C90   O10   A    
C26   C27   S    
C29   C30   S    
O80   S6    D    
C54   S15   S    
H54   O77   S    
C36   C37   S    
Cr2   O14   S    
Cr2   O45   S    
H36   O28   S    
C10   C15   S    
C16   C19   S    
C40   O23   A    
C20   C25   S    
C1    O4    A    
C92   O43   S    
Cr6   O10   S    
C95   O55   D    
C40   C48   S    
C18   C19   T    
C42   C46   S    
C7    H34   S    
C37   C42   S    
C68   H29   S    
C70   C81   S    
C28   O19   A    
C28   C66   S    
C53   C63   S    
Cr2   O19   S    
C84   O2    A    
C15   H59   S    
H37   O31   S    
C23   H13   S    
O36   S11   D    
H42   O46   S    
C66   C72   A    
Cr2   O13   S    
C45   C56   A    
C68   C69   A    
C57   C96   S    
O76   S5    D    
O30   S9    D    
C22   C91   S    
C22   H8    S    
Cr4   O6    S    
Cr4   O67   S    
C44   C93   S    
C45   C89   A    
C24   C85   S    
C76   C88   A    
O65   S2    S    
Cr1   O4    S    
C16   O16   A    
C90   O5    A    
Cr3   O34   S    
C49   C52   S    
O47   S13   D    
C77   C79   A    
H40   O41   S    
C3    C12   S    
Cr3   O15   S    
C59   C60   A    
C69   H32   S    
O81   S6    S    
C13   C14   S    
C76   H22   S    
O52   S14   D    
Cr1   O45   S    
Cr4   O11   S    
C8    H45   S    
C67   C78   A    
C77   H30   S    
O72   S4    S    
C74   C82   A    
C36   H17   S    
C20   H14   S    
C50   C51   A    
O61   S15   D    
H41   O43   S    
C67   S5    S    
C78   C89   A    
Cr3   O45   S    
Cr5   O8    S    
C91   O27   D    
O49   S13   S    
O48   S13   D    
C94   O51   S    
C12   C88   A    
O75   S5    D    
C27   C31   S    
H39   O38   S    
O25   S8    D    
Cr5   O85   S    
O29   S9    D    
C56   H1    S    
C4    C64   S    
C26   H5    S    
C6    C11   S    
C43   S13   S    
C5    C84   S    
C88   S6    S    
C59   H25   S    
C49   C55   A    
C97   O73   D    
C71   H28   S    
C36   C39   S    
Cr6   O11   S    
C72   S4    S    
C20   H6    S    
C30   H9    S    
C60   C61   A    
C51   C53   A    
C92   O42   D    
Cr4   O5    S    
Cr3   O23   S    
C58   C95   S    
O20   S1    D    
C11   H2    S    
C62   C63   T    
O39   S12   D    
C44   S12   S    
Cr4   O56   S    
C58   C65   A    
C11   S7    S    
C47   C48   T    
C12   C23   A    
H52   O72   S    
C23   C34   A    
C87   O8    A    
O66   S3    D    
C78   C97   S    
C34   C64   A    
C95   O57   S    
O77   S5    S    
C55   S2    S    
C50   H21   S    
O69   S3    S    
H55   O81   S    
C41   H16   S    
O33   S10   D    
C75   C77   A    
C70   C71   A    
C9    C83   S    
O64   S2    D    
C9    C17   T    
C14   H4    S    
Cr6   O2    S    
C5    C56   A    
C96   O59   S    
C22   C27   S    
C74   H27   S    
C43   C44   S    
C93   O46   S    
Cr6   O9    S    
O79   S6    D    
C49   C50   A    
C79   C80   S    
H35   O26   S    
C42   C43   S    
O62   S15   S    
C85   O3    A    
Cr1   O17   S    
C93   O44   D    
C73   C74   A    
O35   S10   S    
O40   S12   D    
O37   S11   D    
C39   C47   S    
H46   O54   S    
C35   C94   S    
C25   C30   S    
O63   S2    D    
C21   C25   S    
C54   C55   A    
C94   O50   D    
O54   S14   S    
C6    S1    S    
H51   O69   S    
C86   O7    A    
C15   H58   S    
C60   H24   S    
C37   S11   S    
C4    O15   A    
C80   C81   T    
C73   C79   A    
C40   O12   A    
C6    C10   S    
C43   S14   S    
H43   O49   S    
C14   H60   S    
C75   C82   A    
C57   C61   A    
C39   C44   S    
C83   O67   A    
H53   O74   S    
Cr5   O11   S    
C97   O74   S    
C29   H15   S    
C83   O78   A    
C82   C90   S    
H48   O59   S    
C13   C17   S    
C38   C87   S    
C84   O85   A    
O31   S9    S    
O21   S1    D    
C41   H20   S    
Cr1   O18   S    
C61   C62   S    
C2    C3    T    
C85   O56   A    
C24   C31   T    
O53   S14   D    
C71   C72   A    
C16   O1    A    
C32   C33   T    
C21   S8    S    
H49   O62   S    
C11   C13   S    
Cr1   O1    S    
C57   C58   A    
C8    H56   S    
C26   S9    S    
C20   C26   S    
C10   C18   S    
C28   O18   A    
C87   O9    A    
C25   C32   S    
C36   H18   S    
O26   S8    S    
C7    H23   S    
C91   O28   S    
C69   C70   A    
C35   C41   S    
C34   C92   S    
C6    H12   S    
C38   C46   T    
C7    C8    S    
O22   S1    S    
C37   H19   S    
O32   S10   D    
C2    C89   S    
O71   S4    D    
Cr2   O12   S    
Cr6   O3    S    
C96   O58   D    
O83   S7    D    
O38   S11   S    
H47   O57   S    
C14   C15   S    
C52   O34   A    
H57   O84   S    
O24   S8    D    
C21   C22   S    
Cr3   O16   S    
Cr5   O78   S    
C59   C65   A    
O70   S4    D    
C73   S3    S    
C30   H10   S    
O84   S7    S    
