data_mof_unit_50298.cif
_audit_creation_date              2012-12-10T17:45:27-0500
_audit_creation_method            fapswitch 2.2
_symmetry_space_group_name_H-M    P1
_symmetry_Int_Tables_number       1
_space_group_crystal_system       triclinic
_cell_length_a                    11.51419
_cell_length_b                    10.602385
_cell_length_c                    9.981716
_cell_angle_alpha                 90.342789
_cell_angle_beta                  89.759827
_cell_angle_gamma                 92.071731
_cell_volume                      1217.71875073

loop_
_atom_site_label
_atom_site_type_symbol
_atom_type_description
_atom_site_fract_x
_atom_site_fract_y
_atom_site_fract_z
_atom_type_partial_charge
C1    C     C_R   0.501035 0.260957 0.499665 0.850264
C2    C     C_R   0.504261 0.871663 0.500834 -0.112400
C3    C     C_R   0.401557 0.288649 0.135150 0.187511
C4    C     C_R   0.282272 0.500329 0.500207 0.880494
C5    C     C_R   0.399018 0.172958 0.065347 0.018387
C6    C     C_R   0.404123 0.174633 0.925970 -0.283819
C7    C     C_R   0.398289 0.291096 0.862223 0.246245
C8    C     C_R   0.451000 0.397638 0.927552 0.093140
C9    C     C_R   0.451771 0.397059 0.071360 0.066082
C10   C     C_R   0.546165 0.598073 0.071632 -0.110755
C11   C     C_R   0.546364 0.597907 0.929075 -0.114527
C12   C     C_R   0.823238 0.076787 0.449660 0.161273
C13   C     C_R   0.500264 0.738985 0.500298 0.851716
C14   C     C_R   0.717777 0.501100 0.499785 0.864614
C15   C     C_1   0.161726 0.500628 0.500534 -0.202097
C16   C     C_1   0.059428 0.500954 0.500233 -0.000623
C17   C     C_1   0.940678 0.501296 0.499634 0.004786
C18   C     C_1   0.838369 0.501377 0.499398 -0.188235
C19   C     C_R   0.718731 0.138466 0.464597 -0.196658
C20   C     C_3   0.286014 0.305004 0.787275 -0.806235
C21   C     C_R   0.822886 0.944446 0.451390 0.105317
C22   C     C_R   0.717665 0.875652 0.467856 -0.253175
C23   C     C_R   0.611689 0.937744 0.483135 0.046238
C24   C     C_R   0.612409 0.069596 0.481746 0.047531
C25   C     C_R   0.505902 0.128777 0.498794 -0.102207
C26   C     C_R   0.401046 0.062006 0.516457 -0.203644
C27   C     C_R   0.399184 0.932823 0.517456 0.085204
H1    H     H_    0.320295 0.110512 0.528271 0.132713
H2    H     H_    0.967438 0.124058 0.342622 0.196250
H3    H     H_    0.985345 0.127792 0.510771 0.198158
H4    H     H_    0.921672 0.819966 0.353602 0.189354
H5    H     H_    0.939840 0.824083 0.521368 0.192455
H6    H     H_    0.276019 0.806520 0.450707 0.186124
H7    H     H_    0.294193 0.808979 0.619285 0.191127
H8    H     H_    0.236376 0.312950 0.193388 0.160299
H9    H     H_    0.310701 0.223146 0.298511 0.193477
H10   H     H_    0.435629 0.994015 0.112491 0.200404
H11   H     H_    0.292437 0.019823 0.095406 0.185029
H12   H     H_    0.379793 0.088841 0.871711 0.171963
H13   H     H_    0.584862 0.677989 0.876412 0.147982
H14   H     H_    0.721665 0.240390 0.463002 0.148025
H15   H     H_    0.720073 0.773773 0.469085 0.137732
H16   H     H_    0.584487 0.678300 0.124867 0.146610
H17   H     H_    0.296216 0.283043 0.679694 0.240927
H18   H     H_    0.216997 0.238031 0.825163 0.201537
H19   H     H_    0.250906 0.399856 0.804576 0.243510
N1    N     N_R   0.498930 0.498800 0.142780 -0.098044
N2    N     N_R   0.498900 0.498720 0.857170 -0.103409
N3    N     N_3   0.929075 0.150299 0.433237 -0.459265
N4    N     N_3   0.929485 0.880134 0.436709 -0.473191
N5    N     N_3   0.289811 0.865348 0.534008 -0.459984
N6    N     N_3   0.317205 0.303896 0.239055 -0.376897
N7    N     N_3   0.370629 0.057546 0.133946 -0.458240
O1    O     O_R   0.500000 0.316780 0.614690 -0.607652
O2    O     O_R   0.499990 0.316750 0.385360 -0.600773
O3    O     O_R   0.334450 0.500030 0.614670 -0.620507
O4    O     O_R   0.334440 0.500000 0.385330 -0.587499
O5    O     O_R   0.500010 0.683250 0.614640 -0.622149
O6    O     O_R   0.500000 0.683220 0.385310 -0.620169
O7    O     O_R   0.665560 0.500000 0.614670 -0.601681
O8    O     O_R   0.665550 0.499970 0.385330 -0.608903
Zn1   Zn    Zn3+2 0.500010 0.500020 0.653130 0.943937
Zn2   Zn    Zn3+2 0.499990 0.499980 0.346870 0.956325

loop_
_geom_bond_atom_site_label_1
_geom_bond_atom_site_label_2
_ccdc_geom_bond_type
C4    O4    A    
O5    Zn1   S    
C23   C24   A    
C8    N2    A    
O4    Zn2   S    
C6    C7    A    
C13   O6    A    
C26   H1    S    
H6    N5    S    
C14   O7    A    
C14   C18   S    
N2    Zn1   S    
C20   H18   S    
H9    N6    S    
C17   C18   T    
C1    O1    A    
C2    C27   A    
H10   N7    S    
C4    C15   S    
C12   N3    S    
H7    N5    S    
C7    C8    A    
C13   O5    A    
H2    N3    S    
C21   C22   A    
C4    O3    A    
C1    C25   S    
H5    N4    S    
C26   C27   A    
C22   H15   S    
H11   N7    S    
C3    C9    A    
C12   C19   A    
C5    N7    S    
C21   N4    S    
C20   H17   S    
H3    N3    S    
C27   N5    S    
C19   C24   A    
N1    Zn2   S    
C5    C6    A    
C3    N6    S    
O3    Zn1   S    
C1    O2    A    
C10   N1    A    
C9    N1    A    
C10   C11   A    
H4    N4    S    
C11   H13   S    
C19   H14   S    
H8    N6    S    
C24   C25   A    
O7    Zn1   S    
C7    C20   S    
C2    C23   A    
O8    Zn2   S    
C2    C13   S    
C22   C23   A    
C16   C17   S    
C11   N2    A    
O1    Zn1   S    
C25   C26   A    
C6    H12   S    
C14   O8    A    
O6    Zn2   S    
C12   C21   A    
C20   H19   S    
C15   C16   T    
C10   H16   S    
C8    C9    A    
C3    C5    A    
O2    Zn2   S    
