data_mof_unit_12327.cif
_audit_creation_date              2012-10-26T19:02:33-0400
_audit_creation_method            fapswitch 2.2
_symmetry_space_group_name_H-M    P1
_symmetry_Int_Tables_number       1
_space_group_crystal_system       triclinic
_cell_length_a                    17.29966
_cell_length_b                    8.688617
_cell_length_c                    7.440083
_cell_angle_alpha                 102.907993
_cell_angle_beta                  90.245687
_cell_angle_gamma                 93.002769
_cell_volume                      1088.41634248

loop_
_atom_site_label
_atom_site_type_symbol
_atom_type_description
_atom_site_fract_x
_atom_site_fract_y
_atom_site_fract_z
_atom_type_partial_charge
C1    C     C_R   0.497634 0.199749 0.453660 0.551464
C2    C     C_R   0.775426 0.457583 0.606170 -0.128124
C3    C     C_R   0.145031 0.550611 0.404733 -0.108216
C4    C     C_R   0.854968 0.449385 0.595268 -0.108217
C5    C     C_R   0.107128 0.531875 0.565252 0.044644
C6    C     C_R   0.892872 0.468126 0.434752 0.044643
C7    C     C_R   0.150269 0.514434 0.718642 -0.113880
C8    C     C_R   0.849731 0.485573 0.281363 -0.113880
C9    C     C_R   0.230446 0.507134 0.708167 -0.129121
C10   C     C_R   0.769555 0.492871 0.291837 -0.129121
C11   C     C_2   0.022600 0.528771 0.574790 -0.133391
C12   C     C_R   0.502366 0.800251 0.546340 0.551464
C13   C     C_2   0.977400 0.471230 0.425215 -0.133391
C14   C     C_2   0.496508 0.031919 0.427500 -0.154809
C15   C     C_2   0.503492 0.968081 0.572500 -0.154809
C16   C     C_R   0.351296 0.505413 0.526543 0.545835
C17   C     C_R   0.648704 0.494587 0.473457 0.545834
C18   C     C_R   0.267740 0.517949 0.544070 0.016969
C19   C     C_R   0.732260 0.482051 0.455932 0.016968
C20   C     C_R   0.224573 0.542412 0.393830 -0.128123
Cu1   Cu    Cu3+1 0.508700 0.517250 0.683000 0.955349
Cu2   Cu    Cu3+1 0.491300 0.482750 0.317000 0.955349
H1    H     H_    0.002547 0.428887 0.290969 0.114064
H2    H     H_    0.747810 0.444437 0.732715 0.128060
H3    H     H_    0.737126 0.509813 0.173539 0.121863
H4    H     H_    0.262875 0.490196 0.826467 0.121862
H5    H     H_    0.121717 0.502354 0.844507 0.096344
H6    H     H_    0.878285 0.497657 0.155501 0.096345
H7    H     H_    0.997454 0.571113 0.709037 0.114064
H8    H     H_    0.886408 0.428012 0.712604 0.099207
H9    H     H_    0.113590 0.571981 0.287395 0.099205
H10   H     H_    0.489928 0.960521 0.287678 0.134704
H11   H     H_    0.510072 0.039479 0.712322 0.134704
H12   H     H_    0.439180 0.379235 0.958121 0.237888
H13   H     H_    0.560820 0.620765 0.041878 0.237888
H14   H     H_    0.252188 0.555554 0.267281 0.128059
N1    N     N_2   0.478180 0.456750 0.041980 -0.259431
N2    N     N_2   0.521820 0.543250 0.958020 -0.259431
O1    O     O_R   0.505650 0.286040 0.618880 -0.505846
O2    O     O_R   0.494350 0.713960 0.381120 -0.505846
O3    O     O_R   0.490960 0.256910 0.309800 -0.496199
O4    O     O_R   0.509040 0.743090 0.690200 -0.496199
O5    O     O_R   0.394600 0.516230 0.672450 -0.509553
O6    O     O_R   0.605400 0.483770 0.327550 -0.509552
O7    O     O_R   0.379910 0.487100 0.363380 -0.507819
O8    O     O_R   0.620090 0.512900 0.636620 -0.507819

loop_
_geom_bond_atom_site_label_1
_geom_bond_atom_site_label_2
_ccdc_geom_bond_type
C16   O7    A    
C12   O2    A    
C2    C4    A    
N1    N2    D    
H12   N1    S    
Cu1   O1    S    
C12   C15   S    
C10   C19   A    
Cu2   O2    S    
Cu2   O7    S    
C17   O6    A    
C3    C20   A    
Cu1   O8    S    
Cu1   Cu2   S    
C6    C13   S    
C3    H9    S    
C11   C13   D    
C16   O5    A    
C11   H7    S    
C10   H3    S    
C1    O3    A    
C17   C19   S    
C9    H4    S    
C5    C11   S    
C18   C20   A    
C2    H2    S    
C8    H6    S    
C4    H8    S    
Cu2   O3    S    
C1    O1    A    
C12   O4    A    
Cu1   O4    S    
C20   H14   S    
C7    C9    A    
C9    C18   A    
H13   N2    S    
C7    H5    S    
C17   O8    A    
C13   H1    S    
C16   C18   S    
C4    C6    A    
C5    C7    A    
C14   C15   D    
C6    C8    A    
C1    C14   S    
C2    C19   A    
Cu1   O5    S    
Cu2   N1    S    
C15   H11   S    
C8    C10   A    
Cu2   O6    S    
Cu1   N2    S    
C14   H10   S    
C3    C5    A    
