data_mof_unit_9450.cif
_audit_creation_date              2012-12-11T21:29:20-0500
_audit_creation_method            fapswitch 2.2
_symmetry_space_group_name_H-M    P1
_symmetry_Int_Tables_number       1
_space_group_crystal_system       triclinic
_cell_length_a                    8.544959
_cell_length_b                    19.014359
_cell_length_c                    18.826201
_cell_angle_alpha                 103.729576
_cell_angle_beta                  90.287479
_cell_angle_gamma                 92.735528
_cell_volume                      2967.61543125

loop_
_atom_site_label
_atom_site_type_symbol
_atom_type_description
_atom_site_fract_x
_atom_site_fract_y
_atom_site_fract_z
_atom_type_partial_charge
Ba1   Ba    Ba6+2 0.844980 0.532260 0.467660 1.795999
Ba2   Ba    Ba6+2 0.344840 0.467800 0.532350 1.753000
C1    C     C_3   0.572204 0.787290 0.269185 -0.348933
C2    C     C_R   0.922303 0.424165 0.086628 0.005945
C3    C     C_R   0.776316 0.390238 0.061143 -0.073314
C4    C     C_3   0.091622 0.714049 0.281480 0.252540
C5    C     C_R   0.712659 0.395778 0.994086 -0.069300
C6    C     C_R   0.796613 0.433044 0.949301 0.019700
C7    C     C_R   0.946982 0.464232 0.972580 0.000548
C8    C     C_R   0.735170 0.436691 0.880533 -0.067366
C9    C     C_R   0.823904 0.468871 0.832368 -0.050394
C10   C     C_R   0.975016 0.501223 0.856332 0.002690
C11   C     C_R   0.035239 0.498423 0.926397 -0.003702
C12   C     C_3   0.611884 0.726230 0.309857 0.137730
C13   C     C_R   0.767600 0.470117 0.761158 -0.016172
C14   C     C_R   0.863128 0.503333 0.717022 -0.212927
C15   C     C_R   0.013184 0.533722 0.738276 0.031987
C16   C     C_3   0.092224 0.768596 0.232921 -0.465163
C17   C     C_R   0.065567 0.537740 0.811234 -0.047747
C18   C     C_R   0.159641 0.491921 0.065898 -0.004799
C19   C     C_R   0.218265 0.491851 0.137174 0.038775
C20   C     C_R   0.121939 0.460274 0.184862 0.032290
C21   C     C_R   0.978357 0.424481 0.157118 -0.003820
C22   C     C_R   0.205500 0.576615 0.841255 -0.018275
C23   C     C_3   0.525585 0.312735 0.277558 0.164265
C24   C     C_R   0.274937 0.562563 0.903660 0.020507
C25   C     C_R   0.187043 0.527337 0.949092 0.014729
C26   C     C_R   0.249944 0.523605 0.018251 0.005152
C27   C     C_R   0.430738 0.585033 0.922278 -0.075461
C28   C     C_3   0.237157 0.698157 0.653080 0.311367
C29   C     C_R   0.495851 0.576638 0.986712 -0.050095
C30   C     C_R   0.404731 0.550133 0.038276 0.033872
C31   C     C_R   0.371758 0.523281 0.160307 -0.088258
C32   C     C_R   0.467338 0.547895 0.107585 -0.054449
C33   C     C_R   0.420195 0.528315 0.234947 0.026053
C34   C     C_3   0.558399 0.262406 0.199137 -0.210827
C35   C     C_R   0.320610 0.497151 0.279569 -0.143496
C36   C     C_R   0.172652 0.465305 0.258432 0.062676
C37   C     C_R   0.674399 0.954846 0.555264 0.029634
C38   C     C_R   0.753422 0.908457 0.590438 -0.091026
C39   C     C_R   0.877383 0.054650 0.588683 -0.050151
C40   C     C_3   0.298745 0.770633 0.700530 -0.282911
C41   C     C_R   0.733319 0.026832 0.555850 0.028361
C42   C     C_R   0.946187 0.121002 0.582804 -0.069765
C43   C     C_R   0.862952 0.167991 0.548390 -0.044555
C44   C     C_R   0.715311 0.140242 0.512953 0.085359
C45   C     C_3   0.049682 0.292884 0.721446 0.338381
C46   C     C_R   0.653291 0.069440 0.516757 0.054833
C47   C     C_R   0.916872 0.240743 0.548194 -0.099568
C48   C     C_R   0.816222 0.283454 0.516775 -0.264655
C49   C     C_R   0.676767 0.255527 0.476656 -0.053412
C50   C     C_R   0.632225 0.180525 0.470091 -0.008266
C51   C     C_R   0.530962 0.927779 0.518282 0.059294
C52   C     C_3   0.003522 0.298316 0.360729 0.223158
C53   C     C_R   0.477163 0.854419 0.512350 -0.004650
C54   C     C_R   0.567175 0.807570 0.542293 -0.036995
C55   C     C_R   0.701188 0.836977 0.583944 -0.025348
C56   C     C_3   0.106735 0.308457 0.802067 -0.161057
C57   C     C_R   0.514028 0.140882 0.420307 -0.033431
C58   C     C_R   0.462913 0.071709 0.423982 -0.056424
C59   C     C_R   0.513979 0.039866 0.478304 0.003169
C60   C     C_R   0.441897 0.973326 0.486236 0.006476
C61   C     C_R   0.284774 0.949687 0.462503 -0.065957
C62   C     C_R   0.332238 0.828286 0.477380 -0.064601
C63   C     C_R   0.235382 0.877576 0.456821 -0.064938
C64   C     C_3   0.029615 0.215875 0.330976 -0.225630
C65   C     C_R   0.283679 0.754432 0.467477 -0.021998
C66   C     C_R   0.378585 0.707346 0.492421 -0.292791
C67   C     C_3   0.595235 0.289204 0.684505 0.344016
C68   C     C_R   0.519620 0.733039 0.530502 0.044429
C69   C     C_3   0.705908 0.643819 0.694418 0.266842
C70   C     C_3   0.739208 0.675917 0.775533 -0.354190
C71   C     C_2   0.719806 0.752052 0.373952 0.510980
C72   C     C_2   0.920275 0.179941 0.268989 0.642169
C73   C     C_2   0.030377 0.173762 0.389207 0.402704
C74   C     C_2   0.660271 0.859674 0.295793 0.442851
C75   C     C_2   0.353571 0.315584 0.287990 0.466984
C76   C     C_2   0.591150 0.387448 0.280277 0.420438
C77   C     C_2   0.475469 0.281079 0.134614 0.475572
C78   C     C_3   0.562593 0.215533 0.701291 -0.321746
C79   C     C_2   0.729028 0.259105 0.181100 0.439700
C80   C     C_2   0.593429 0.764269 0.187905 0.619138
C81   C     C_2   0.977188 0.300351 0.853984 0.476050
C82   C     C_2   0.236510 0.261290 0.813390 0.541381
C83   C     C_2   0.986782 0.650324 0.247465 0.530061
C84   C     C_2   0.255031 0.645900 0.823882 0.557222
C85   C     C_2   0.637493 0.562490 0.118476 0.495295
C86   C     C_2   0.249817 0.684286 0.279618 0.321790
C87   C     C_2   0.856112 0.360468 0.528097 0.532464
C88   C     C_2   0.111904 0.131733 0.607772 0.478013
C89   C     C_R   0.009591 0.460427 0.041882 0.008997
C90   C     C_2   0.443178 0.163278 0.358645 0.621579
C91   C     C_2   0.320047 0.631945 0.483963 0.581802
C92   C     C_2   0.163366 0.999649 0.450121 0.512539
H1    H     H_    0.881827 0.304215 0.378844 -0.006093
H2    H     H_    0.594606 0.217495 0.758908 0.188119
H3    H     H_    0.708575 0.361920 0.094654 0.089505
H4    H     H_    0.816694 0.508447 0.665424 0.094688
H5    H     H_    0.618959 0.413037 0.864681 0.107032
H6    H     H_    0.618538 0.592570 0.994626 0.129893
H7    H     H_    0.358774 0.497173 0.333314 0.136459
H8    H     H_    0.768705 0.805584 0.612607 0.110039
H9    H     H_    0.857261 0.924872 0.623848 0.074977
H10   H     H_    0.132825 0.744132 0.176814 0.126491
H11   H     H_    0.337977 0.664572 0.634925 -0.012965
H12   H     H_    0.818687 0.629020 0.667462 0.036212
H13   H     H_    0.783090 0.804249 0.386190 0.013381
H14   H     H_    0.369606 0.762083 0.747039 0.140042
H15   H     H_    0.373666 0.799775 0.667749 0.039396
H16   H     H_    0.199522 0.804700 0.722042 0.136147
H17   H     H_    0.086762 0.320676 0.406906 0.011328
H18   H     H_    0.963425 0.167279 0.213525 0.058102
H19   H     H_    0.116547 0.188374 0.432501 -0.003616
H20   H     H_    0.147209 0.209900 0.308202 0.068605
H21   H     H_    0.623777 0.595547 0.688052 0.032134
H22   H     H_    0.785769 0.864757 0.288590 0.038052
H23   H     H_    0.631814 0.698529 0.802955 0.116499
H24   H     H_    0.832001 0.720058 0.782462 0.168164
H25   H     H_    0.778996 0.633921 0.802496 0.064185
H26   H     H_    0.506549 0.713900 0.337454 0.056547
H27   H     H_    0.310879 0.348201 0.338061 -0.005572
H28   H     H_    0.641022 0.400574 0.232016 -0.007745
H29   H     H_    0.515940 0.206456 0.199962 0.178993
H30   H     H_    0.464870 0.240700 0.083068 0.078688
H31   H     H_    0.814507 0.293901 0.216505 0.040481
H32   H     H_    0.710391 0.757522 0.165992 0.041108
H33   H     H_    0.983619 0.340135 0.714953 -0.018697
H34   H     H_    0.446696 0.798449 0.278963 0.108883
H35   H     H_    0.003076 0.312920 0.912263 0.019222
H36   H     H_    0.353666 0.285216 0.827408 0.024337
H37   H     H_    0.543828 0.286591 0.629533 0.068027
H38   H     H_    0.436486 0.199085 0.691993 0.170067
H39   H     H_    0.923363 0.648213 0.197239 0.043021
H40   H     H_    0.597896 0.370476 0.977104 0.094480
H41   H     H_    0.907535 0.397378 0.190420 0.062685
H42   H     H_    0.367739 0.652273 0.799500 -0.038275
H43   H     H_    0.504984 0.607776 0.886037 0.049532
H44   H     H_    0.709378 0.520263 0.125938 0.016358
H45   H     H_    0.170202 0.816809 0.257371 0.171470
H46   H     H_    0.327432 0.686935 0.234993 0.026237
H47   H     H_    0.899490 0.384419 0.485031 -0.003129
H48   H     H_    0.202331 0.144221 0.572583 0.010595
H49   H     H_    0.363558 0.206114 0.368372 -0.080082
H50   H     H_    0.116803 0.861413 0.438519 0.153344
H51   H     H_    0.227549 0.617503 0.517338 -0.027092
H52   H     H_    0.946871 0.022908 0.615758 0.104566
H53   H     H_    0.382902 0.041260 0.381682 0.114979
H54   H     H_    0.183670 0.057651 0.467492 -0.048124
H55   H     H_    0.972525 0.787262 0.228190 0.109799
H56   H     H_    0.970641 0.243261 0.708512 0.056520
H57   H     H_    0.172242 0.709762 0.606413 -0.032985
H58   H     H_    0.153969 0.365625 0.817721 -0.013302
H59   H     H_    0.723881 0.299729 0.683667 -0.026367
H60   H     H_    0.631907 0.174248 0.664975 0.055417
O1    O     O_2   0.885040 0.450540 0.321170 -0.419168
O2    O     O_2   0.254607 0.252160 0.538142 -0.522906
O3    O     O_3   0.178284 0.282723 0.674459 -0.584187
O4    O     O_3   0.133000 0.456200 0.410860 -0.491839
O5    O     O_3   0.556800 0.589310 0.543550 -0.466421
O6    O     O_2   0.384750 0.321010 0.451130 -0.503273
O7    O     O_3   0.596916 0.283149 0.332126 -0.645034
O8    O     O_2   0.438032 0.473590 0.755153 -0.494482
O9    O     O_3   0.527072 0.342987 0.738172 -0.590301
O10   O     O_3   0.639000 0.584840 0.375630 -0.314349
O11   O     O_2   0.733326 0.528201 0.249008 -0.463017
O12   O     O_3   0.636694 0.695960 0.665420 -0.659917
O13   O     O_3   0.024933 0.334296 0.303885 -0.617904
O14   O     O_3   0.665824 0.662695 0.261107 -0.601232
O15   O     O_2   0.804950 0.679010 0.548920 -0.432455
O16   O     O_3   0.051170 0.624120 0.414780 -0.381905
O17   O     O_2   0.977164 0.756282 0.489273 -0.474151
O18   O     O_2   0.733384 0.713889 0.416444 -0.521322
O19   O     O_2   0.784019 0.164182 0.280082 -0.501381
O20   O     O_2   0.943236 0.120244 0.386100 -0.497881
O21   O     O_2   0.591167 0.913381 0.325177 -0.524441
O22   O     O_2   0.261764 0.283701 0.239875 -0.585903
O23   O     O_3   0.036551 0.750823 0.351334 -0.616046
O24   O     O_2   0.584969 0.435079 0.335743 -0.545353
O25   O     O_2   0.422099 0.340356 0.138662 -0.624676
O26   O     O_2   0.772698 0.217292 0.125852 -0.553919
O27   O     O_2   0.480673 0.754521 0.146003 -0.559243
O28   O     O_2   0.844499 0.279037 0.832268 -0.592319
O29   O     O_2   0.211526 0.196497 0.808168 -0.506262
O30   O     O_2   0.982659 0.597472 0.273290 -0.523436
O31   O     O_2   0.171770 0.697538 0.840350 -0.565856
O32   O     O_2   0.699327 0.620724 0.115439 -0.599651
O33   O     O_2   0.282139 0.645605 0.319882 -0.629373
O34   O     O_2   0.304650 0.549490 0.678880 -0.497286
O35   O     O_2   0.843144 0.398777 0.588570 -0.627257
O36   O     O_2   0.150969 0.120124 0.666212 -0.533240
O37   O     O_2   0.461877 0.128795 0.296015 -0.510942
O38   O     O_2   0.370125 0.584549 0.436251 -0.540134
O39   O     O_2   0.037559 0.976464 0.420484 -0.533253
O40   O     O_3   0.056690 0.543860 0.589150 -0.484711
O41   O     O_3   0.550690 0.415220 0.624380 -0.431855
O42   O     O_3   0.131350 0.665597 0.693134 -0.619766
O43   O     O_3   0.632900 0.410750 0.456460 -0.409290
O44   O     O_3   0.138520 0.375940 0.585230 -0.423483
P1    P     P_3+3 0.058010 0.429760 0.330690 1.039027
P2    P     P_3+3 0.631910 0.669560 0.569730 1.010305
P3    P     P_3+3 0.088167 0.718940 0.429017 1.076779
P4    P     P_3+3 0.131690 0.570300 0.669320 0.987856
P5    P     P_3+3 0.117140 0.284858 0.585952 0.942180
P6    P     P_3+3 0.604035 0.579012 0.282265 1.121976
P7    P     P_3+3 0.566846 0.317991 0.428868 0.965153
P8    P     P_3+3 0.574044 0.427529 0.719836 0.993844

loop_
_geom_bond_atom_site_label_1
_geom_bond_atom_site_label_2
_ccdc_geom_bond_type
Ba2   O41   S    
C53   C54   A    
C47   P5    S    
C78   H38   S    
Ba2   O43   S    
O43   P7    S    
Ba2   P4    S    
C52   O13   S    
C7    C89   A    
C61   C63   A    
C46   C59   A    
C42   C88   S    
C5    C6    A    
C36   P1    S    
C43   C44   A    
C74   H22   S    
C55   H8    S    
C61   C92   S    
C24   C25   A    
C35   C36   A    
C4    C83   S    
C23   C75   S    
Ba1   O4    S    
C33   C35   A    
O11   P6    D    
C22   C24   A    
C81   H35   S    
C72   H18   S    
C33   P6    S    
C71   H13   S    
C19   C31   A    
C13   C14   A    
C92   O39   D    
C44   C50   A    
Ba1   O16   S    
C4    C86   S    
C54   C55   A    
C70   H25   S    
C22   C84   S    
Ba1   Ba2   S    
C82   H36   S    
O34   P4    D    
Ba1   O1    S    
C90   H49   S    
C7    C11   A    
C86   H46   S    
O16   P3    S    
O10   P6    S    
C31   C33   A    
O6    P7    D    
C9    C13   A    
C86   O33   D    
C28   O42   S    
C39   H52   S    
Ba1   O10   S    
C23   O7    S    
C6    C7    A    
C69   O12   S    
C88   O36   D    
C70   H23   S    
C91   H51   S    
C73   H19   S    
C58   H53   S    
C43   C47   A    
C78   H2    S    
C16   H55   S    
C41   C46   A    
C11   C25   A    
C59   C60   A    
C90   O37   D    
Ba2   O4    S    
C57   C90   S    
C2    C89   A    
C57   C58   A    
C76   O24   D    
C19   C20   A    
O8    P8    D    
C73   O20   D    
C27   C29   A    
C39   C41   A    
O7    P7    S    
Ba1   P1    S    
C56   H58   S    
C48   C49   A    
C85   O32   D    
O12   P2    S    
C51   C53   A    
Ba2   O6    S    
C92   H54   S    
C4    C16   S    
C18   C89   A    
C44   C46   A    
C65   C66   A    
C12   C71   S    
Ba1   O5    S    
C34   H29   S    
C5    H40   S    
C37   C38   A    
C3    C5    A    
C2    C21   A    
C1    H34   S    
C14   C15   A    
C37   C41   A    
C18   C26   A    
C23   C76   S    
C67   H59   S    
C49   C50   A    
C81   O28   D    
C58   C59   A    
Ba2   O40   S    
C30   C32   A    
C15   P4    S    
O17   P3    D    
C8    H5    S    
C62   C65   A    
C60   C61   A    
C65   P3    S    
C50   C57   A    
C56   C82   S    
C64   C72   S    
C51   C60   A    
C48   C87   S    
C29   C30   A    
C80   O27   D    
C45   H56   S    
C26   C30   A    
C34   C79   S    
C67   H37   S    
C53   C62   A    
C1    C80   S    
O4    P1    S    
C69   H21   S    
C16   H10   S    
C29   H6    S    
C10   C11   A    
C71   O18   D    
C78   H60   S    
C1    C74   S    
C52   H1    S    
C88   H48   S    
C1    C12   S    
C72   O19   D    
O15   P2    D    
O3    P5    S    
C66   C68   A    
O5    P2    S    
C3    H3    S    
C75   O22   D    
C12   H26   S    
C28   H11   S    
C39   C42   A    
O23   P3    S    
Ba1   P2    S    
O13   P1    S    
Ba2   O5    S    
C85   H44   S    
C12   O14   S    
C25   C26   A    
O1    P1    D    
C42   C43   A    
C45   O3    S    
C91   O38   D    
C84   H42   S    
C63   H50   S    
C68   P2    S    
C38   C55   A    
C64   H20   S    
C79   H31   S    
Ba2   O44   S    
C40   H15   S    
C74   O21   D    
Ba1   O43   S    
C67   O9    S    
C79   O26   D    
C2    C3    A    
C34   C77   S    
C9    C10   A    
C49   P7    S    
C45   H33   S    
C52   C64   S    
C83   O30   D    
C27   H43   S    
C77   H30   S    
O9    P8    S    
C54   C68   A    
C66   C91   S    
C21   H41   S    
C84   O31   D    
C62   C63   A    
C17   C22   A    
C40   H16   S    
C69   C70   S    
C4    O23   S    
C56   C81   S    
C38   H9    S    
C35   H7    S    
C14   H4    S    
C28   H57   S    
C37   C51   A    
O41   P8    S    
C40   H14   S    
C87   H47   S    
C64   C73   S    
C10   C17   A    
Ba1   O15   S    
C15   C17   A    
C31   C32   A    
C52   H17   S    
Ba1   O40   S    
C77   O25   D    
C32   C85   S    
C20   C36   A    
C16   H45   S    
C76   H28   S    
Ba2   O34   S    
C13   P8    S    
C75   H27   S    
C8    C9    A    
C23   C34   S    
O14   P6    S    
C18   C19   A    
C24   C27   A    
C6    C8    A    
C47   C48   A    
C69   H12   S    
C70   H24   S    
O44   P5    S    
C87   O35   D    
C20   C21   A    
C28   C40   S    
C67   C78   S    
O2    P5    D    
O42   P4    S    
C80   H32   S    
C83   H39   S    
C45   C56   S    
C82   O29   D    
O40   P4    S    
