data_mof_unit_57218.cif
_audit_creation_date              2012-12-10T17:15:55-0500
_audit_creation_method            fapswitch 2.2
_symmetry_space_group_name_H-M    P1
_symmetry_Int_Tables_number       1
_space_group_crystal_system       triclinic
_cell_length_a                    10.15032
_cell_length_b                    10.638481
_cell_length_c                    10.609533
_cell_angle_alpha                 90.286921
_cell_angle_beta                  94.753131
_cell_angle_gamma                 81.711929
_cell_volume                      1129.76744047

loop_
_atom_site_label
_atom_site_type_symbol
_atom_type_description
_atom_site_fract_x
_atom_site_fract_y
_atom_site_fract_z
_atom_type_partial_charge
C1    C     C_R   0.445005 0.513157 0.265968 0.910689
C2    C     C_2   0.500628 0.597341 0.934766 -0.003570
C3    C     C_2   0.072725 0.489230 0.489428 -0.125962
C4    C     C_R   0.500403 0.260502 0.504188 0.865185
C5    C     C_2   0.927221 0.510812 0.510653 -0.123855
C6    C     C_R   0.555079 0.500059 0.733514 0.942458
C7    C     C_R   0.501418 0.739372 0.502769 0.905314
C8    C     C_R   0.676117 0.107751 0.693080 -0.175532
C9    C     C_R   0.762454 0.030740 0.779347 -0.130886
C10   C     C_R   0.764760 0.899684 0.777435 -0.148373
C11   C     C_R   0.680611 0.845176 0.689380 -0.142329
C12   C     C_R   0.591397 0.053858 0.601850 0.087625
C13   C     C_R   0.593403 0.921789 0.600145 0.118183
C14   C     C_2   0.397512 0.701278 0.879788 0.967118
C15   C     C_R   0.501329 0.128213 0.513794 -0.095982
C16   C     C_R   0.411128 0.076158 0.430598 -0.205226
C17   C     C_R   0.412691 0.947561 0.429221 -0.203768
C18   C     C_R   0.504473 0.871273 0.510989 -0.075710
C19   C     C_2   0.417274 0.542846 0.132284 -0.307786
C20   C     C_2   0.515146 0.579874 0.070380 -0.205925
C21   C     C_2   0.584290 0.518258 0.867787 -0.464722
H1    H     H_    0.341786 0.135131 0.364443 0.149426
H2    H     H_    0.683279 0.743384 0.693739 0.151631
H3    H     H_    0.343956 0.906938 0.362476 0.159611
H4    H     H_    0.613561 0.585260 0.117341 0.182075
H5    H     H_    0.667107 0.455130 0.915432 0.154293
H6    H     H_    0.225305 0.817770 0.900420 0.335587
H7    H     H_    0.319336 0.536088 0.085262 0.181078
H8    H     H_    0.891192 0.580480 0.579561 0.161002
H9    H     H_    0.108688 0.419625 0.420459 0.161355
H10   H     H_    0.880269 0.383123 0.384270 0.165495
H11   H     H_    0.119858 0.616755 0.615914 0.174748
H12   H     H_    0.675006 0.209289 0.700192 0.148041
H13   H     H_    0.826760 0.073017 0.848725 0.139192
H14   H     H_    0.830879 0.840142 0.845294 0.140752
N1    N     N_2   0.157290 0.551390 0.551110 -0.188111
N2    N     N_2   0.842740 0.448550 0.448960 -0.192548
O1    O     O_R   0.568950 0.489660 0.307530 -0.603829
O2    O     O_R   0.286938 0.745859 0.946225 -0.822106
O3    O     O_R   0.348880 0.522640 0.340350 -0.609646
O4    O     O_R   0.610060 0.300270 0.483590 -0.611237
O5    O     O_R   0.389990 0.333260 0.516410 -0.611669
O6    O     O_R   0.651120 0.477360 0.659650 -0.625331
O7    O     O_R   0.431050 0.510340 0.692470 -0.580839
O8    O     O_R   0.610010 0.666740 0.483590 -0.635876
O9    O     O_R   0.389940 0.699730 0.516410 -0.570884
O10   O     O_2   0.412480 0.752424 0.780204 -0.647794
Zn1   Zn    Zn3+2 0.646940 0.477980 0.478090 0.935141
Zn2   Zn    Zn3+2 0.353060 0.522020 0.521910 0.973500

loop_
_geom_bond_atom_site_label_1
_geom_bond_atom_site_label_2
_ccdc_geom_bond_type
O7    Zn2   S    
C3    H9    S    
C21   H5    S    
H11   N1    S    
C10   H14   S    
C5    N2    D    
C9    C10   A    
O1    Zn1   S    
C19   C20   D    
C12   C15   A    
C8    C12   A    
C7    C18   S    
C4    C15   S    
C17   C18   A    
C6    O7    A    
C4    O4    A    
N2    Zn1   S    
C19   H7    S    
C11   C13   A    
O9    Zn2   S    
C14   O10   D    
C4    O5    A    
C1    O1    A    
C2    C21   D    
C3    N1    D    
C11   H2    S    
O4    Zn1   S    
C5    H8    S    
C8    H12   S    
C9    H13   S    
C2    C14   S    
C1    C19   S    
C17   H3    S    
C10   C11   A    
O5    Zn2   S    
C2    C20   S    
O3    Zn2   S    
C7    O9    A    
C7    O8    A    
C12   C13   A    
C13   C18   A    
O6    Zn1   S    
O8    Zn1   S    
H6    O2    S    
C6    O6    A    
C16   C17   A    
C16   H1    S    
C1    O3    A    
C14   O2    S    
C6    C21   S    
N1    Zn2   S    
C15   C16   A    
H10   N2    S    
C8    C9    A    
C3    C5    S    
C20   H4    S    
