data_mof_unit_57751.cif
_audit_creation_date              2012-12-11T14:13:22-0500
_audit_creation_method            fapswitch 2.2
_symmetry_space_group_name_H-M    P1
_symmetry_Int_Tables_number       1
_space_group_crystal_system       triclinic
_cell_length_a                    17.406362
_cell_length_b                    17.371998
_cell_length_c                    17.364444
_cell_angle_alpha                 89.909853
_cell_angle_beta                  89.742483
_cell_angle_gamma                 90.397696
_cell_volume                      5250.53135499

loop_
_atom_site_label
_atom_site_type_symbol
_atom_type_description
_atom_site_fract_x
_atom_site_fract_y
_atom_site_fract_z
_atom_type_partial_charge
C1    C     C_R   0.605501 0.304931 0.102910 -0.165064
C2    C     C_R   0.188861 0.097824 0.620400 -0.153255
C3    C     C_R   0.519183 0.224182 0.683331 -0.164249
C4    C     C_R   0.458377 0.171334 0.689661 -0.153771
C5    C     C_R   0.462814 0.109937 0.741451 -0.102817
C6    C     C_R   0.529009 0.099903 0.785386 -0.123082
C7    C     C_R   0.591354 0.150251 0.776488 -0.196738
C8    C     C_R   0.852747 0.334154 0.095361 0.168889
C9    C     C_R   0.887235 0.402252 0.122859 -0.158290
C10   C     C_R   0.925051 0.452506 0.072173 -0.115596
C11   C     C_R   0.928361 0.435617 0.993608 -0.101226
C12   C     C_R   0.893567 0.368618 0.965557 -0.130226
C13   C     C_R   0.904387 0.185965 0.625047 -0.148325
C14   C     C_R   0.855808 0.318109 0.016094 -0.137813
C15   C     C_R   0.293963 0.189690 0.078214 0.172643
C16   C     C_R   0.351238 0.135723 0.060547 -0.192033
C17   C     C_R   0.369476 0.119296 0.983792 -0.117373
C18   C     C_R   0.330749 0.156432 0.924172 -0.095330
C19   C     C_R   0.274236 0.210584 0.941175 -0.109647
C20   C     C_R   0.256202 0.227517 0.017780 -0.136892
C21   C     C_R   0.183032 0.713566 0.073927 0.176093
C22   C     C_R   0.129480 0.655032 0.057326 -0.190950
C23   C     C_R   0.108294 0.640382 0.981105 -0.111637
C24   C     C_R   0.804673 0.893950 0.602776 -0.163371
C25   C     C_R   0.139603 0.684592 0.921249 -0.097526
C26   C     C_R   0.192820 0.742880 0.937425 -0.114920
C27   C     C_R   0.215097 0.756864 0.013345 -0.135683
C28   C     C_R   0.682485 0.852433 0.089820 0.152797
C29   C     C_R   0.612570 0.889516 0.106247 -0.155678
C30   C     C_R   0.573661 0.929655 0.048733 -0.114051
C31   C     C_R   0.603506 0.932623 0.974031 -0.096902
C32   C     C_R   0.672090 0.895087 0.956569 -0.124893
C33   C     C_R   0.711444 0.855229 0.014058 -0.141739
C34   C     C_R   0.293049 0.087519 0.233679 0.157159
C35   C     C_R   0.088053 0.175177 0.361922 -0.120272
C36   C     C_R   0.286606 0.014565 0.199697 -0.181024
C37   C     C_R   0.341523 0.958140 0.215231 -0.154195
C38   C     C_R   0.401599 0.973604 0.266163 -0.089164
C39   C     C_R   0.407816 0.046011 0.300602 -0.124416
C40   C     C_R   0.354831 0.103348 0.283169 -0.188708
C41   C     C_R   0.940171 0.243576 0.203646 0.175501
C42   C     C_R   0.976599 0.207382 0.141144 -0.141057
C43   C     C_R   0.043950 0.238752 0.109443 -0.103909
C44   C     C_R   0.075927 0.305851 0.140495 -0.095686
C45   C     C_R   0.044122 0.338141 0.206818 -0.131492
C46   C     C_R   0.174898 0.912259 0.361290 -0.143671
C47   C     C_R   0.976523 0.307321 0.238224 -0.206399
C48   C     C_R   0.731168 0.927081 0.232087 0.165596
C49   C     C_R   0.764361 0.983352 0.184454 -0.134959
C50   C     C_R   0.729300 0.054752 0.176698 -0.098534
C51   C     C_R   0.662483 0.071437 0.218694 -0.109090
C52   C     C_R   0.631146 0.016752 0.268731 -0.127105
C53   C     C_R   0.664249 0.944207 0.274253 -0.228825
C54   C     C_R   0.090189 0.705314 0.236375 0.145670
C55   C     C_R   0.013406 0.710539 0.212729 -0.175062
C56   C     C_R   0.960311 0.653707 0.234738 -0.139218
C57   C     C_R   0.899681 0.814174 0.375425 -0.158991
C58   C     C_R   0.983340 0.591763 0.280379 -0.113577
C59   C     C_R   0.059677 0.586290 0.304100 -0.130157
C60   C     C_R   0.113139 0.642566 0.281846 -0.170030
C61   C     C_R   0.350881 0.821513 0.585756 0.153052
C62   C     C_R   0.388253 0.891509 0.603337 -0.154452
C63   C     C_R   0.428409 0.932283 0.546395 -0.117568
C64   C     C_R   0.431214 0.904179 0.471173 -0.092420
C65   C     C_R   0.393053 0.835747 0.452526 -0.118671
C66   C     C_R   0.353069 0.794578 0.509419 -0.143747
C67   C     C_R   0.829223 0.641962 0.616125 0.149059
C68   C     C_R   0.821577 0.091791 0.365455 -0.120632
C69   C     C_R   0.880686 0.601561 0.663187 -0.209024
C70   C     C_R   0.940687 0.559703 0.630069 -0.131354
C71   C     C_R   0.949876 0.558088 0.550069 -0.089944
C72   C     C_R   0.898838 0.598013 0.502928 -0.135668
C73   C     C_R   0.838499 0.639601 0.535674 -0.159036
C74   C     C_R   0.694604 0.210483 0.579545 0.173714
C75   C     C_R   0.644073 0.150333 0.559653 -0.177259
C76   C     C_R   0.625904 0.136923 0.482451 -0.121771
C77   C     C_R   0.657637 0.183643 0.424798 -0.095036
C78   C     C_R   0.708389 0.243189 0.444170 -0.107059
C79   C     C_R   0.605324 0.694692 0.103748 -0.116099
C80   C     C_R   0.727258 0.256310 0.521217 -0.154053
C81   C     C_R   0.217001 0.313003 0.572195 0.172317
C82   C     C_R   0.164409 0.370875 0.552791 -0.189863
C83   C     C_R   0.148682 0.386921 0.475484 -0.119147
C84   C     C_R   0.185449 0.345696 0.417089 -0.096054
C85   C     C_R   0.237876 0.288183 0.435906 -0.107427
C86   C     C_R   0.253365 0.271593 0.513041 -0.134831
C87   C     C_R   0.310477 0.597765 0.118661 -0.106377
C88   C     C_R   0.407092 0.314378 0.125651 -0.100218
C89   C     C_R   0.695842 0.604346 0.102415 -0.162284
C90   C     C_R   0.694209 0.398242 0.105730 -0.117225
C91   C     C_R   0.587873 0.320416 0.866594 -0.137792
C92   C     C_R   0.324438 0.417872 0.862525 -0.128287
C93   C     C_R   0.410465 0.685858 0.874085 -0.133233
C94   C     C_R   0.687309 0.594491 0.876369 -0.109317
C95   C     C_R   0.097498 0.188765 0.620135 -0.108248
C96   C     C_R   0.814972 0.091737 0.626520 -0.103282
C97   C     C_R   0.896004 0.804489 0.604347 -0.118908
C98   C     C_R   0.194402 0.895386 0.603760 -0.117183
C99   C     C_R   0.081822 0.823842 0.362845 -0.117180
C100  C     C_R   0.401793 0.689741 0.118958 -0.153006
C101  C     C_R   0.811400 0.906352 0.379286 -0.120762
C102  C     C_R   0.911464 0.183751 0.371166 -0.124658
C103  C     C_R   0.180157 0.086848 0.366951 -0.127454
C104  C     C_R   0.681397 0.321125 0.118835 0.162841
C105  C     C_R   0.682564 0.680506 0.117095 0.163731
C106  C     C_R   0.329448 0.670144 0.145482 0.158346
C107  C     C_R   0.336239 0.333695 0.155042 0.155981
C108  C     C_R   0.665880 0.661420 0.841693 0.137921
C109  C     C_R   0.647567 0.350521 0.823597 0.160491
C110  C     C_R   0.353374 0.358769 0.818994 0.138616
C111  C     C_R   0.313309 0.403238 0.124166 -0.153181
C112  C     C_R   0.344751 0.665114 0.836497 0.148766
C113  C     C_R   0.180165 0.817790 0.616739 0.159901
C114  C     C_R   0.169097 0.169484 0.648069 0.157337
C115  C     C_R   0.835182 0.162140 0.656826 0.151867
C116  C     C_R   0.818978 0.817481 0.618122 0.154865
C117  C     C_R   0.151171 0.145365 0.323383 0.139799
C118  C     C_R   0.142317 0.851883 0.320136 0.148299
C119  C     C_R   0.830619 0.839347 0.343228 0.146999
C120  C     C_R   0.850230 0.158392 0.329657 0.152663
C121  C     C_2   0.713600 0.652536 0.708955 0.009543
C122  C     C_R   0.597148 0.685729 0.874014 -0.151568
C123  C     C_2   0.349157 0.745183 0.715755 0.031254
C124  C     C_2   0.263401 0.351945 0.706784 0.022101
C125  C     C_2   0.655122 0.261568 0.710939 0.009149
C126  C     C_2   0.812010 0.279539 0.148648 0.012412
C127  C     C_2   0.274218 0.208762 0.159566 0.016616
C128  C     C_2   0.205019 0.731750 0.154410 0.011557
C129  C     C_2   0.725574 0.808487 0.150192 0.008716
C130  C     C_2   0.241337 0.150437 0.210628 0.020964
C131  C     C_2   0.855154 0.237401 0.209256 0.018685
C132  C     C_2   0.753362 0.845858 0.222352 0.027977
C133  C     C_R   0.676046 0.413890 0.862391 -0.127060
C134  C     C_2   0.148059 0.761490 0.208268 0.024007
C135  C     C_2   0.308943 0.775267 0.646069 0.010971
C136  C     C_2   0.766015 0.687187 0.650726 0.030599
C137  C     C_2   0.712890 0.227071 0.661362 0.011286
C138  C     C_2   0.233684 0.293661 0.653933 0.012576
C139  C     C_2   0.705572 0.692562 0.775827 -0.293667
C140  C     C_2   0.310036 0.705280 0.771630 -0.300306
C141  C     C_2   0.329661 0.334054 0.742353 -0.298597
C142  C     C_2   0.678868 0.323310 0.751360 -0.276790
C143  C     C_2   0.737111 0.263936 0.139147 -0.311381
C144  C     C_R   0.413583 0.326639 0.860018 -0.125867
C145  C     C_2   0.286564 0.278759 0.191011 -0.326898
C146  C     C_2   0.276254 0.721177 0.182239 -0.328875
C147  C     C_2   0.742666 0.734948 0.136772 -0.293427
C148  C     C_2   0.178076 0.172495 0.249430 -0.287613
C149  C     C_2   0.815975 0.201092 0.267304 -0.295349
C150  C     C_2   0.789925 0.804757 0.278465 -0.281712
C151  C     C_2   0.167043 0.827905 0.243678 -0.284946
C152  C     C_2   0.234797 0.758004 0.635054 -0.293872
C153  C     C_2   0.758727 0.763402 0.639536 -0.307548
C154  C     C_2   0.781084 0.211101 0.694013 -0.311920
C155  C     C_R   0.316933 0.597903 0.871800 -0.137045
C156  C     C_2   0.220684 0.223246 0.684156 -0.327667
C157  C     C_R   0.665448 0.582793 0.689668 0.167084
C158  C     C_R   0.586139 0.581641 0.706800 -0.136408
C159  C     C_R   0.539698 0.519281 0.685876 -0.127993
C160  C     C_R   0.571185 0.457461 0.645995 -0.057042
C161  C     C_R   0.649314 0.457567 0.627918 -0.109715
C162  C     C_R   0.696355 0.519061 0.650362 -0.197770
C163  C     C_R   0.430246 0.769680 0.723636 0.166831
C164  C     C_R   0.484238 0.744082 0.669522 -0.167759
C165  C     C_R   0.553552 0.783633 0.659767 -0.095729
C166  C     C_R   0.103977 0.803987 0.602192 -0.160198
C167  C     C_R   0.570776 0.847405 0.705962 -0.087871
C168  C     C_R   0.518516 0.871608 0.761716 -0.120246
C169  C     C_R   0.447620 0.834466 0.769071 -0.225560
C170  C     C_R   0.206919 0.408048 0.736008 0.152000
C171  C     C_R   0.211286 0.485617 0.713551 -0.187256
C172  C     C_R   0.155431 0.537466 0.738791 -0.135819
C173  C     C_R   0.095698 0.512483 0.786958 -0.118859
C174  C     C_R   0.090990 0.435320 0.809277 -0.127865
C175  C     C_R   0.146039 0.383048 0.783528 -0.169993
C176  C     C_R   0.586025 0.214099 0.726990 0.161818
H1    H     H_    0.579414 0.248377 0.098683 0.097267
H2    H     H_    0.244370 0.070409 0.623660 0.096681
H3    H     H_    0.753382 0.095626 0.136261 0.113170
H4    H     H_    0.633838 0.125999 0.212296 0.089818
H5    H     H_    0.579777 0.029591 0.301167 0.105296
H6    H     H_    0.636306 0.900283 0.309020 0.117548
H7    H     H_    0.995100 0.757813 0.176624 0.125964
H8    H     H_    0.901402 0.657202 0.216077 0.101827
H9    H     H_    0.942100 0.547815 0.297041 0.096460
H10   H     H_    0.077554 0.538102 0.339158 0.102480
H11   H     H_    0.172416 0.637169 0.299643 0.119642
H12   H     H_    0.383985 0.916021 0.660319 0.114649
H13   H     H_    0.931050 0.242174 0.629478 0.098083
H14   H     H_    0.456902 0.985995 0.560523 0.110533
H15   H     H_    0.462691 0.935645 0.427318 0.092697
H16   H     H_    0.394726 0.814400 0.394012 0.105199
H17   H     H_    0.324399 0.741246 0.494167 0.114791
H18   H     H_    0.874414 0.602721 0.725259 0.118183
H19   H     H_    0.980119 0.528539 0.666379 0.124716
H20   H     H_    0.996516 0.525861 0.524614 0.096965
H21   H     H_    0.906054 0.596817 0.441016 0.112700
H22   H     H_    0.799406 0.670437 0.498555 0.122400
H23   H     H_    0.619363 0.113420 0.603652 0.125741
H24   H     H_    0.748710 0.920409 0.598965 0.093102
H25   H     H_    0.587070 0.090455 0.467330 0.100684
H26   H     H_    0.643138 0.173504 0.365129 0.096315
H27   H     H_    0.733078 0.279282 0.399513 0.112469
H28   H     H_    0.766531 0.302705 0.535555 0.104903
H29   H     H_    0.133988 0.402220 0.597019 0.125875
H30   H     H_    0.107651 0.431076 0.460846 0.097932
H31   H     H_    0.173042 0.358030 0.357308 0.093083
H32   H     H_    0.266314 0.256147 0.390773 0.106143
H33   H     H_    0.293876 0.226588 0.526755 0.104519
H34   H     H_    0.057520 0.226218 0.346144 0.107358
H35   H     H_    0.227861 0.940738 0.346472 0.117790
H36   H     H_    0.924995 0.758342 0.366826 0.109550
H37   H     H_    0.769178 0.061612 0.351668 0.123096
H38   H     H_    0.575720 0.748600 0.103512 0.102980
H39   H     H_    0.255304 0.568997 0.122292 0.097214
H40   H     H_    0.437158 0.260442 0.131770 0.099484
H41   H     H_    0.751339 0.576934 0.098129 0.098650
H42   H     H_    0.746632 0.430814 0.106736 0.108753
H43   H     H_    0.560054 0.265845 0.861016 0.112345
H44   H     H_    0.275165 0.452264 0.852138 0.123262
H45   H     H_    0.441453 0.739011 0.872399 0.108480
H46   H     H_    0.741842 0.566019 0.870234 0.088555
H47   H     H_    0.069627 0.244086 0.623739 0.098580
H48   H     H_    0.761063 0.061058 0.633113 0.096100
H49   H     H_    0.926464 0.750759 0.604199 0.121379
H50   H     H_    0.248088 0.925926 0.603692 0.103329
H51   H     H_    0.045868 0.775208 0.351855 0.120043
H52   H     H_    0.429733 0.745472 0.121989 0.096660
H53   H     H_    0.757506 0.935614 0.380286 0.105154
H54   H     H_    0.938118 0.239585 0.369214 0.090915
H55   H     H_    0.234074 0.058536 0.361719 0.115054
H56   H     H_    0.736703 0.746040 0.785838 0.146801
H57   H     H_    0.249048 0.694758 0.767921 0.132084
H58   H     H_    0.364744 0.289381 0.717237 0.150349
H59   H     H_    0.731161 0.352929 0.732787 0.139733
H60   H     H_    0.711610 0.211914 0.160287 0.131334
H61   H     H_    0.267713 0.292564 0.249076 0.142596
H62   H     H_    0.292040 0.741237 0.239358 0.147721
H63   H     H_    0.257143 0.429186 0.128187 0.094884
H64   H     H_    0.794346 0.709315 0.159102 0.126340
H65   H     H_    0.148146 0.222554 0.229793 0.167721
H66   H     H_    0.754074 0.202333 0.271292 0.138563
H67   H     H_    0.798782 0.743481 0.273717 0.132761
H68   H     H_    0.212235 0.863003 0.218270 0.143425
H69   H     H_    0.209414 0.705269 0.656642 0.127072
H70   H     H_    0.708379 0.791368 0.661511 0.139384
H71   H     H_    0.793908 0.227311 0.753056 0.144841
H72   H     H_    0.239098 0.208960 0.742181 0.145016
H73   H     H_    0.559380 0.629414 0.735533 0.136053
H74   H     H_    0.568170 0.739206 0.862771 0.122849
H75   H     H_    0.479002 0.519449 0.699777 0.120224
H76   H     H_    0.535059 0.409566 0.629061 0.097424
H77   H     H_    0.673773 0.409355 0.597228 0.114236
H78   H     H_    0.756628 0.515276 0.637179 0.133102
H79   H     H_    0.470144 0.697118 0.630993 0.114331
H80   H     H_    0.592187 0.765991 0.614340 0.114690
H81   H     H_    0.623489 0.879676 0.697663 0.087410
H82   H     H_    0.531532 0.921157 0.796839 0.102348
H83   H     H_    0.404924 0.857853 0.807968 0.115038
H84   H     H_    0.257289 0.505557 0.676186 0.124427
H85   H     H_    0.726625 0.446399 0.846916 0.091740
H86   H     H_    0.158178 0.596992 0.721006 0.101217
H87   H     H_    0.052686 0.552787 0.806483 0.096148
H88   H     H_    0.044453 0.415888 0.846150 0.108206
H89   H     H_    0.141531 0.323265 0.800854 0.114058
H90   H     H_    0.515515 0.270784 0.642126 0.111189
H91   H     H_    0.407886 0.177674 0.654101 0.113076
H92   H     H_    0.415296 0.069745 0.746985 0.096588
H93   H     H_    0.532484 0.052597 0.825607 0.095248
H94   H     H_    0.643505 0.140178 0.808676 0.120266
H95   H     H_    0.882728 0.417550 0.183084 0.105157
H96   H     H_    0.442816 0.274804 0.844121 0.112349
H97   H     H_    0.951233 0.504862 0.093754 0.113330
H98   H     H_    0.957428 0.474726 0.954412 0.090760
H99   H     H_    0.895814 0.355827 0.904604 0.102382
H100  H     H_    0.829215 0.266326 0.993594 0.110003
H101  H     H_    0.383235 0.107782 0.105775 0.130749
H102  H     H_    0.413943 0.078050 0.970533 0.104322
H103  H     H_    0.344916 0.143772 0.864813 0.102210
H104  H     H_    0.244667 0.239787 0.894981 0.107908
H105  H     H_    0.212786 0.270056 0.029881 0.100499
H106  H     H_    0.105041 0.619969 0.102909 0.125704
H107  H     H_    0.260977 0.572668 0.862870 0.115536
H108  H     H_    0.067428 0.594923 0.968469 0.103927
H109  H     H_    0.122812 0.673662 0.862335 0.096182
H110  H     H_    0.216799 0.777364 0.891165 0.116874
H111  H     H_    0.256380 0.802248 0.025114 0.105861
H112  H     H_    0.586168 0.884350 0.162424 0.115174
H113  H     H_    0.519783 0.957601 0.061890 0.108919
H114  H     H_    0.573131 0.963490 0.929595 0.086502
H115  H     H_    0.694776 0.896850 0.898441 0.107235
H116  H     H_    0.764673 0.826632 0.999585 0.114720
H117  H     H_    0.240689 0.002325 0.159566 0.123142
H118  H     H_    0.076338 0.748186 0.597674 0.103722
H119  H     H_    0.337991 0.902534 0.187431 0.112473
H120  H     H_    0.443620 0.929673 0.278459 0.092875
H121  H     H_    0.454001 0.058158 0.340296 0.095483
H122  H     H_    0.361384 0.159885 0.308633 0.115849
H123  H     H_    0.948594 0.159836 0.112029 0.103683
H124  H     H_    0.069681 0.212747 0.059045 0.109534
H125  H     H_    0.126760 0.331479 0.114930 0.101832
H126  H     H_    0.069621 0.389375 0.231605 0.109369
H127  H     H_    0.947956 0.338903 0.283660 0.102257
H128  H     H_    0.814014 0.969940 0.149252 0.106556
N1    N     N_R   0.574080 0.369570 0.076720 -0.042652
N2    N     N_R   0.130430 0.074080 0.576720 -0.044069
N3    N     N_R   0.925920 0.130430 0.576720 -0.045081
N4    N     N_R   0.869570 0.925920 0.576720 -0.042009
N5    N     N_R   0.074080 0.130430 0.423280 -0.041963
N6    N     N_R   0.130430 0.925920 0.423280 -0.041457
N7    N     N_R   0.925920 0.869570 0.423280 -0.040561
N8    N     N_R   0.869570 0.074080 0.423280 -0.044658
N9    N     N_R   0.574050 0.630410 0.076720 -0.047515
N10   N     N_R   0.369590 0.574050 0.076720 -0.046193
N11   N     N_R   0.425950 0.369590 0.076720 -0.046688
N12   N     N_R   0.630430 0.574080 0.076720 -0.042376
N13   N     N_R   0.630410 0.425950 0.076720 -0.047899
N14   N     N_R   0.574050 0.369590 0.923280 -0.045434
N15   N     N_R   0.369590 0.425950 0.923280 -0.047363
N16   N     N_R   0.425950 0.630410 0.923280 -0.045234
N17   N     N_R   0.630410 0.574050 0.923280 -0.042694
N18   N     N_R   0.074050 0.130410 0.576720 -0.046951
N19   N     N_R   0.869590 0.074050 0.576720 -0.046075
N20   N     N_R   0.925950 0.869590 0.576720 -0.047686
N21   N     N_R   0.130410 0.925950 0.576720 -0.047527
N22   N     N_R   0.074050 0.869590 0.423280 -0.046715
N23   N     N_R   0.425920 0.630430 0.076720 -0.043654
N24   N     N_R   0.869590 0.925950 0.423280 -0.044725
N25   N     N_R   0.925950 0.130410 0.423280 -0.045206
N26   N     N_R   0.130410 0.074050 0.423280 -0.045486
N27   N     N_R   0.369570 0.425920 0.076720 -0.044480
N28   N     N_R   0.574080 0.630430 0.923280 -0.043455
N29   N     N_R   0.630430 0.425920 0.923280 -0.042095
N30   N     N_R   0.425920 0.369570 0.923280 -0.040033
N31   N     N_R   0.369570 0.574080 0.923280 -0.042618
N32   N     N_R   0.074080 0.869570 0.576720 -0.042885
Ni1   Ni    Ni4+2 0.500000 0.370760 0.000000 0.217664
Ni2   Ni    Ni4+2 0.629240 0.500000 0.000000 0.213294
Ni3   Ni    Ni4+2 0.500000 0.629240 0.000000 0.210532
Ni4   Ni    Ni4+2 0.370760 0.500000 0.000000 0.215023
Ni5   Ni    Ni4+2 0.000000 0.870760 0.500000 0.212751
Ni6   Ni    Ni4+2 0.129240 0.000000 0.500000 0.215001
Ni7   Ni    Ni4+2 0.000000 0.129240 0.500000 0.214910
Ni8   Ni    Ni4+2 0.870760 0.000000 0.500000 0.213591

loop_
_geom_bond_atom_site_label_1
_geom_bond_atom_site_label_2
_ccdc_geom_bond_type
C157  C158  A    
C132  C150  D    
C160  H76   S    
N5    N26   A    
C55   C56   A    
C77   H26   S    
C66   H17   S    
C31   H114  S    
C147  H64   S    
N19   Ni8   S    
C171  H84   S    
C83   H30   S    
C144  N30   A    
C5    C6    A    
N10   N23   A    
C42   H123  S    
C54   C134  S    
C126  C143  D    
C44   H125  S    
C59   H10   S    
C19   C20   A    
C70   H19   S    
C112  C155  A    
C109  C142  S    
C81   C86   A    
C19   H104  S    
C59   C60   A    
C15   C127  S    
C21   C22   A    
C103  C117  A    
C114  C156  S    
N24   Ni8   S    
C45   C47   A    
C81   C138  S    
C74   C137  S    
C109  C133  A    
C51   C52   A    
C113  C166  A    
C41   C131  S    
C72   C73   A    
C56   H8    S    
C23   H108  S    
C96   N19   A    
C75   C76   A    
C37   C38   A    
C123  C163  S    
C153  H70   S    
N26   Ni6   S    
C68   H37   S    
C90   C104  A    
C152  H69   S    
C13   C115  A    
C127  C145  D    
C8    C126  S    
C168  C169  A    
C28   C33   A    
C29   H112  S    
C140  H57   S    
C131  C149  D    
C164  H79   S    
C20   H105  S    
C10   H97   S    
N3    Ni7   S    
C61   C135  S    
C62   H12   S    
C28   C29   A    
C49   H128  S    
N11   Ni1   S    
C4    C5    A    
C6    C7    A    
C100  C106  A    
C165  H80   S    
C67   C136  S    
C17   H102  S    
C159  H75   S    
C64   C65   A    
C136  C153  D    
C2    C114  A    
N30   Ni1   S    
N31   Ni4   S    
C134  C151  D    
C133  N29   A    
C155  H107  S    
C69   C70   A    
C129  C147  D    
C93   C112  A    
C18   H103  S    
C14   H100  S    
C3    C176  A    
C24   H24   S    
C102  H54   S    
C22   C23   A    
C167  H81   S    
C157  C162  A    
N7    Ni5   S    
C112  C140  S    
N14   N29   A    
C158  H73   S    
C162  H78   S    
C46   N6    A    
C85   C86   A    
C4    H91   S    
C133  H85   S    
C46   C118  A    
C120  C149  S    
C117  C148  S    
C36   C37   A    
C144  H96   S    
N10   Ni4   S    
C38   C39   A    
C91   N14   A    
C78   C80   A    
C122  H74   S    
C170  C171  A    
C135  C152  D    
C111  N27   A    
C174  C175  A    
C72   H21   S    
N12   Ni2   S    
C146  H62   S    
N9    Ni3   S    
C9    C10   A    
N4    N20   A    
C37   H119  S    
C3    H90   S    
C73   H22   S    
C38   H120  S    
C12   H99   S    
C103  H55   S    
C48   C53   A    
C57   N7    A    
C78   H27   S    
C22   H106  S    
C122  N28   A    
C39   C40   A    
C76   H25   S    
C16   C17   A    
C25   C26   A    
C1    N1    A    
C88   N11   A    
C95   H47   S    
C123  C135  S    
C143  H60   S    
C110  C141  S    
C29   C30   A    
C128  C134  S    
C35   N5    A    
C83   C84   A    
N6    N22   A    
C7    C176  A    
C17   C18   A    
C41   C47   A    
C104  C143  S    
C21   C128  S    
N2    N18   A    
C142  H59   S    
N14   Ni1   S    
C24   C116  A    
N16   N31   A    
C124  C141  D    
C3    C4    A    
N11   N27   A    
C33   H116  S    
C52   C53   A    
C54   C55   A    
C55   H7    S    
N8    N25   A    
C107  C111  A    
C7    H94   S    
C48   C132  S    
N7    N24   A    
C90   N13   A    
C108  C139  S    
C75   H23   S    
C63   H14   S    
N15   Ni4   S    
C121  C139  D    
C50   H3    S    
C71   C72   A    
C53   H6    S    
C68   C120  A    
C128  C146  D    
N17   Ni2   S    
C102  N25   A    
C56   C58   A    
C34   C36   A    
C9    H95   S    
C61   C62   A    
C90   H42   S    
C10   C11   A    
N2    Ni6   S    
C27   H111  S    
C63   C64   A    
C32   H115  S    
C154  H71   S    
C49   C50   A    
C89   C105  A    
C94   H46   S    
N21   N32   A    
C2    H2    S    
C125  C176  S    
C99   H51   S    
N21   Ni6   S    
C6    H93   S    
C97   H49   S    
C43   H124  S    
C41   C42   A    
C161  C162  A    
C77   C78   A    
C26   C27   A    
C124  C138  S    
C164  C165  A    
C35   H34   S    
N13   Ni2   S    
C30   C31   A    
N8    Ni8   S    
C95   C114  A    
C46   H35   S    
C100  N23   A    
N28   Ni3   S    
C18   C19   A    
C100  H52   S    
C168  H82   S    
C30   H113  S    
C79   H38   S    
C149  H66   S    
C86   H33   S    
C70   C71   A    
C67   C73   A    
N23   Ni3   S    
C91   H43   S    
C129  C132  S    
C119  C150  S    
C21   C27   A    
C101  N24   A    
C74   C80   A    
C58   H9    S    
C113  C152  S    
C15   C20   A    
C97   N20   A    
C95   N18   A    
C155  N31   A    
C170  C175  A    
C84   C85   A    
C156  H72   S    
C167  C168  A    
N6    Ni6   S    
C88   C107  A    
C98   C113  A    
C125  C137  S    
C58   C59   A    
C11   H98   S    
C62   C63   A    
C159  C160  A    
C50   C51   A    
C39   H121  S    
C52   H5    S    
C97   C116  A    
C110  C144  A    
C116  C153  S    
C36   H117  S    
C60   H11   S    
C115  C154  S    
C42   C43   A    
N18   Ni7   S    
C64   H15   S    
C102  C120  A    
C44   C45   A    
C166  H118  S    
C2    N2    A    
C13   N3    A    
C32   C33   A    
C80   H28   S    
N29   Ni2   S    
C48   C49   A    
C69   H18   S    
C137  C154  D    
C121  C136  S    
C163  C169  A    
C5    H92   S    
C82   C83   A    
C93   N16   A    
C87   H39   S    
C68   N8    A    
C101  H53   S    
C79   N9    A    
N15   N30   A    
C171  C172  A    
C163  C164  A    
C43   C44   A    
C92   C110  A    
C175  H89   S    
C161  H77   S    
C81   C82   A    
C54   C60   A    
C173  C174  A    
C94   C108  A    
C16   H101  S    
N17   N28   A    
C166  N32   A    
C34   C40   A    
C26   H110  S    
C107  C145  S    
N27   Ni4   S    
C15   C16   A    
C105  C147  S    
C13   H13   S    
C79   C105  A    
C28   C129  S    
N1    Ni1   S    
C92   H44   S    
N25   Ni7   S    
C151  H68   S    
C1    H1    S    
C61   C66   A    
C8    C9    A    
C96   H48   S    
C145  H61   S    
C96   C115  A    
C139  H56   S    
C57   C119  A    
C57   H36   S    
C121  C157  S    
C25   H109  S    
N20   Ni5   S    
N1    N13   A    
C74   C75   A    
C130  C148  D    
C101  C119  A    
N4    Ni8   S    
C76   C77   A    
C141  H58   S    
N9    N12   A    
C98   N21   A    
C174  H88   S    
C123  C140  D    
C111  H63   S    
C67   C69   A    
C24   N4    A    
N16   Ni3   S    
N32   Ni5   S    
C92   N15   A    
C125  C142  D    
C103  N26   A    
N5    Ni7   S    
N3    N19   A    
C45   H126  S    
C1    C104  A    
C99   N22   A    
C12   C14   A    
C87   N10   A    
C148  H65   S    
C35   C117  A    
C51   H4    S    
C172  C173  A    
C138  C156  D    
C150  H67   S    
C8    C14   A    
C88   H40   S    
C31   C32   A    
C47   H127  S    
C108  C122  A    
C11   C12   A    
C94   N17   A    
C106  C146  S    
C160  C161  A    
C91   C109  A    
C40   H122  S    
C127  C130  S    
C99   C118  A    
C84   H31   S    
C71   H20   S    
C158  C159  A    
C87   C106  A    
C126  C131  S    
C23   C25   A    
C172  H86   S    
C118  C151  S    
C89   N12   A    
C173  H87   S    
C65   H16   S    
C89   H41   S    
C124  C170  S    
C34   C130  S    
C165  C167  A    
C65   C66   A    
C169  H83   S    
C93   H45   S    
N22   Ni5   S    
C82   H29   S    
C85   H32   S    
C98   H50   S    
