data_mof_unit_64249.cif
_audit_creation_date              2012-10-26T20:59:56-0400
_audit_creation_method            fapswitch 2.2
_symmetry_space_group_name_H-M    P1
_symmetry_Int_Tables_number       1
_space_group_crystal_system       triclinic
_cell_length_a                    14.426984
_cell_length_b                    13.144778
_cell_length_c                    10.739861
_cell_angle_alpha                 89.567283
_cell_angle_beta                  90.02574
_cell_angle_gamma                 89.952135
_cell_volume                      2036.64288417

loop_
_atom_site_label
_atom_site_type_symbol
_atom_type_description
_atom_site_fract_x
_atom_site_fract_y
_atom_site_fract_z
_atom_type_partial_charge
C1    C     C_R   0.328724 0.500030 0.500035 0.547973
C2    C     C_3   0.513853 0.402979 0.962911 0.011783
C3    C     C_3   0.570393 0.560165 0.959877 -0.017891
C4    C     C_3   0.429606 0.439834 0.040122 -0.017889
C5    C     C_3   0.420412 0.534258 0.955371 0.090611
C6    C     C_3   0.579588 0.465741 0.044629 0.090621
C7    C     C_3   0.503288 0.498097 0.877914 0.012606
C8    C     C_3   0.496712 0.501903 0.122086 0.012610
C9    C     C_1   0.499999 0.173629 0.500010 0.105133
C10   C     C_1   0.500000 0.826371 0.499989 0.105132
C11   C     C_1   0.227154 0.500067 0.500006 -0.057852
C12   C     C_R   0.671276 0.499970 0.499965 0.547975
C13   C     C_1   0.772846 0.499933 0.499994 -0.057852
C14   C     C_1   0.142331 0.500047 0.499995 -0.051383
C15   C     C_1   0.857669 0.499952 0.500005 -0.051383
C16   C     C_3   0.463190 0.703527 0.085642 -0.229249
C17   C     C_3   0.456463 0.783067 0.980866 -0.293382
C18   C     C_3   0.422583 0.884876 0.030835 -0.462264
C19   C     C_3   0.536806 0.296473 0.914354 -0.229254
C20   C     C_3   0.543549 0.216934 0.019130 -0.293390
C21   C     C_3   0.577373 0.115111 0.969143 -0.462288
C22   C     C_3   0.650413 0.621708 0.903236 -0.250642
C23   C     C_1   0.042414 0.500014 0.499997 -0.008027
C24   C     C_3   0.707516 0.677747 0.001535 -0.302917
C25   C     C_3   0.782442 0.743004 0.940530 -0.451499
C26   C     C_3   0.349584 0.378296 0.096764 -0.250647
C27   C     C_3   0.292490 0.322243 0.998468 -0.302914
C28   C     C_3   0.217532 0.257028 0.059474 -0.451496
C29   C     C_1   0.957586 0.499986 0.500003 -0.008027
C30   C     C_1   0.500000 0.050682 0.500006 -0.061544
C31   C     C_1   0.500000 0.949318 0.499994 -0.061545
C32   C     C_R   0.497143 0.500563 0.256841 0.559807
C33   C     C_R   0.502856 0.499437 0.743159 0.559803
C34   C     C_3   0.486147 0.597020 0.037089 0.011777
Cu1   Cu    Cu3+1 0.500000 0.592680 0.500000 0.952477
Cu2   Cu    Cu3+1 0.500000 0.407320 0.500000 0.952479
H1    H     H_    0.284859 0.574858 0.971606 0.223801
H2    H     H_    0.395921 0.699105 0.135813 0.153438
H3    H     H_    0.517060 0.727077 0.153331 0.149229
H4    H     H_    0.529108 0.086637 0.896749 0.152344
H5    H     H_    0.647723 0.123356 0.928320 0.157443
H6    H     H_    0.580802 0.058589 0.046329 0.144034
H7    H     H_    0.592391 0.242687 0.092260 0.211339
H8    H     H_    0.474555 0.205432 0.062436 0.157844
H9    H     H_    0.482927 0.272923 0.846678 0.149234
H10   H     H_    0.604068 0.300894 0.864167 0.153433
H11   H     H_    0.830033 0.694781 0.884998 0.157727
H12   H     H_    0.312267 0.521793 0.834054 0.225995
H13   H     H_    0.750496 0.801508 0.878829 0.152134
H14   H     H_    0.823303 0.782100 0.013561 0.145740
H15   H     H_    0.662226 0.727808 0.057597 0.163089
H16   H     H_    0.741473 0.622273 0.065047 0.161881
H17   H     H_    0.696197 0.568851 0.851317 0.134757
H18   H     H_    0.621477 0.677365 0.835346 0.159282
H19   H     H_    0.249449 0.198538 0.121223 0.152142
H20   H     H_    0.169937 0.305285 0.114955 0.157722
H21   H     H_    0.176682 0.217915 0.986445 0.145739
H22   H     H_    0.258562 0.377705 0.934913 0.161887
H23   H     H_    0.715140 0.425138 0.028393 0.223797
H24   H     H_    0.337781 0.272149 0.942452 0.163082
H25   H     H_    0.378514 0.322648 0.164668 0.159279
H26   H     H_    0.303795 0.431160 0.148666 0.134759
H27   H     H_    0.687734 0.478212 0.165941 0.225997
H28   H     H_    0.352216 0.876601 0.071601 0.157442
H29   H     H_    0.470808 0.913367 0.103269 0.152347
H30   H     H_    0.419168 0.941398 0.953648 0.144026
H31   H     H_    0.525473 0.794598 0.937613 0.157822
H32   H     H_    0.407660 0.757297 0.907694 0.211346
N1    N     N_1   0.500000 0.268070 0.500000 -0.173436
N2    N     N_1   0.500000 0.731930 0.500000 -0.173437
N3    N     N_3   0.334719 0.573340 0.901131 -0.636737
N4    N     N_3   0.665281 0.426661 0.098869 -0.636740
O1    O     O_R   0.376050 0.578280 0.500000 -0.466578
O2    O     O_R   0.623950 0.421720 0.500000 -0.466577
O3    O     O_R   0.623950 0.578280 0.500000 -0.478038
O4    O     O_R   0.376050 0.421720 0.500000 -0.478040
O5    O     O_R   0.499980 0.578250 0.316850 -0.508286
O6    O     O_R   0.500020 0.421750 0.683150 -0.508285
O7    O     O_R   0.500020 0.578250 0.683150 -0.480717
O8    O     O_R   0.499980 0.421750 0.316850 -0.480713

loop_
_geom_bond_atom_site_label_1
_geom_bond_atom_site_label_2
_ccdc_geom_bond_type
C24   H16   S    
C12   O2    A    
Cu1   Cu2   S    
C1    C11   S    
C4    C8    S    
C3    C6    S    
C28   H20   S    
C19   H10   S    
C22   H18   S    
C28   H21   S    
C18   H29   S    
C6    N4    S    
C12   C13   S    
Cu1   O3    S    
C26   C27   S    
C23   C29   T    
C26   H25   S    
C9    N1    T    
C3    C7    S    
C27   H24   S    
C30   C31   T    
C11   C14   T    
C33   O6    A    
C25   H14   S    
Cu2   O4    S    
C2    C7    S    
C16   C34   S    
C32   O5    A    
C10   C31   S    
C19   C20   S    
Cu1   N2    S    
C16   C17   S    
C25   H11   S    
H23   N4    S    
C24   H15   S    
C7    C33   S    
C2    C6    S    
C20   H8    S    
C28   H19   S    
C15   C29   S    
C22   H17   S    
C17   H31   S    
C8    C32   S    
C24   C25   S    
Cu2   O8    S    
C5    C7    S    
C33   O7    A    
C6    C8    S    
C3    C34   S    
Cu1   O5    S    
C14   C23   S    
C2    C4    S    
C32   O8    A    
C5    C34   S    
C17   C18   S    
C8    C34   S    
H27   N4    S    
Cu2   O2    S    
C9    C30   S    
C21   H5    S    
C10   N2    T    
H1    N3    S    
C22   C24   S    
H12   N3    S    
C20   H7    S    
Cu2   N1    S    
Cu1   O1    S    
C17   H32   S    
C2    C19   S    
C1    O4    A    
C4    C5    S    
C27   H22   S    
C4    C26   S    
C19   H9    S    
C18   H30   S    
C1    O1    A    
C13   C15   T    
C26   H26   S    
C5    N3    S    
Cu2   O6    S    
C18   H28   S    
C21   H4    S    
Cu1   O7    S    
C25   H13   S    
C16   H3    S    
C21   H6    S    
C20   C21   S    
C12   O3    A    
C27   C28   S    
C3    C22   S    
C16   H2    S    
