data_mof_unit_7774.cif
_audit_creation_date              2012-12-11T15:55:51-0500
_audit_creation_method            fapswitch 2.2
_symmetry_space_group_name_H-M    P1
_symmetry_Int_Tables_number       1
_space_group_crystal_system       triclinic
_cell_length_a                    6.960549
_cell_length_b                    14.533825
_cell_length_c                    16.079419
_cell_angle_alpha                 89.97153
_cell_angle_beta                  90.097282
_cell_angle_gamma                 90.169097
_cell_volume                      1626.63908763

loop_
_atom_site_label
_atom_site_type_symbol
_atom_type_description
_atom_site_fract_x
_atom_site_fract_y
_atom_site_fract_z
_atom_type_partial_charge
O1    O     O_R   0.505680 0.583900 0.413320 -0.542644
O2    O     O_R   0.176010 0.594950 0.586080 -0.543796
O3    O     O_R   0.005680 0.416100 0.586680 -0.540165
C1    C     C_R   0.345285 0.617108 0.614792 0.689952
O4    O     O_R   0.175960 0.594930 0.413930 -0.545295
O5    O     O_R   0.005640 0.416080 0.413300 -0.539749
C2    C     C_R   0.345024 0.617075 0.385036 0.691684
O6    O     O_R   0.505720 0.583920 0.586700 -0.543570
O7    O     O_3   0.339190 0.441320 0.500000 -0.356011
V1    V     V_3+5 0.064350 0.510890 0.500000 1.435042
O8    O     O_R   0.675920 0.405050 0.413920 -0.522801
C3    C     C_R   0.844554 0.381348 0.386198 0.741991
O9    O     O_R   0.675960 0.405070 0.586070 -0.538024
C4    C     C_R   0.844619 0.383057 0.614824 0.711298
V2    V     V_3+5 0.564340 0.489110 0.500000 1.462495
O10   O     O_3   0.839370 0.558680 0.500000 -0.378379
C5    C     C_R   0.003110 0.249504 0.687196 0.092875
C6    C     C_R   0.852187 0.312716 0.681510 -0.102594
C7    C     C_R   0.703183 0.304704 0.740366 -0.152241
H1    H     H_    0.582258 0.351141 0.738047 0.123182
C8    C     C_R   0.715599 0.241079 0.806459 -0.125011
H2    H     H_    0.603124 0.239905 0.852799 0.141379
C9    C     C_R   0.876917 0.183382 0.815378 -0.129441
C10   C     C_R   0.014738 0.186212 0.752024 0.116438
C11   C     C_3   0.227822 0.194992 0.756855 -0.013210
C12   C     C_3   0.214832 0.264553 0.686154 -0.412503
H3    H     H_    0.275820 0.225543 0.816716 0.121090
H4    H     H_    0.280883 0.241108 0.627005 0.217823
H5    H     H_    0.253911 0.335682 0.705189 0.147186
C13   C     C_R   0.043063 0.219619 0.222334 -0.129598
H6    H     H_    0.180928 0.191756 0.206566 0.183676
C14   C     C_R   0.031482 0.289252 0.282246 -0.131427
H7    H     H_    0.161320 0.321679 0.304129 0.177750
C15   C     C_R   0.853994 0.312981 0.317089 -0.120325
C16   C     C_R   0.688459 0.270497 0.284225 0.136028
C17   C     C_R   0.699927 0.224291 0.207705 0.134107
C18   C     C_R   0.877517 0.188565 0.181408 -0.115309
C19   C     C_R   0.203801 0.691810 0.740861 -0.159554
C20   C     C_R   0.213780 0.752405 0.808588 0.148882
C21   C     C_R   0.376518 0.810422 0.819214 -0.076609
C22   C     C_R   0.529278 0.802049 0.762438 -0.116269
H8    H     H_    0.655893 0.845047 0.768486 0.156271
C23   C     C_R   0.520074 0.739266 0.696414 -0.130445
C24   C     C_R   0.355990 0.684353 0.684267 -0.081222
C25   C     C_R   0.188705 0.724002 0.281986 -0.142661
H9    H     H_    0.048422 0.705155 0.305615 0.117425
C26   C     C_R   0.199844 0.787563 0.216703 -0.128229
H10   H     H_    0.067574 0.815861 0.192232 0.121494
C27   C     C_R   0.378837 0.814260 0.183670 -0.041288
C28   C     C_R   0.546365 0.775545 0.217720 -0.136766
H11   H     H_    0.686640 0.794379 0.194071 0.120284
C29   C     C_R   0.535223 0.711972 0.282998 -0.137482
H12   H     H_    0.667486 0.683642 0.307443 0.119188
C30   C     C_R   0.356240 0.685360 0.316105 -0.046181
O11   O     O_R   0.229200 0.915950 0.913350 -0.520706
O12   O     O_R   0.559090 0.905000 0.086080 -0.545385
O13   O     O_R   0.729280 0.083880 0.086680 -0.528142
C31   C     C_R   0.390036 0.882712 0.114893 0.691256
O14   O     O_R   0.558920 0.904980 0.913920 -0.533540
O15   O     O_R   0.729110 0.083860 0.913300 -0.530338
C32   C     C_R   0.388955 0.880492 0.886913 0.754955
O16   O     O_R   0.229360 0.915970 0.086730 -0.542454
O17   O     O_3   0.395680 0.058580 0.000030 -0.355581
V3    V     V_3+5 0.670570 0.989070 0.999990 1.513490
O18   O     O_R   0.058820 0.094950 0.913870 -0.537122
C33   C     C_R   0.889822 0.117086 0.885263 0.729275
O19   O     O_R   0.058990 0.094970 0.086020 -0.540800
C34   C     C_R   0.889721 0.119065 0.113345 0.722346
V4    V     V_3+5 0.170560 0.010930 0.999930 1.514885
O20   O     O_3   0.895590 0.941310 0.999960 -0.360094
I1    I     I_    0.491140 0.258562 0.116528 -0.417517
H13   H     H_    0.078568 0.648005 0.734037 0.137984
I2    I     I_    0.983513 0.742339 0.894851 -0.408932
H14   H     H_    0.640415 0.734756 0.654004 0.132060
I3    I     I_    0.366020 0.069381 0.721887 -0.399722
I4    I     I_    0.474860 0.222603 0.367640 -0.404656

loop_
_geom_bond_atom_site_label_1
_geom_bond_atom_site_label_2
_ccdc_geom_bond_type
C31   O16   A    
C22   H8    S    
C4    C6    S    
C7    H1    S    
C1    O6    A    
C26   C27   A    
C25   H9    S    
O14   V3    S    
C5    C12   S    
C9    C33   S    
C17   C18   A    
C7    C8    A    
C6    C7    A    
O5    C3    A    
C13   H6    S    
V2    O10   S    
C18   C34   S    
C15   C16   A    
O8    V2    S    
O17   V4    S    
C28   C29   A    
C9    C10   A    
O12   V3    S    
O1    V2    S    
V3    O20   S    
O7    V1    S    
C17   I1    S    
C23   H14   S    
O15   C33   A    
O9    C4    A    
C22   C23   A    
C29   C30   A    
C28   H11   S    
C25   C26   A    
C19   H13   S    
C16   I4    S    
O14   C32   A    
C5    C10   A    
O19   C34   A    
C10   C11   S    
C20   C21   A    
O4    C2    A    
C1    C24   S    
C11   C12   S    
C27   C31   S    
O16   V4    S    
C11   I3    S    
C16   C17   A    
C14   C15   A    
O2    C1    A    
C23   C24   A    
C19   C24   A    
C26   H10   S    
C5    C6    A    
O11   V4    S    
O3    C4    A    
C21   C22   A    
C25   C30   A    
O18   C33   A    
O6    V2    S    
O9    V2    S    
O13   C34   A    
C3    C15   S    
O2    V1    S    
C29   H12   S    
O13   V3    S    
O1    C2    A    
O5    V1    S    
O8    C3    A    
C11   H3    S    
C12   H4    S    
O15   V3    S    
C14   H7    S    
C8    C9    A    
O7    V2    S    
O4    V1    S    
O3    V1    S    
V1    O10   S    
C13   C14   A    
C19   C20   A    
O18   V4    S    
O11   C32   A    
O12   C31   A    
C20   I2    S    
V4    O20   S    
C21   C32   S    
O17   V3    S    
C13   C18   A    
C12   H5    S    
C27   C28   A    
C2    C30   S    
O19   V4    S    
C8    H2    S    
