data_mof_unit_59705.cif
_audit_creation_date              2012-12-11T15:25:36-0500
_audit_creation_method            fapswitch 2.2
_symmetry_space_group_name_H-M    P1
_symmetry_Int_Tables_number       1
_space_group_crystal_system       triclinic
_cell_length_a                    24.408962
_cell_length_b                    17.200315
_cell_length_c                    15.637105
_cell_angle_alpha                 90.534189
_cell_angle_beta                  51.577188
_cell_angle_gamma                 90.014234
_cell_volume                      5143.05802077

loop_
_atom_site_label
_atom_site_type_symbol
_atom_type_description
_atom_site_fract_x
_atom_site_fract_y
_atom_site_fract_z
_atom_type_partial_charge
C1    C     C_R   0.339304 0.123741 0.788405 -0.206230
C2    C     C_R   0.663837 0.884278 0.204751 -0.180807
C3    C     C_R   0.667398 0.101497 0.198327 -0.180625
C4    C     C_R   0.333614 0.895196 0.800965 -0.232791
C5    C     C_R   0.839304 0.623742 0.788405 -0.206226
C6    C     C_R   0.163837 0.384278 0.204751 -0.180804
C7    C     C_R   0.167398 0.601497 0.198327 -0.180624
C8    C     C_R   0.833614 0.395195 0.800965 -0.232789
C9    C     C_2   0.689517 0.168534 0.039692 0.550179
C10   C     C_2   0.314879 0.824016 0.954783 0.561030
C11   C     C_2   0.340675 0.235235 0.893744 0.528769
C12   C     C_2   0.687072 0.830323 0.031740 0.518400
C13   C     C_2   0.189516 0.668534 0.039693 0.550178
C14   C     C_2   0.814880 0.324016 0.954783 0.561028
C15   C     C_2   0.840675 0.735236 0.893742 0.528769
C16   C     C_2   0.187072 0.330323 0.031741 0.518402
C17   C     C_2   0.723954 0.226566 0.044401 -0.132691
C18   C     C_2   0.281062 0.765815 0.948869 -0.170078
C19   C     C_2   0.302069 0.282784 0.881929 -0.273153
C20   C     C_2   0.756443 0.841163 0.965017 -0.155735
C21   C     C_2   0.223952 0.726567 0.044401 -0.132694
C22   C     C_2   0.781063 0.265813 0.948868 -0.170077
C23   C     C_2   0.802069 0.782784 0.881928 -0.273153
C24   C     C_2   0.256443 0.341162 0.965017 -0.155736
C25   C     C_R   0.617401 0.100591 0.589370 -0.055967
C26   C     C_R   0.413583 0.853826 0.408063 -0.061049
C27   C     C_R   0.412895 0.145672 0.409360 -0.057735
C28   C     C_R   0.615989 0.897788 0.590799 -0.082213
C29   C     C_R   0.117401 0.600591 0.589371 -0.055967
C30   C     C_R   0.913583 0.353826 0.408063 -0.061049
C31   C     C_R   0.912895 0.645672 0.409361 -0.057735
C32   C     C_R   0.115989 0.397788 0.590799 -0.082213
C33   C     C_R   0.687737 0.105662 0.409227 -0.109527
C34   C     C_R   0.341214 0.853815 0.589532 -0.094535
C35   C     C_R   0.338843 0.145515 0.590363 -0.035763
C36   C     C_R   0.689216 0.900742 0.410647 -0.021414
C37   C     C_R   0.187738 0.605662 0.409227 -0.109527
C38   C     C_R   0.841214 0.353815 0.589531 -0.094535
C39   C     C_R   0.838843 0.645515 0.590364 -0.035765
C40   C     C_R   0.189216 0.400742 0.410647 -0.021414
C41   C     C_R   0.576829 0.106172 0.197934 0.449393
C42   C     C_R   0.425025 0.891042 0.799248 0.488186
C43   C     C_R   0.433106 0.129074 0.780476 0.551100
C44   C     C_R   0.575451 0.890949 0.199600 0.491072
C45   C     C_R   0.076829 0.606172 0.197934 0.449391
C46   C     C_R   0.925025 0.391042 0.799248 0.488184
C47   C     C_R   0.933107 0.629074 0.780475 0.551102
C48   C     C_R   0.075451 0.390948 0.199600 0.491071
C49   C     C_R   0.368657 0.163330 0.828368 -0.205324
C50   C     C_R   0.643600 0.864980 0.141715 -0.144195
C51   C     C_R   0.646607 0.123559 0.138074 -0.138588
C52   C     C_R   0.355774 0.871668 0.858946 -0.117989
C53   C     C_R   0.868657 0.663331 0.828367 -0.205326
C54   C     C_R   0.143600 0.364980 0.141715 -0.144197
C55   C     C_R   0.146606 0.623560 0.138074 -0.138589
C56   C     C_R   0.855774 0.371667 0.858946 -0.117990
C57   C     C_R   0.684413 0.119044 0.499192 0.023926
C58   C     C_R   0.365141 0.809234 0.498198 0.020997
C59   C     C_R   0.362982 0.189967 0.500036 -0.031578
C60   C     C_R   0.684549 0.884253 0.500905 0.010371
C61   C     C_R   0.184413 0.619044 0.499192 0.023926
C62   C     C_R   0.865141 0.309234 0.498197 0.020998
C63   C     C_R   0.862982 0.689966 0.500036 -0.031576
C64   C     C_R   0.184549 0.384253 0.500905 0.010371
C65   C     C_R   0.275428 0.296783 0.599024 -0.117932
C66   C     C_R   0.807684 0.842260 0.401782 -0.106364
C67   C     C_R   0.808339 0.157858 0.399488 -0.118786
C68   C     C_R   0.276864 0.704993 0.596668 -0.100205
C69   C     C_R   0.775428 0.796783 0.599024 -0.117932
C70   C     C_R   0.307684 0.342260 0.401782 -0.106365
C71   C     C_R   0.308339 0.657856 0.399489 -0.118785
C72   C     C_R   0.776865 0.204991 0.596666 -0.100207
C73   C     C_R   0.729726 0.844881 0.599365 -0.107192
C74   C     C_R   0.353259 0.294181 0.401523 -0.108046
C75   C     C_R   0.354810 0.704365 0.399192 -0.109278
C76   C     C_R   0.730077 0.159101 0.597078 -0.108462
C77   C     C_R   0.229727 0.344882 0.599365 -0.107192
C78   C     C_R   0.853259 0.794181 0.401523 -0.108046
C79   C     C_R   0.854810 0.204367 0.399190 -0.109278
C80   C     C_R   0.230076 0.659103 0.597080 -0.108461
C81   C     C_R   0.742347 0.861165 0.500799 0.084770
C82   C     C_R   0.333333 0.264161 0.500191 0.107998
C83   C     C_R   0.335367 0.735306 0.497869 0.095735
C84   C     C_R   0.742501 0.141899 0.498523 0.083236
C85   C     C_R   0.242347 0.361165 0.500799 0.084770
C86   C     C_R   0.833333 0.764160 0.500192 0.107997
C87   C     C_R   0.835368 0.235305 0.497867 0.095735
C88   C     C_R   0.242500 0.641898 0.498524 0.083235
H1    H     H_    0.602667 0.088068 0.668350 0.168206
H2    H     H_    0.442485 0.836548 0.324280 0.154910
H3    H     H_    0.442522 0.163071 0.326270 0.154243
H4    H     H_    0.597548 0.903581 0.673224 0.172005
H5    H     H_    0.102666 0.588067 0.668350 0.168206
H6    H     H_    0.942485 0.336549 0.324280 0.154909
H7    H     H_    0.942522 0.663071 0.326270 0.154243
H8    H     H_    0.097548 0.403581 0.673224 0.172005
H9    H     H_    0.734227 0.105652 0.325721 0.097067
H10   H     H_    0.304604 0.835628 0.672464 0.075907
H11   H     H_    0.299498 0.163382 0.672985 0.138651
H12   H     H_    0.737081 0.911905 0.330445 0.074855
H13   H     H_    0.234227 0.605652 0.325721 0.097068
H14   H     H_    0.804603 0.335628 0.672463 0.075907
H15   H     H_    0.799497 0.663381 0.672985 0.138650
H16   H     H_    0.237081 0.411905 0.330445 0.074855
H17   H     H_    0.261043 0.279522 0.676840 0.138417
H18   H     H_    0.821168 0.857219 0.323842 0.143129
H19   H     H_    0.821942 0.141202 0.321606 0.136471
H20   H     H_    0.262602 0.722992 0.674572 0.153602
H21   H     H_    0.761043 0.779522 0.676840 0.138417
H22   H     H_    0.321168 0.357218 0.323842 0.143130
H23   H     H_    0.321943 0.641199 0.321608 0.136471
H24   H     H_    0.762606 0.222988 0.674570 0.153604
H25   H     H_    0.681797 0.862470 0.677363 0.158824
H26   H     H_    0.399994 0.274553 0.323464 0.146252
H27   H     H_    0.402020 0.722152 0.321258 0.151129
H28   H     H_    0.681586 0.144150 0.675184 0.166848
H29   H     H_    0.181797 0.362470 0.677363 0.158824
H30   H     H_    0.899993 0.774553 0.323464 0.146252
H31   H     H_    0.902020 0.222155 0.321256 0.151129
H32   H     H_    0.181583 0.644154 0.675185 0.166848
H33   H     H_    0.293018 0.751147 0.870988 0.151032
H34   H     H_    0.711486 0.242280 0.122348 0.163776
H35   H     H_    0.780088 0.883267 0.984981 0.142461
H36   H     H_    0.294071 0.269478 0.822324 0.147473
H37   H     H_    0.793020 0.251145 0.870987 0.151032
H38   H     H_    0.211484 0.742282 0.122349 0.163777
H39   H     H_    0.280087 0.383266 0.984981 0.142459
H40   H     H_    0.794070 0.769478 0.822323 0.147472
N1    N     N_R   0.388930 0.078160 0.705470 -0.067279
N2    N     N_R   0.611070 0.921840 0.294530 -0.087534
N3    N     N_R   0.611070 0.078160 0.294530 -0.096005
N4    N     N_R   0.388930 0.921840 0.705470 -0.089707
N5    N     N_R   0.888930 0.578160 0.705470 -0.067279
N6    N     N_R   0.111070 0.421840 0.294530 -0.087535
N7    N     N_R   0.111070 0.578160 0.294530 -0.096005
N8    N     N_R   0.888930 0.421840 0.705470 -0.089707
N9    N     N_R   0.580500 0.077840 0.556650 -0.055159
N10   N     N_R   0.419500 0.922160 0.443350 -0.040327
N11   N     N_R   0.419500 0.077840 0.443350 -0.042821
N12   N     N_R   0.580500 0.922160 0.556650 -0.051196
N13   N     N_R   0.080500 0.577840 0.556650 -0.055159
N14   N     N_R   0.919500 0.422160 0.443350 -0.040327
N15   N     N_R   0.919500 0.577840 0.443350 -0.042821
N16   N     N_R   0.080500 0.422160 0.556650 -0.051197
N17   N     N_R   0.626210 0.077590 0.443410 -0.057333
N18   N     N_R   0.373790 0.922410 0.556590 -0.048721
N19   N     N_R   0.373790 0.077590 0.556590 -0.038596
N20   N     N_R   0.626210 0.922410 0.443410 -0.055992
N21   N     N_R   0.126210 0.577590 0.443410 -0.057333
N22   N     N_R   0.873790 0.422410 0.556590 -0.048721
N23   N     N_R   0.873790 0.577590 0.556590 -0.038596
N24   N     N_R   0.126210 0.422410 0.443410 -0.055992
N25   N     N_R   0.554800 0.077270 0.294580 -0.105450
N26   N     N_R   0.445200 0.922730 0.705420 -0.098559
N27   N     N_R   0.445200 0.077270 0.705420 -0.106818
N28   N     N_R   0.554800 0.922730 0.294580 -0.105155
N29   N     N_R   0.054800 0.577270 0.294580 -0.105449
N30   N     N_R   0.945200 0.422730 0.705420 -0.098559
N31   N     N_R   0.945200 0.577270 0.705420 -0.106818
N32   N     N_R   0.054800 0.422730 0.294580 -0.105155
Ni1   Ni    Ni4+2 0.382710 1.000000 0.629850 0.262634
Ni2   Ni    Ni4+2 0.617290 1.000000 0.370150 0.190915
Ni3   Ni    Ni4+2 0.882710 0.500000 0.629850 0.262634
Ni4   Ni    Ni4+2 0.117290 0.500000 0.370150 0.190914
Ni5   Ni    Ni4+2 0.513020 1.000000 0.629850 0.280329
Ni6   Ni    Ni4+2 0.486980 1.000000 0.370150 0.318004
Ni7   Ni    Ni4+2 0.013020 0.500000 0.629850 0.280329
Ni8   Ni    Ni4+2 0.986980 0.500000 0.370150 0.318004
C89   C     C_2   0.263319 0.111366 0.852743 0.573313
H41   H     H_    0.227945 0.135102 0.934759 0.107526
O1    O     O_2   0.239494 0.072949 0.816994 -0.587167
C90   C     C_2   0.728429 0.861585 0.185094 0.596623
H42   H     H_    0.772367 0.900978 0.145424 0.004744
O2    O     O_2   0.732498 0.798008 0.214836 -0.487673
C91   C     C_2   0.738666 0.075479 0.152486 0.602308
H43   H     H_    0.745708 0.036027 0.198448 -0.057644
O3    O     O_2   0.789785 0.094334 0.061471 -0.549642
C92   C     C_2   0.260353 0.910613 0.846307 0.620694
H44   H     H_    0.248835 0.931016 0.793742 0.070629
O4    O     O_2   0.212075 0.902945 0.943350 -0.538032
C93   C     C_2   0.763319 0.611367 0.852743 0.573307
H45   H     H_    0.727946 0.635104 0.934758 0.107526
O5    O     O_2   0.739494 0.572948 0.816995 -0.587167
C94   C     C_2   0.228430 0.361586 0.185094 0.596622
H46   H     H_    0.272367 0.400979 0.145424 0.004741
O6    O     O_2   0.232498 0.298009 0.214836 -0.487672
C95   C     C_2   0.238666 0.575480 0.152486 0.602314
H47   H     H_    0.245708 0.536028 0.198448 -0.057646
O7    O     O_2   0.289785 0.594337 0.061472 -0.549640
C96   C     C_2   0.760353 0.410611 0.846306 0.620700
H48   H     H_    0.748835 0.431016 0.793741 0.070629
O8    O     O_2   0.712075 0.402940 0.943349 -0.538032
Cl1   Cl    Cl    0.533169 0.097672 0.141710 -0.478860
Cl2   Cl    Cl    0.470031 0.897982 0.852892 -0.517744
Cl3   Cl    Cl    0.480442 0.135808 0.830211 -0.511694
Cl4   Cl    Cl    0.533358 0.907423 0.142151 -0.469963
Cl5   Cl    Cl    0.033169 0.597673 0.141710 -0.478861
Cl6   Cl    Cl    0.970031 0.397982 0.852892 -0.517745
Cl7   Cl    Cl    0.980443 0.635810 0.830210 -0.511696
Cl8   Cl    Cl    0.033359 0.407423 0.142150 -0.469963
Cl9   Cl    Cl    0.303921 0.850916 0.073927 -0.487643
Cl10  Cl    Cl    0.701174 0.139638 0.920601 -0.557517
Cl11  Cl    Cl    0.646896 0.766593 0.996457 -0.582459
Cl12  Cl    Cl    0.358348 0.257511 0.984741 -0.491192
Cl13  Cl    Cl    0.803920 0.350917 0.073927 -0.487645
Cl14  Cl    Cl    0.201175 0.639637 0.920601 -0.557518
Cl15  Cl    Cl    0.146896 0.266592 0.996458 -0.582458
Cl16  Cl    Cl    0.858348 0.757512 0.984739 -0.491194

loop_
_geom_bond_atom_site_label_1
_geom_bond_atom_site_label_2
_ccdc_geom_bond_type
C68   C80   A    
N6    N32   A    
C72   H24   S    
C96   H48   S    
N7    N29   A    
N25   Ni6   S    
C8    N8    A    
C18   C21   S    
C89   H41   S    
C14   C56   S    
C9    C51   S    
C59   C82   S    
C7    C55   A    
N14   N22   A    
C72   C76   A    
C16   Cl15  S    
C10   C52   S    
N12   N20   A    
C76   C84   A    
N9    Ni5   S    
C92   H44   S    
N13   N21   A    
C4    N4    A    
C47   N31   A    
C93   H45   S    
C5    N5    A    
N22   Ni3   S    
C48   N32   A    
C11   C19   D    
C48   Cl8   S    
C3    N3    A    
C15   C53   S    
C35   C59   A    
C42   N26   A    
C6    C54   A    
C1    N1    A    
C95   O7    D    
C43   N27   A    
C46   Cl6   S    
N17   Ni2   S    
C45   Cl5   S    
C46   N30   A    
C39   N23   A    
C73   H25   S    
C94   H46   S    
C40   N24   A    
C43   Cl3   S    
N7    Ni4   S    
C12   Cl11  S    
C5    C93   S    
C42   Cl2   S    
N4    Ni1   S    
C20   H35   S    
C41   Cl1   S    
C28   N12   A    
C70   H22   S    
C34   H10   S    
C69   H21   S    
C36   N20   A    
C94   O6    D    
C79   H31   S    
C70   C74   A    
C24   H39   S    
N4    N26   A    
N26   Ni5   S    
C27   H3    S    
C2    C50   A    
C15   Cl16  S    
C47   C53   A    
N8    N30   A    
N2    Ni2   S    
C15   C23   D    
C77   C85   A    
C67   C84   A    
C16   C24   D    
C71   C75   A    
N15   N23   A    
C8    C56   A    
C89   O1    D    
C47   Cl7   S    
C25   C57   A    
C66   H18   S    
C35   H11   S    
N5    Ni3   S    
N29   Ni8   S    
C79   C87   A    
N27   Ni5   S    
C29   H5    S    
C90   O2    D    
N30   Ni7   S    
C41   N25   A    
C28   C60   A    
C66   C78   A    
N18   Ni1   S    
C29   C61   A    
C19   H36   S    
N13   Ni7   S    
C44   Cl4   S    
N16   Ni7   S    
C13   C21   D    
C44   N28   A    
C31   C63   A    
N3    N25   A    
C67   C79   A    
C32   C64   A    
C91   O3    D    
N19   Ni1   S    
C93   O5    D    
C8    C96   S    
N1    N27   A    
C3    C51   A    
C43   C49   A    
C22   H37   S    
N3    Ni2   S    
C26   N10   A    
C27   N11   A    
C25   N9    A    
C6    C94   S    
N5    N31   A    
C42   C52   A    
N11   Ni6   S    
C48   C54   A    
C7    N7    A    
C11   C49   S    
C61   C88   S    
C40   H16   S    
C65   C77   A    
C60   C81   S    
C12   C50   S    
C91   H43   S    
C2    N2    A    
C20   C23   S    
N28   Ni6   S    
C3    C91   S    
C29   N13   A    
C12   C20   D    
C57   C84   S    
N1    Ni1   S    
C28   H4    S    
N21   Ni4   S    
C35   N19   A    
C69   C73   A    
C26   C58   A    
N24   Ni4   S    
C33   N17   A    
C36   H12   S    
C73   C81   A    
N11   N19   A    
C67   H19   S    
C9    C17   D    
C32   H8    S    
C41   C51   A    
C4    C52   A    
C7    C95   S    
N23   Ni3   S    
C30   C62   A    
C63   C86   S    
C80   H32   S    
C45   N29   A    
C75   H27   S    
C64   C85   S    
C75   C83   A    
C72   C87   A    
C90   H42   S    
C74   C82   A    
N9    N17   A    
N12   Ni5   S    
C96   O8    D    
C37   C61   A    
C78   H30   S    
C68   C83   A    
C25   H1    S    
C38   H14   S    
C4    C92   S    
C36   C60   A    
C40   C64   A    
C92   O4    D    
C65   H17   S    
C39   H15   S    
C33   C57   A    
C26   H2    S    
C39   C63   A    
C62   C87   S    
C77   H29   S    
C17   C22   S    
C30   N14   A    
N10   Ni6   S    
N10   N18   A    
N20   Ni2   S    
N31   Ni7   S    
C14   C22   D    
C19   C24   S    
C5    C53   A    
C37   N21   A    
C95   H47   S    
C80   C88   A    
C27   C59   A    
C58   C83   S    
C66   C81   A    
C37   H13   S    
C34   N18   A    
C78   C86   A    
C65   C82   A    
C10   C18   D    
C31   H7    S    
C1    C89   S    
C76   H28   S    
N6    Ni4   S    
C33   H9    S    
C11   Cl12  S    
N32   Ni8   S    
C31   N15   A    
C10   Cl9   S    
C16   C54   S    
N15   Ni8   S    
C32   N16   A    
C9    Cl10  S    
C18   H33   S    
N14   Ni8   S    
C71   C88   A    
C17   H34   S    
C6    N6    A    
C71   H23   S    
C45   C55   A    
C44   C50   A    
C30   H6    S    
C14   Cl13  S    
C46   C56   A    
C34   C58   A    
C13   Cl14  S    
N2    N28   A    
C68   H20   S    
C13   C55   S    
C21   H38   S    
C70   C85   A    
C1    C49   A    
C38   N22   A    
C69   C86   A    
N16   N24   A    
C2    C90   S    
C23   H40   S    
C38   C62   A    
N8    Ni3   S    
C74   H26   S    
