data_mof_unit_36192.cif
_audit_creation_date              2012-12-10T19:01:22-0500
_audit_creation_method            fapswitch 2.2
_symmetry_space_group_name_H-M    P1
_symmetry_Int_Tables_number       1
_space_group_crystal_system       triclinic
_cell_length_a                    9.604495
_cell_length_b                    10.799549
_cell_length_c                    15.65848
_cell_angle_alpha                 88.672932
_cell_angle_beta                  73.454893
_cell_angle_gamma                 89.592696
_cell_volume                      1556.49859285

loop_
_atom_site_label
_atom_site_type_symbol
_atom_type_description
_atom_site_fract_x
_atom_site_fract_y
_atom_site_fract_z
_atom_type_partial_charge
C1    C     C_R   0.999359 0.262534 0.502269 0.787121
C2    C     C_R   0.674674 0.468659 0.907689 0.091766
C3    C     C_R   0.774777 0.500066 0.955169 0.166664
C4    C     C_R   0.526372 0.444031 0.955181 0.068194
C5    C     C_R   0.481049 0.453728 0.049713 0.070947
C6    C     C_R   0.586943 0.479261 0.093890 -0.205910
C7    C     C_R   0.729565 0.504222 0.047424 -0.229327
C8    C     C_R   0.421260 0.412400 0.911607 -0.215808
C9    C     C_R   0.275353 0.399886 0.958125 -0.233449
C10   C     C_R   0.228200 0.418826 0.049467 0.166379
C11   C     C_R   0.330477 0.442911 0.096525 0.094862
C12   C     C_R   0.917372 0.499144 0.671625 0.777006
C13   C     C_R   0.079196 0.414545 0.094453 -0.205587
C14   C     C_R   0.029414 0.442670 0.184665 -0.172224
C15   C     C_R   0.277446 0.459618 0.188779 -0.247044
C16   C     C_R   0.126706 0.063406 0.494118 0.107985
C17   C     C_R   0.996805 0.129226 0.511936 -0.080957
C18   C     C_R   0.865114 0.064444 0.544480 -0.211025
C19   C     C_R   0.865352 0.934978 0.546042 -0.149423
C20   C     C_R   0.996417 0.870457 0.512774 -0.070922
C21   C     C_R   0.126557 0.936186 0.494450 0.087072
C22   C     C_3   0.259037 0.931322 0.416586 -0.412129
C23   C     C_R   0.998669 0.737426 0.502912 0.841868
C24   C     C_3   0.258546 0.071924 0.415810 -0.430119
C25   C     C_R   0.608250 0.514185 0.422234 0.132821
C26   C     C_R   0.538957 0.475647 0.575851 -0.027418
C27   C     C_R   0.390778 0.476412 0.575966 -0.053970
C28   C     C_R   0.462000 0.510720 0.422252 0.158089
C29   C     C_3   0.480857 0.611448 0.353973 -0.493510
C30   C     C_3   0.640129 0.615825 0.351110 0.281997
C31   C     C_R   0.082450 0.492008 0.328565 0.815927
C32   C     C_R   0.870656 0.497041 0.769240 -0.039719
C33   C     C_R   0.129064 0.467521 0.232198 -0.047300
C34   C     C_R   0.919733 0.528147 0.909934 -0.208348
C35   C     C_R   0.967674 0.525902 0.817549 -0.197270
C36   C     C_R   0.726130 0.467839 0.814136 -0.244969
Cu1   Cu    Cu3+1 0.140670 0.499980 0.500000 0.950762
Cu2   Cu    Cu3+1 0.859330 0.500020 0.500000 1.005092
H1    H     H_    0.804534 0.528859 0.084444 0.145926
H2    H     H_    0.001352 0.390907 0.059348 0.138399
H3    H     H_    0.762523 0.113214 0.565846 0.159183
H4    H     H_    0.763713 0.886106 0.570767 0.190070
H5    H     H_    0.352712 0.891349 0.435837 0.225188
H6    H     H_    0.237831 0.891198 0.356713 0.209460
H7    H     H_    0.352843 0.111974 0.433381 0.205735
H8    H     H_    0.235513 0.114200 0.355803 0.201051
H9    H     H_    0.564115 0.456681 0.637774 0.118609
H10   H     H_    0.307889 0.458645 0.637974 0.128152
H11   H     H_    0.466147 0.581960 0.290659 0.145037
H12   H     H_    0.349406 0.464991 0.229021 0.144479
H13   H     H_    0.414981 0.693770 0.381298 0.236351
H14   H     H_    0.712950 0.584383 0.286602 0.058630
H15   H     H_    0.913847 0.441674 0.217469 0.141429
H16   H     H_    0.198313 0.378142 0.921756 0.146669
H17   H     H_    0.995822 0.553473 0.946032 0.143625
H18   H     H_    0.079771 0.549023 0.783959 0.152194
H19   H     H_    0.655978 0.446014 0.774078 0.137897
H20   H     H_    0.564493 0.481906 0.164804 0.128598
H21   H     H_    0.447099 0.397388 0.841137 0.132729
N1    N     N_R   0.648210 0.500930 0.499430 -0.154866
N2    N     N_R   0.352300 0.500890 0.499430 -0.165750
O1    O     O_R   0.118810 0.319640 0.500000 -0.580597
O2    O     O_R   0.881230 0.319680 0.499990 -0.589948
O3    O     O_R   0.055580 0.499970 0.629840 -0.597418
O4    O     O_R   0.818000 0.500010 0.629830 -0.600926
O5    O     O_R   0.118770 0.680320 0.500010 -0.590376
O6    O     O_R   0.881190 0.680360 0.500000 -0.487290
O7    O     O_R   0.182000 0.499990 0.370170 -0.589107
O8    O     O_R   0.944420 0.500030 0.370160 -0.575895
S1    S     S_3+6 0.685027 0.766714 0.379657 0.011260
O9    O     O_2   0.846982 0.781818 0.354559 -0.270383
O10   O     O_2   0.625458 0.861695 0.327590 -0.320449
O11   O     O_3   0.609972 0.787158 0.489314 -0.550926
H22   H     H_    0.572773 0.873249 0.494502 0.345133

loop_
_geom_bond_atom_site_label_1
_geom_bond_atom_site_label_2
_ccdc_geom_bond_type
C27   H10   S    
C8    C9    A    
C16   C21   A    
O11   H22   S    
C6    H20   S    
C19   C20   A    
C4    C8    A    
C1    O1    A    
C14   C33   A    
Cu1   O1    S    
C29   H11   S    
C25   C28   A    
C26   C27   A    
C29   C30   S    
C24   H7    S    
C32   C36   A    
C23   O5    A    
C28   C29   S    
C5    C11   A    
C3    C7    A    
C8    H21   S    
C5    C6    A    
C12   O3    A    
Cu1   O7    S    
C34   C35   A    
C15   H12   S    
C23   O6    A    
C13   H2    S    
C27   N2    A    
C11   C15   A    
C22   H6    S    
C16   C17   A    
C31   C33   S    
S1    O9    D    
C25   N1    A    
C9    C10   A    
C19   H4    S    
C28   N2    A    
Cu2   O8    S    
C34   H17   S    
C16   C24   S    
C13   C14   A    
C12   C32   S    
C1    O2    A    
C30   S1    S    
C31   O7    A    
C32   C35   A    
C36   H19   S    
C18   H3    S    
C18   C19   A    
C3    C34   A    
C20   C23   S    
C2    C4    A    
Cu1   Cu2   S    
C22   H5    S    
Cu2   O4    S    
Cu1   O5    S    
S1    O11   S    
C17   C18   A    
Cu2   O6    S    
C26   H9    S    
Cu2   N1    S    
C22   C24   S    
Cu1   O3    S    
Cu2   O2    S    
C29   H13   S    
C2    C36   A    
C25   C30   S    
C30   H14   S    
C35   H18   S    
C4    C5    A    
C10   C13   A    
Cu1   N2    S    
C6    C7    A    
C12   O4    A    
C1    C17   S    
C24   H8    S    
C2    C3    A    
C10   C11   A    
C31   O8    A    
C14   H15   S    
C20   C21   A    
C7    H1    S    
S1    O10   D    
C9    H16   S    
C21   C22   S    
C26   N1    A    
C15   C33   A    
