data_mof_unit_29943.cif
_audit_creation_date              2013-03-05T15:49:32-0500
_audit_creation_method            fapswitch 2.2
_symmetry_space_group_name_H-M    P1
_symmetry_Int_Tables_number       1
_space_group_crystal_system       triclinic
_cell_length_a                    19.325688
_cell_length_b                    12.944256
_cell_length_c                    11.745077
_cell_angle_alpha                 100.651798
_cell_angle_beta                  94.673509
_cell_angle_gamma                 90.74667
_cell_volume                      2876.69734489

loop_
_atom_site_label
_atom_site_type_symbol
_atom_site_description
_atom_site_fract_x
_atom_site_fract_y
_atom_site_fract_z
_atom_type_partial_charge
O1    O     O_R   0.503640 0.354460 0.582000 -0.593726
O2    O     O_R   0.496360 0.645540 0.418000 -0.593776
O3    O     O_R   0.494980 0.341410 0.386200 -0.511085
O4    O     O_R   0.505020 0.658590 0.613800 -0.503795
C1    C     C_R   0.502645 0.299245 0.477815 0.886007
C2    C     C_R   0.497384 0.700763 0.522191 0.882599
O5    O     O_R   0.404470 0.506520 0.597930 -0.578253
O6    O     O_R   0.595530 0.493480 0.402070 -0.576236
O7    O     O_R   0.395820 0.493460 0.402130 -0.495430
O8    O     O_R   0.604180 0.506540 0.597870 -0.502206
C3    C     C_R   0.367582 0.501248 0.499575 0.856149
C4    C     C_R   0.632447 0.499044 0.500494 0.846298
Cu1   Cu    Cu3+1 0.505120 0.507730 0.615930 1.105118
Cu2   Cu    Cu3+1 0.494880 0.492270 0.384070 1.107442
C5    C     C_R   0.258730 0.421311 0.549574 -0.064494
C6    C     C_R   0.741290 0.577559 0.448178 -0.088192
C7    C     C_R   0.185169 0.414658 0.546417 -0.023952
C8    C     C_R   0.814857 0.585158 0.452614 -0.022134
C9    C     C_R   0.145644 0.487843 0.495058 -0.026054
C10   C     C_R   0.854563 0.514403 0.507572 -0.028016
C11   C     C_R   0.178432 0.561898 0.443423 -0.213944
C12   C     C_R   0.821826 0.442365 0.562074 -0.203715
H1    H     H_    0.147123 0.617534 0.404840 0.159117
H2    H     H_    0.853165 0.388500 0.603443 0.155071
C13   C     C_R   0.250476 0.568797 0.444150 -0.019842
C14   C     C_R   0.749747 0.434800 0.560317 0.018889
C15   C     C_R   0.291304 0.497980 0.497957 -0.093702
C16   C     C_R   0.708775 0.502749 0.502479 -0.100683
N1    N     N_R   0.029398 0.510199 0.403526 -0.204103
N2    N     N_R   0.970892 0.491970 0.599272 -0.200279
N3    N     N_R   0.961023 0.517919 0.406915 -0.207778
N4    N     N_R   0.039276 0.484183 0.595870 -0.204601
C17   C     C_R   0.930583 0.509733 0.505106 0.388367
C18   C     C_R   0.069691 0.492494 0.497696 0.388835
C19   C     C_R   0.492035 0.814503 0.535321 -0.122221
C20   C     C_R   0.507957 0.185509 0.464685 -0.143805
C21   C     C_R   0.551150 0.016665 0.377379 -0.178496
C22   C     C_R   0.448711 0.983307 0.622463 -0.196411
C23   C     C_R   0.547129 0.124814 0.380524 0.423007
C24   C     C_R   0.452956 0.875219 0.619632 0.377975
C25   C     C_R   0.475423 0.137495 0.544338 -0.225000
C26   C     C_R   0.524397 0.862473 0.455456 -0.225736
C27   C     C_R   0.480949 0.030352 0.541975 0.103963
C28   C     C_R   0.518850 0.969602 0.457790 0.082618
H3    H     H_    0.554002 0.815895 0.390764 0.187015
H4    H     H_    0.445777 0.184071 0.608970 0.190031
H5    H     H_    0.580584 0.968960 0.313607 0.225584
H6    H     H_    0.419251 0.031035 0.686147 0.206727
N5    N     N_R   0.512830 0.519350 0.790130 -0.266466
N6    N     N_R   0.487170 0.480650 0.209870 -0.263674
C29   C     C_R   0.460580 0.373786 0.016835 0.299000
C30   C     C_R   0.539614 0.626222 0.983054 0.300354
C31   C     C_R   0.449957 0.397568 0.137186 0.534695
C32   C     C_R   0.550460 0.601993 0.862800 0.533404
C33   C     C_R   0.518100 0.554445 0.159661 0.094120
C34   C     C_R   0.481585 0.445899 0.840367 0.093529
C35   C     C_R   0.513741 0.546551 0.036212 -0.174424
C36   C     C_R   0.486074 0.453748 0.963798 -0.172696
H7    H     H_    0.453875 0.380592 0.783881 0.204355
H8    H     H_    0.545562 0.619944 0.216194 0.202014
C37   C     C_2   0.302533 0.344614 0.599263 0.487008
H9    H     H_    0.336006 0.294314 0.544651 0.020668
O9    O     O_2   0.304991 0.342631 0.702942 -0.424299
C38   C     C_2   0.697435 0.651483 0.394008 0.494067
H10   H     H_    0.663463 0.703170 0.446049 -0.003889
O10   O     O_2   0.695576 0.649593 0.289581 -0.419528
S1    S     S_3+6 0.450020 0.242404 0.936772 0.055432
O11   O     O_2   0.385470 0.232542 0.854718 -0.222753
O12   O     O_2   0.511676 0.217140 0.867289 -0.314782
O13   O     O_3   0.444046 0.155504 0.026107 -0.432422
H11   H     H_    0.463256 0.089678 0.984978 0.370905
S2    S     S_3+6 0.551314 0.757503 0.063011 0.069419
O14   O     O_2   0.489513 0.784948 0.131456 -0.291971
O15   O     O_2   0.615461 0.765547 0.145812 -0.231109
O16   O     O_3   0.559060 0.844023 0.973808 -0.435491
H12   H     H_    0.561649 0.914018 0.025396 0.388009
C39   C     C_2   0.148165 0.326550 0.584532 0.439180
H13   H     H_    0.097274 0.299366 0.543128 0.074463
O17   O     O_2   0.172588 0.284546 0.662922 -0.437502
C40   C     C_2   0.851548 0.672209 0.412078 0.434270
H14   H     H_    0.901794 0.701668 0.454452 0.076362
O18   O     O_2   0.827611 0.710753 0.330682 -0.438261
C41   C     C_2   0.279022 0.653796 0.389818 0.503479
H15   H     H_    0.244178 0.695269 0.337773 0.075887
O19   O     O_2   0.340245 0.680869 0.403605 -0.505008
C42   C     C_2   0.721240 0.351689 0.617380 0.504996
H16   H     H_    0.755467 0.315228 0.675443 0.072441
O20   O     O_2   0.660906 0.320220 0.598723 -0.510536
S3    S     S_3+6 0.404358 0.819880 0.716575 0.069027
O21   O     O_2   0.358669 0.730654 0.650148 -0.248280
O22   O     O_2   0.452560 0.778493 0.803229 -0.243514
O23   O     O_3   0.353732 0.910153 0.788303 -0.463630
H17   H     H_    0.384350 0.949067 0.854514 0.370317
S4    S     S_3+6 0.596325 0.180211 0.284443 0.043148
O24   O     O_2   0.548346 0.222666 0.198399 -0.251262
O25   O     O_2   0.642740 0.268100 0.351988 -0.282228
O26   O     O_3   0.645644 0.088634 0.211732 -0.513371
H18   H     H_    0.668047 0.124500 0.156196 0.395599
S5    S     S_3+6 0.632814 0.645537 0.826499 0.098849
O27   O     O_2   0.672064 0.714938 0.928547 -0.176020
O28   O     O_2   0.675857 0.550457 0.794189 -0.307380
O29   O     O_3   0.625727 0.712667 0.716884 -0.521277
H19   H     H_    0.673311 0.716507 0.692018 0.345438
S6    S     S_3+6 0.368449 0.351686 0.174315 0.097834
O30   O     O_2   0.330051 0.279604 0.073401 -0.179626
O31   O     O_2   0.376474 0.294455 0.274389 -0.293467
O32   O     O_3   0.318405 0.456336 0.207770 -0.530744
H20   H     H_    0.272670 0.426582 0.219858 0.364191

loop_
_geom_bond_atom_site_label_1
_geom_bond_atom_site_label_2
_geom_bond_distance
_ccdc_geom_bond_type
C6    C16   1.420229 A    
N2    N4    1.329998 A    
O16   H12   0.990686 S    
S6    O31   1.499863 D    
O26   H18   0.990554 S    
C39   H13   1.085054 S    
O5    C3    1.297191 A    
C4    C16   1.473382 S    
O1    C1    1.296549 A    
C9    C11   1.396379 A    
C42   O20   1.219214 D    
C31   S6    1.790917 S    
N5    C32   1.393831 A    
C1    C20   1.457520 S    
C2    C19   1.457629 S    
O4    Cu1   1.957572 S    
C37   O9    1.219804 D    
C19   C26   1.399067 A    
C41   H15   1.085797 S    
C25   H4    1.085668 S    
N3    C17   1.356975 A    
O13   H11   0.991209 S    
C24   S3    1.774785 S    
S3    O22   1.500225 D    
C22   H6    1.083053 S    
O6    C4    1.297703 A    
C33   H8    1.078943 S    
N1    N3    1.329747 A    
C25   C27   1.387711 A    
C20   C25   1.399065 A    
O2    C2    1.296610 A    
C26   C28   1.387617 A    
S2    O16   1.682046 S    
S6    O30   1.501947 D    
C30   C32   1.422447 A    
C39   O17   1.219437 D    
N6    C31   1.393891 A    
O29   H19   0.990639 S    
S2    O15   1.502058 D    
O7    Cu2   1.943166 S    
C42   H16   1.085799 S    
C40   H14   1.085102 S    
S4    O26   1.682491 S    
N1    C18   1.356534 A    
C9    C18   1.472482 S    
S1    O11   1.501898 D    
S1    O12   1.504217 D    
C26   H3    1.085649 S    
C38   O10   1.219799 D    
C27   C28   1.406454 A    
C23   S4    1.774195 S    
C30   S2    1.785001 S    
C5    C15   1.420231 A    
S5    O27   1.501667 D    
C3    C15   1.472647 S    
C14   C42   1.490408 S    
C7    C39   1.494048 S    
C5    C37   1.482699 S    
S4    O24   1.499648 D    
C29   C36   1.406115 A    
C29   S1    1.785107 S    
S3    O23   1.683023 S    
S4    O25   1.500685 D    
O7    C3    1.295538 A    
O3    Cu2   1.957572 S    
O8    C4    1.295383 A    
Cu1   N5    2.016650 S    
C10   C17   1.473577 S    
C8    C40   1.493889 S    
S5    O28   1.502048 D    
C10   C12   1.396722 A    
C33   C35   1.430005 A    
C12   H2    1.085044 S    
C32   S5    1.791245 S    
O4    C2    1.292606 A    
C21   H5    1.083272 S    
O32   H20   0.990694 S    
C5    C7    1.420154 A    
C11   C13   1.393233 A    
O6    Cu2   1.938928 S    
N2    C17   1.356910 A    
C41   O19   1.218982 D    
C20   C23   1.420491 A    
S2    O14   1.503605 D    
O3    C1    1.292635 A    
O8    Cu1   1.943170 S    
C13   C15   1.419153 A    
N5    C34   1.366462 A    
C14   C16   1.418956 A    
N6    C33   1.366856 A    
C34   H7    1.079117 S    
S1    O13   1.682916 S    
C38   H10   1.085315 S    
C21   C28   1.396992 A    
C11   H1    1.085094 S    
C19   C24   1.420651 A    
C22   C27   1.396967 A    
C21   C23   1.396902 A    
C22   C24   1.397005 A    
C35   C36   1.408453 A    
Cu2   N6    2.016651 S    
O23   H17   0.990475 S    
C7    C9    1.414142 A    
C40   O18   1.219486 D    
C34   C36   1.429794 A    
C8    C10   1.414381 A    
C37   H9    1.085359 S    
O2    Cu2   1.949393 S    
C30   C35   1.406694 A    
O5    Cu1   1.938928 S    
S5    O29   1.679057 S    
O1    Cu1   1.949394 S    
C6    C8    1.419896 A    
C12   C14   1.393353 A    
C13   C41   1.491039 S    
C6    C38   1.482254 S    
C29   C31   1.422353 A    
S3    O21   1.500106 D    
Cu1   Cu2   2.684175 S    
S6    O32   1.680489 S    
N4    C18   1.356925 A    
