data_mof_unit_60157.cif
_audit_creation_date              2012-10-26T17:58:48-0400
_audit_creation_method            fapswitch 2.2
_symmetry_space_group_name_H-M    P1
_symmetry_Int_Tables_number       1
_space_group_crystal_system       triclinic
_cell_length_a                    37.138532
_cell_length_b                    30.380684
_cell_length_c                    21.386002
_cell_angle_alpha                 89.991647
_cell_angle_beta                  54.888204
_cell_angle_gamma                 90.000215
_cell_volume                      19738.8482222

loop_
_atom_site_label
_atom_site_type_symbol
_atom_type_description
_atom_site_fract_x
_atom_site_fract_y
_atom_site_fract_z
_atom_type_partial_charge
C1    C     C_R   0.914885 0.500011 0.085123 0.546527
C2    C     C_3   0.964980 0.477134 0.764321 -0.121309
C3    C     C_R   0.513123 0.656724 0.433326 -0.129598
C4    C     C_R   0.013129 0.156721 0.540426 -0.129865
C5    C     C_R   0.986866 0.156724 0.459554 -0.129872
C6    C     C_R   0.500001 0.414902 0.500003 0.549741
C7    C     C_R   0.000000 0.914904 0.500004 0.549921
C8    C     C_R   0.037542 0.702604 0.481755 -0.122339
C9    C     C_R   0.962470 0.702603 0.518265 -0.122347
C10   C     C_R   0.462551 0.202593 0.556957 -0.122355
C11   C     C_R   0.537474 0.202603 0.443065 -0.122371
C12   C     C_R   0.037672 0.656727 0.481152 -0.131644
C13   C     C_3   0.532591 0.973825 0.238118 -0.121085
C14   C     C_R   0.962339 0.656726 0.518856 -0.131639
C15   C     C_R   0.462414 0.156716 0.556619 -0.131662
C16   C     C_R   0.537603 0.156725 0.443394 -0.131606
C17   C     C_R   0.000005 0.633441 0.500000 0.015861
C18   C     C_R   0.500007 0.133437 0.500003 0.016410
C19   C     C_R   0.486525 0.702587 0.566804 -0.121727
C20   C     C_R   0.513443 0.702597 0.433185 -0.121737
C21   C     C_R   0.013453 0.202594 0.539913 -0.121958
C22   C     C_R   0.986536 0.202598 0.460067 -0.121955
C23   C     C_R   0.000006 0.725799 0.500012 0.030726
C24   C     C_3   0.470981 0.969987 0.758329 -0.119644
C25   C     C_R   0.500014 0.225793 0.500012 0.030747
C26   C     C_R   0.513382 0.297375 0.433247 -0.121854
C27   C     C_R   0.486644 0.297366 0.566770 -0.121853
C28   C     C_R   0.986425 0.797379 0.460274 -0.121630
C29   C     C_R   0.013587 0.797376 0.539745 -0.121627
C30   C     C_R   0.513051 0.343252 0.433387 -0.129781
C31   C     C_R   0.486967 0.343243 0.566627 -0.129792
C32   C     C_R   0.986749 0.843257 0.459759 -0.129499
C33   C     C_R   0.013256 0.843254 0.540260 -0.129504
C34   C     C_R   0.500006 0.366541 0.500006 0.017278
C35   C     C_3   0.037091 0.518845 0.192269 -0.116540
C36   C     C_R   0.000001 0.866546 0.500010 0.018229
C37   C     C_R   0.499982 0.725781 0.499994 0.030909
C38   C     C_R   0.999993 0.225784 0.499990 0.030707
C39   C     C_R   0.962474 0.297343 0.518160 -0.122520
C40   C     C_R   0.037514 0.297343 0.481819 -0.122519
C41   C     C_R   0.537486 0.797347 0.443153 -0.122379
C42   C     C_R   0.462486 0.797339 0.556833 -0.122398
C43   C     C_3   0.964869 0.522433 0.264399 -0.118563
C44   C     C_3   0.035144 0.522433 0.735578 -0.118568
C45   C     C_3   0.467180 0.025743 0.262101 -0.118734
C46   C     C_3   0.962920 0.518873 0.807711 -0.116552
C47   C     C_3   0.529382 0.029700 0.741312 -0.120020
C48   C     C_3   0.002023 0.541453 0.268766 -0.114875
C49   C     C_3   0.998001 0.541465 0.731189 -0.114877
C50   C     C_3   0.506022 0.041072 0.264765 -0.115188
C51   C     C_3   0.488910 0.040039 0.740298 -0.115901
C52   C     C_3   0.999935 0.499730 0.311082 0.045823
C53   C     C_3   0.000064 0.499740 0.688918 0.045824
C54   C     C_3   0.499896 0.999751 0.311120 0.045935
C55   C     C_3   0.500154 0.999816 0.688836 0.045990
C56   C     C_3   0.962784 0.480711 0.307825 -0.124343
C57   C     C_3   0.538713 0.015173 0.190634 -0.116504
C58   C     C_3   0.037204 0.480708 0.692196 -0.124336
C59   C     C_3   0.461062 0.984433 0.309541 -0.123911
C60   C     C_3   0.540615 0.989493 0.688789 -0.124444
C61   C     C_3   0.459736 0.010242 0.810938 -0.115710
C62   C     C_3   0.999948 0.499837 0.189044 0.045861
C63   C     C_3   0.000051 0.499852 0.810956 0.045861
C64   C     C_3   0.499896 0.999852 0.189094 0.045723
C65   C     C_R   0.085115 0.500015 0.914875 0.546529
C66   C     C_3   0.500175 0.999903 0.810840 0.045650
C67   C     C_R   0.797376 0.537529 0.183317 -0.122386
C68   C     C_R   0.202629 0.537547 0.816659 -0.122382
C69   C     C_R   0.297373 0.037524 0.183335 -0.122571
C70   C     C_R   0.702631 0.037543 0.816642 -0.122562
C71   C     C_R   0.843252 0.537654 0.137880 -0.132047
C72   C     C_R   0.156753 0.537667 0.862098 -0.132049
C73   C     C_R   0.343249 0.037651 0.137891 -0.132210
C74   C     C_R   0.656755 0.037665 0.862088 -0.132150
C75   C     C_R   0.866541 0.500015 0.133489 0.016629
C76   C     C_R   0.414885 0.000011 0.085123 0.546490
C77   C     C_R   0.133459 0.500028 0.866505 0.016625
C78   C     C_R   0.366541 0.000013 0.133494 0.016496
C79   C     C_R   0.633459 0.000026 0.866500 0.016754
C80   C     C_R   0.843264 0.462385 0.175693 -0.130973
C81   C     C_R   0.156732 0.462401 0.824314 -0.130966
C82   C     C_R   0.343267 0.962382 0.175701 -0.130867
C83   C     C_R   0.656729 0.962399 0.824305 -0.130848
C84   C     C_R   0.797388 0.462525 0.222063 -0.122420
C85   C     C_R   0.202607 0.462546 0.777943 -0.122418
C86   C     C_R   0.297391 0.962521 0.222077 -0.122235
C87   C     C_R   0.585115 0.000015 0.914876 0.546569
C88   C     C_R   0.702605 0.962543 0.777927 -0.122247
C89   C     C_R   0.774190 0.500030 0.225895 0.030729
C90   C     C_R   0.225810 0.500053 0.774096 0.030728
C91   C     C_R   0.274190 0.000025 0.225913 0.030727
C92   C     C_R   0.725810 0.000047 0.774077 0.030740
C93   C     C_R   0.999987 0.499982 0.120503 0.556488
C94   C     C_R   0.000012 0.499987 0.879497 0.556488
C95   C     C_R   0.499960 0.999984 0.120530 0.556477
C96   C     C_R   0.500079 0.999995 0.879433 0.556460
C97   C     C_R   0.702641 0.486573 0.350802 -0.121670
C98   C     C_3   0.997865 0.458093 0.231450 -0.125334
C99   C     C_R   0.297356 0.486599 0.649197 -0.121669
C100  C     C_R   0.202638 0.986563 0.350817 -0.121943
C101  C     C_R   0.797359 0.986589 0.649181 -0.121961
C102  C     C_R   0.656763 0.486893 0.396849 -0.129012
C103  C     C_R   0.343233 0.486911 0.603154 -0.129009
C104  C     C_R   0.156760 0.986883 0.396860 -0.130431
C105  C     C_R   0.843237 0.986901 0.603143 -0.130443
C106  C     C_R   0.633453 0.500015 0.366594 0.017777
C107  C     C_R   0.366547 0.500024 0.633404 0.017776
C108  C     C_R   0.133453 0.000007 0.366600 0.017774
C109  C     C_3   0.002109 0.458106 0.768595 -0.125323
C110  C     C_R   0.866547 0.000016 0.633398 0.017775
C111  C     C_R   0.656722 0.513150 0.289781 -0.130378
C112  C     C_R   0.343281 0.513161 0.710208 -0.130375
C113  C     C_R   0.156725 0.013140 0.289785 -0.128945
C114  C     C_R   0.843277 0.013151 0.710204 -0.128960
C115  C     C_R   0.702597 0.513484 0.244108 -0.121924
C116  C     C_R   0.297406 0.513502 0.755878 -0.121917
C117  C     C_R   0.202600 0.013473 0.244117 -0.121630
C118  C     C_R   0.797403 0.013492 0.755868 -0.121642
C119  C     C_R   0.725812 0.500031 0.274269 0.030787
C120  C     C_3   0.493784 0.958508 0.235523 -0.125065
C121  C     C_R   0.274189 0.500056 0.725722 0.030786
C122  C     C_R   0.225812 0.000022 0.274285 0.030788
C123  C     C_R   0.774188 0.000047 0.725706 0.030790
C124  C     C_R   0.999995 0.366497 0.500000 0.017257
C125  C     C_R   0.499993 0.866497 0.499999 0.017266
C126  C     C_R   0.999994 0.274155 0.499987 0.030697
C127  C     C_R   0.499984 0.774154 0.499991 0.030778
C128  C     C_R   0.500015 0.274175 0.500010 0.030694
C129  C     C_R   0.000007 0.774182 0.500010 0.030884
C130  C     C_R   0.000002 0.585092 0.499999 0.546292
C131  C     C_3   0.511405 0.959659 0.759316 -0.124517
C132  C     C_R   0.500002 0.085090 0.499999 0.546380
C133  C     C_R   0.962342 0.343216 0.518766 -0.131375
C134  C     C_R   0.037647 0.343216 0.481226 -0.131367
C135  C     C_R   0.537622 0.843220 0.443489 -0.131274
C136  C     C_R   0.462359 0.843212 0.556505 -0.131492
C137  C     C_R   0.999981 0.499817 0.379529 0.556443
C138  C     C_R   0.000019 0.499821 0.620471 0.556444
C139  C     C_R   0.499975 0.999831 0.379534 0.556471
C140  C     C_R   0.500033 0.999868 0.620459 0.556520
C141  C     C_R   0.999998 0.414836 0.500001 0.546674
C142  C     C_3   0.035006 0.477109 0.235704 -0.121300
C143  C     C_R   0.499998 0.914836 0.500001 0.546684
C144  C     C_R   0.499992 0.633433 0.499995 0.018253
C145  C     C_R   0.999999 0.133435 0.499990 0.017359
C146  C     C_R   0.499998 0.585084 0.499998 0.549959
C147  C     C_R   1.000000 0.085085 0.499996 0.549757
C148  C     C_R   0.585097 0.499998 0.414913 0.549856
C149  C     C_R   0.414902 0.500000 0.585087 0.549857
C150  C     C_R   0.085098 0.999996 0.414914 0.549848
C151  C     C_R   0.914903 0.999998 0.585086 0.549846
C152  C     C_R   0.486855 0.656714 0.566664 -0.129588
Cu1   Cu    Cu3+1 1.000000 0.455950 0.000000 0.912413
Cu2   Cu    Cu3+1 0.499990 0.500000 0.437250 0.916884
Cu3   Cu    Cu3+1 0.000010 1.000000 0.562750 0.916900
Cu4   Cu    Cu3+1 0.999990 1.000000 0.437250 0.916901
Cu5   Cu    Cu3+1 0.500000 0.955950 0.000000 0.912889
Cu6   Cu    Cu3+1 1.000000 0.544060 0.000000 0.916281
Cu7   Cu    Cu3+1 0.500000 0.044060 0.000000 0.915775
Cu8   Cu    Cu3+1 0.044060 0.499960 0.455930 0.914361
Cu9   Cu    Cu3+1 0.955940 0.499960 0.544070 0.914342
Cu10  Cu    Cu3+1 0.544060 0.999960 0.455930 0.914153
Cu11  Cu    Cu3+1 0.455940 0.999960 0.544070 0.914771
Cu12  Cu    Cu3+1 0.500010 0.500000 0.562750 0.916886
H1    H     H_    0.003717 0.575578 0.285476 0.108842
H2    H     H_    0.279912 0.476365 0.624905 0.107263
H3    H     H_    0.220078 0.976324 0.375117 0.107033
H4    H     H_    0.779917 0.976355 0.624885 0.107001
H5    H     H_    0.639557 0.476478 0.455851 0.126962
H6    H     H_    0.360437 0.476496 0.544158 0.126970
H7    H     H_    0.139551 0.976467 0.455862 0.125195
H8    H     H_    0.860443 0.976485 0.544147 0.125186
H9    H     H_    0.639485 0.523560 0.265207 0.125270
H10   H     H_    0.360521 0.523565 0.734778 0.125277
H11   H     H_    0.139491 0.023548 0.265205 0.127049
H12   H     H_    0.996328 0.575589 0.714439 0.108841
H13   H     H_    0.860514 0.023553 0.734779 0.127038
H14   H     H_    0.720004 0.523725 0.184973 0.107088
H15   H     H_    0.280002 0.523742 0.815006 0.107094
H16   H     H_    0.220009 0.023713 0.184982 0.107332
H17   H     H_    0.779997 0.023731 0.814997 0.107310
H18   H     H_    0.932958 0.360445 0.533177 0.125043
H19   H     H_    0.067032 0.360445 0.466819 0.125056
H20   H     H_    0.566992 0.860452 0.399151 0.125069
H21   H     H_    0.432992 0.860438 0.600846 0.125030
H22   H     H_    0.476282 0.720007 0.618763 0.107021
H23   H     H_    0.511023 0.074872 0.278171 0.108416
H24   H     H_    0.523684 0.720026 0.381225 0.106996
H25   H     H_    0.023694 0.220019 0.571411 0.107208
H26   H     H_    0.976293 0.220025 0.428569 0.107204
H27   H     H_    0.476439 0.639487 0.618869 0.125460
H28   H     H_    0.523542 0.639505 0.381122 0.125443
H29   H     H_    0.023544 0.139499 0.571825 0.126723
H30   H     H_    0.976454 0.139503 0.428154 0.126710
H31   H     H_    0.066895 0.720027 0.467079 0.107641
H32   H     H_    0.933117 0.720025 0.532945 0.107632
H33   H     H_    0.433256 0.220012 0.601091 0.107628
H34   H     H_    0.479715 0.072948 0.731082 0.108705
H35   H     H_    0.566771 0.220028 0.398933 0.107634
H36   H     H_    0.067070 0.639498 0.466672 0.126106
H37   H     H_    0.932940 0.639498 0.533331 0.126110
H38   H     H_    0.433073 0.139482 0.601039 0.125506
H39   H     H_    0.566941 0.139498 0.398971 0.125638
H40   H     H_    0.936146 0.540986 0.274787 0.113403
H41   H     H_    0.063878 0.540976 0.725170 0.113393
H42   H     H_    0.440387 0.047000 0.270586 0.115609
H43   H     H_    0.553314 0.054153 0.735634 0.117390
H44   H     H_    0.933136 0.279917 0.532765 0.107456
H45   H     H_    0.779970 0.433200 0.254242 0.107508
H46   H     H_    0.066852 0.279919 0.467211 0.107466
H47   H     H_    0.566809 0.779927 0.399105 0.107399
H48   H     H_    0.433161 0.779912 0.600879 0.107422
H49   H     H_    0.523554 0.279956 0.381323 0.107306
H50   H     H_    0.476474 0.279939 0.618696 0.107299
H51   H     H_    0.976087 0.779958 0.428918 0.107113
H52   H     H_    0.023927 0.779952 0.571101 0.107112
H53   H     H_    0.523393 0.360476 0.381217 0.126815
H54   H     H_    0.476622 0.360460 0.618795 0.126803
H55   H     H_    0.976235 0.860481 0.428510 0.125461
H56   H     H_    0.220022 0.433225 0.745776 0.107517
H57   H     H_    0.023768 0.860477 0.571510 0.125454
H58   H     H_    0.932334 0.465036 0.356350 0.118733
H59   H     H_    0.067645 0.465021 0.643689 0.118733
H60   H     H_    0.429225 0.971780 0.359403 0.121911
H61   H     H_    0.573800 0.980936 0.637632 0.123118
H62   H     H_    0.996148 0.423862 0.215170 0.123377
H63   H     H_    0.003805 0.423875 0.784912 0.123395
H64   H     H_    0.488734 0.924613 0.222552 0.123107
H65   H     H_    0.520676 0.926681 0.768124 0.122145
H66   H     H_    0.063737 0.458502 0.225171 0.120206
H67   H     H_    0.279974 0.933196 0.254256 0.107526
H68   H     H_    0.936237 0.458537 0.774876 0.120204
H69   H     H_    0.559378 0.952531 0.229568 0.116553
H70   H     H_    0.447070 0.945516 0.763979 0.114610
H71   H     H_    0.067519 0.534450 0.143567 0.110768
H72   H     H_    0.932501 0.534489 0.856395 0.110769
H73   H     H_    0.570507 0.027748 0.140549 0.109106
H74   H     H_    0.426624 0.018727 0.862359 0.108420
H75   H     H_    0.779948 0.566857 0.185997 0.107566
H76   H     H_    0.220061 0.566876 0.813968 0.107571
H77   H     H_    0.279943 0.066851 0.186017 0.107601
H78   H     H_    0.720018 0.933220 0.745759 0.107481
H79   H     H_    0.720065 0.066871 0.813948 0.107546
H80   H     H_    0.860476 0.567022 0.105646 0.125340
H81   H     H_    0.139531 0.567032 0.894322 0.125343
H82   H     H_    0.360472 0.067019 0.105655 0.125465
H83   H     H_    0.639536 0.067030 0.894314 0.125235
H84   H     H_    0.860499 0.433011 0.173445 0.125631
H85   H     H_    0.139494 0.433026 0.826573 0.125646
H86   H     H_    0.360504 0.933009 0.173449 0.125745
H87   H     H_    0.639490 0.933025 0.826567 0.125548
H88   H     H_    0.720083 0.476334 0.375098 0.107257
O1    O     O_R   0.935730 0.462810 0.064280 -0.513152
O2    O     O_R   0.435720 0.499990 0.617290 -0.514190
O3    O     O_R   0.064280 0.999990 0.382710 -0.510548
O4    O     O_R   0.935720 0.999990 0.617290 -0.510554
O5    O     O_R   0.500000 0.435720 0.553010 -0.512402
O6    O     O_R   0.500000 0.435720 0.446990 -0.512405
O7    O     O_R   0.000000 0.935720 0.553010 -0.512192
O8    O     O_R   0.000000 0.935720 0.446990 -0.512195
O9    O     O_R   0.935740 0.537210 0.064260 -0.514185
O10   O     O_R   0.064260 0.537210 0.935740 -0.514180
O11   O     O_R   0.435740 0.037210 0.064260 -0.513950
O12   O     O_R   0.064270 0.462810 0.935720 -0.513153
O13   O     O_R   0.564260 0.037210 0.935740 -0.514186
O14   O     O_R   0.000010 0.462810 0.091570 -0.513903
O15   O     O_R   0.999990 0.462810 0.908430 -0.513913
O16   O     O_R   0.500010 0.962810 0.091570 -0.513711
O17   O     O_R   0.499990 0.962810 0.908430 -0.513301
O18   O     O_R   0.000020 0.537210 0.091550 -0.510425
O19   O     O_R   0.999980 0.537210 0.908450 -0.510422
O20   O     O_R   0.500020 0.037210 0.091550 -0.510620
O21   O     O_R   0.499980 0.037210 0.908450 -0.511019
O22   O     O_R   0.037200 0.564240 0.462790 -0.512896
O23   O     O_R   0.435730 0.962810 0.064280 -0.513143
O24   O     O_R   0.962800 0.564240 0.537210 -0.512904
O25   O     O_R   0.537200 0.064240 0.462790 -0.512947
O26   O     O_R   0.462800 0.064240 0.537210 -0.513099
O27   O     O_R   0.037200 0.499960 0.371220 -0.510110
O28   O     O_R   0.962800 0.499960 0.628780 -0.510116
O29   O     O_R   0.537200 0.999960 0.371220 -0.513396
O30   O     O_R   0.462800 0.999960 0.628780 -0.512860
O31   O     O_R   0.962800 0.499940 0.445620 -0.514193
O32   O     O_R   0.037200 0.499940 0.554380 -0.514190
O33   O     O_R   0.462800 0.999940 0.445620 -0.510960
O34   O     O_R   0.564270 0.962810 0.935720 -0.513397
O35   O     O_R   0.537200 0.999940 0.554380 -0.511514
O36   O     O_R   0.037210 0.435680 0.462780 -0.514559
O37   O     O_R   0.962790 0.435680 0.537220 -0.514556
O38   O     O_R   0.537210 0.935680 0.462780 -0.514298
O39   O     O_R   0.462790 0.935680 0.537220 -0.514456
O40   O     O_R   0.500030 0.564270 0.552970 -0.512271
O41   O     O_R   0.499970 0.564270 0.447030 -0.512267
O42   O     O_R   0.000030 0.064270 0.552970 -0.512456
O43   O     O_R   0.999970 0.064270 0.447030 -0.512448
O44   O     O_R   0.564280 0.500000 0.488710 -0.510465
O45   O     O_R   0.435720 0.500000 0.511290 -0.510466
O46   O     O_R   0.064280 1.000000 0.488710 -0.514106
O47   O     O_R   0.935720 0.000000 0.511290 -0.514114
O48   O     O_R   0.564280 0.499990 0.382710 -0.514192

loop_
_geom_bond_atom_site_label_1
_geom_bond_atom_site_label_2
_ccdc_geom_bond_type
C99   C103  A    
C105  C110  A    
C24   C61   S    
C107  C112  A    
C7    O7    A    
C65   O10   A    
C104  C108  A    
C79   C87   S    
C109  H63   S    
C150  O46   A    
C124  C133  A    
C86   H67   S    
C22   C38   A    
C14   H37   S    
C29   C33   A    
C100  C104  A    
C8    C23   A    
C42   C136  A    
Cu1   O12   S    
C19   C37   A    
C18   C132  S    
Cu2   O45   S    
C91   C122  S    
C70   C74   A    
C103  H6    S    
C68   C90   A    
C22   H26   S    
C141  O36   A    
C99   C121  A    
C125  C135  A    
C83   C88   A    
C85   C90   A    
C65   C77   S    
C116  C121  A    
C139  O29   A    
C27   C31   A    
Cu7   O21   S    
C28   C32   A    
C151  O47   A    
C68   H76   S    
C92   C123  S    
C84   H45   S    
C93   O14   A    
Cu9   O28   S    
Cu6   O19   S    
C46   H72   S    
C108  C113  A    
C45   H42   S    
C27   C128  A    
C78   C82   A    
C68   C72   A    
C52   C137  S    
C104  H7    S    
C148  O48   A    
C74   C79   A    
C65   O12   A    
C106  C111  A    
C13   C54   S    
Cu1   O1    S    
C45   C59   S    
C138  O28   A    
Cu8   O32   S    
C50   C57   S    
C140  O30   A    
C2    C53   S    
C53   C58   S    
Cu5   O34   S    
C132  O26   A    
C64   C120  S    
Cu1   O14   S    
C24   C131  S    
C45   C50   S    
C49   C53   S    
C44   H41   S    
C51   C55   S    
C140  O35   A    
C24   H70   S    
C59   H60   S    
C48   C52   S    
C62   C93   S    
Cu3   Cu4   S    
C103  C107  A    
C57   H73   S    
C5    H30   S    
C15   C18   A    
C112  H10   S    
C2    C109  S    
C97   C119  A    
C59   C120  S    
C41   C127  A    
C33   C36   A    
C95   O20   A    
C94   O15   A    
Cu3   O46   S    
C26   H49   S    
C32   C36   A    
Cu2   Cu12  S    
C25   C128  S    
C76   C78   S    
C71   H80   S    
C19   H22   S    
C142  H66   S    
C13   C57   S    
C11   C25   A    
C8    H31   S    
Cu1   Cu6   S    
C29   C129  A    
C48   H1    S    
Cu6   O10   S    
C27   H50   S    
C110  C114  A    
Cu2   O6    S    
C2    H68   S    
C31   H54   S    
Cu6   O9    S    
Cu2   O48   S    
Cu12  O5    S    
C98   C142  S    
C14   C17   A    
C38   C126  S    
Cu10  O25   S    
C54   C59   S    
C5    C145  A    
C30   C34   A    
Cu3   O42   S    
Cu12  O40   S    
C9    C23   A    
C96   O17   A    
C40   C134  A    
C76   O23   A    
C63   C109  S    
C101  H4    S    
Cu9   O37   S    
C117  C122  A    
C70   H79   S    
C20   H24   S    
Cu3   O7    S    
Cu3   O4    S    
C21   H25   S    
C54   C139  S    
C8    C12   A    
Cu5   O17   S    
C39   H44   S    
C12   H36   S    
C31   C34   A    
C108  C150  S    
C10   C25   A    
C56   H58   S    
C26   C30   A    
C115  C119  A    
C90   C121  S    
C113  C117  A    
C124  C141  S    
C35   H71   S    
C130  O24   A    
C10   H33   S    
C41   C135  A    
C13   C120  S    
C42   H48   S    
C13   H69   S    
C66   C131  S    
Cu10  O29   S    
Cu5   O16   S    
C137  O27   A    
Cu4   O43   S    
C17   C130  S    
C82   H86   S    
Cu12  O2    S    
C5    C22   A    
C147  O42   A    
C45   C64   S    
C113  H11   S    
C46   C63   S    
C144  C152  A    
C3    H28   S    
C20   C37   A    
C69   H77   S    
C150  O3    A    
C125  C143  S    
C149  O45   A    
C4    C145  A    
C67   H75   S    
C35   C142  S    
C107  C149  S    
Cu8   O22   S    
Cu7   O11   S    
C138  O32   A    
C43   H40   S    
C69   C91   A    
C81   C85   A    
C151  O4    A    
C33   H57   S    
C7    C36   S    
Cu4   O47   S    
C112  C116  A    
C80   C84   A    
C46   C49   S    
C50   C54   S    
C100  H3    S    
C61   H74   S    
C85   H56   S    
C86   C91   A    
C88   H78   S    
C40   H46   S    
C23   C129  S    
C89   C119  S    
C44   C58   S    
C12   C17   A    
C80   H84   S    
C69   C73   A    
C130  O22   A    
C120  H64   S    
C47   C66   S    
C97   C102  A    
Cu4   O3    S    
Cu10  O35   S    
C131  H65   S    
C28   H51   S    
Cu5   Cu7   S    
C39   C126  A    
C55   C60   S    
C7    O8    A    
C35   C48   S    
C60   C131  S    
C145  C147  S    
C1    O1    A    
C44   C63   S    
C4    H29   S    
C53   C138  S    
C144  C146  S    
C110  C151  S    
C47   C51   S    
C73   H82   S    
C82   C86   A    
C55   C140  S    
C6    C34   S    
C72   H81   S    
C9    C14   A    
C51   H34   S    
C11   C16   A    
C143  O38   A    
C63   C94   S    
Cu11  O30   S    
C77   C81   A    
C3    C20   A    
C42   C127  A    
C87   O13   A    
C125  C136  A    
C6    O5    A    
Cu12  O44   S    
C66   C96   S    
Cu10  Cu11  S    
C39   C133  A    
C118  H17   S    
Cu7   O20   S    
C70   C92   A    
C3    C144  A    
Cu10  O38   S    
Cu5   O23   S    
Cu9   O31   S    
C124  C134  A    
Cu6   O18   S    
C6    O6    A    
C79   C83   A    
C147  O43   A    
C67   C71   A    
C118  C123  A    
C11   H35   S    
C115  H14   S    
C137  O31   A    
C116  H15   S    
C49   H12   S    
Cu11  O39   S    
C43   C62   S    
C44   C49   S    
Cu11  O33   S    
Cu2   O41   S    
C74   H83   S    
C105  H8    S    
C136  H21   S    
C58   C109  S    
C51   C61   S    
C87   O34   A    
C56   C98   S    
C134  H19   S    
C9    H32   S    
C2    C46   S    
C24   C55   S    
C132  O25   A    
C101  C123  A    
Cu1   O15   S    
C28   C129  A    
C152  H27   S    
C10   C15   A    
C58   H59   S    
C67   C89   A    
C106  C148  S    
C139  O33   A    
C60   H61   S    
C47   C60   S    
C62   C98   S    
C146  O40   A    
C61   C66   S    
C93   O18   A    
C88   C92   A    
C73   C78   A    
C16   H39   S    
C43   C48   S    
C117  H16   S    
C99   H2    S    
C102  H5    S    
Cu4   O8    S    
C96   O21   A    
Cu8   O27   S    
C135  H20   S    
C50   H23   S    
C146  O41   A    
C97   H88   S    
C101  C105  A    
C148  O44   A    
C21   C38   A    
C1    C75   S    
C29   H52   S    
C149  O2    A    
C52   C142  S    
Cu8   O36   S    
C72   C77   A    
Cu9   O24   S    
C43   C56   S    
C114  H13   S    
C40   C126  A    
C19   C152  A    
C26   C128  A    
C114  C118  A    
C30   H53   S    
C1    O9    A    
C143  O39   A    
C76   O11   A    
C84   C89   A    
C15   H38   S    
C57   C64   S    
C75   C80   A    
C83   H87   S    
C111  H9    S    
C64   C95   S    
C81   H85   S    
C141  O37   A    
Cu11  O26   S    
Cu7   O13   S    
C47   H43   S    
Cu8   Cu9   S    
C71   C75   A    
C4    C21   A    
C95   O16   A    
C94   O19   A    
C102  C106  A    
C35   C62   S    
C100  C122  A    
C32   H55   S    
C41   H47   S    
C133  H18   S    
C16   C18   A    
C111  C115  A    
C37   C127  S    
C52   C56   S    
C98   H62   S    
