data_mof_unit_16661.cif
_audit_creation_date              2012-12-11T15:53:47-0500
_audit_creation_method            fapswitch 2.2
_symmetry_space_group_name_H-M    P1
_symmetry_Int_Tables_number       1
_space_group_crystal_system       triclinic
_cell_length_a                    10.62022
_cell_length_b                    10.73365
_cell_length_c                    17.028879
_cell_angle_alpha                 80.331609
_cell_angle_beta                  99.700818
_cell_angle_gamma                 118.918444
_cell_volume                      1666.40978327

loop_
_atom_site_label
_atom_site_type_symbol
_atom_type_description
_atom_site_fract_x
_atom_site_fract_y
_atom_site_fract_z
_atom_type_partial_charge
C1    C     C_R   0.385301 0.285343 0.631995 0.540861
C2    C     C_R   0.378583 0.820114 0.672873 -0.136175
C3    C     C_R   0.363463 0.842473 0.748360 -0.157461
C4    C     C_3   0.108582 0.450465 0.789954 0.154625
C5    C     C_3   0.127905 0.428213 0.707592 -0.225429
C6    C     C_R   0.323696 0.679906 0.652818 0.024475
C7    C     C_1   0.773465 0.630381 0.712074 -0.019137
C8    C     C_1   0.819435 0.669553 0.777810 -0.017676
C9    C     C_1   0.365920 0.235153 0.714523 -0.069241
C10   C     C_1   0.334345 0.188093 0.781703 -0.068456
C11   C     C_1   0.317804 0.682243 0.280128 -0.051274
C12   C     C_R   0.368247 0.654732 0.584598 0.534588
C13   C     C_1   0.296657 0.706288 0.209497 -0.050044
C14   C     C_R   0.867854 0.684762 0.167561 0.025702
C15   C     C_R   0.910796 0.599180 0.224283 0.024720
C16   C     C_R   0.902006 0.593155 0.303983 0.014988
C17   C     C_R   0.834440 0.782457 0.275633 -0.159235
C18   C     C_R   0.843289 0.787258 0.194242 -0.154797
C19   C     C_3   0.870765 0.445042 0.227662 -0.267216
C20   C     C_3   0.860559 0.436487 0.316153 -0.266803
C21   C     C_R   0.848588 0.673857 0.329729 0.016710
C22   C     C_R   0.338760 0.181723 0.155812 0.019551
C23   C     C_R   0.721113 0.587551 0.633147 0.539535
C24   C     C_R   0.267149 0.247812 0.178637 0.026974
C25   C     C_R   0.271295 0.259085 0.257816 0.040398
C26   C     C_R   0.439457 0.164197 0.293624 -0.169250
C27   C     C_R   0.437579 0.154058 0.212827 -0.169369
C28   C     C_3   0.114425 0.225100 0.162115 -0.271303
C29   C     C_3   0.120857 0.238667 0.250029 -0.268270
C30   C     C_R   0.344433 0.204008 0.316873 0.022135
C31   C     C_R   0.885337 0.699108 0.857115 0.555364
C32   C     C_R   0.282842 0.748933 0.882557 0.575300
C33   C     C_R   0.286949 0.119137 0.858435 0.542184
C34   C     C_R   0.353151 0.230927 0.397814 0.558265
C35   C     C_R   0.892670 0.693472 0.085977 0.540864
C36   C     C_R   0.284267 0.738535 0.125412 0.569515
C37   C     C_R   0.288375 0.111389 0.083626 0.546443
C38   C     C_R   0.361959 0.656872 0.361630 0.552976
C39   C     C_R   0.775347 0.624348 0.401224 0.563130
C40   C     C_R   0.292878 0.724894 0.803820 0.046056
C41   C     C_R   0.247868 0.587024 0.784558 0.049462
C42   C     C_R   0.265070 0.565609 0.710981 -0.040665
Cr1   Cr    Cr6+3 0.608440 0.389080 0.519680 1.006169
Cr2   Cr    Cr6+3 0.288640 0.400090 0.490760 1.004884
Cr3   Cr    Cr6+3 0.602940 0.710800 0.489510 1.017651
Cr4   Cr    Cr6+3 0.052530 0.947560 0.964210 1.001697
Cr5   Cr    Cr6+3 0.059970 0.626800 0.992920 1.019923
Cr6   Cr    Cr6+3 0.373320 0.938440 0.995370 1.001180
H1    H     H_    0.434872 0.911639 0.630877 0.143372
H2    H     H_    0.764862 0.382674 0.193285 0.145900
H3    H     H_    0.748396 0.365826 0.331948 0.167017
H4    H     H_    0.944910 0.415077 0.354694 0.139753
H5    H     H_    0.509297 0.134736 0.337728 0.127692
H6    H     H_    0.500814 0.109278 0.196864 0.139372
H7    H     H_    0.034048 0.116406 0.145785 0.157611
H8    H     H_    0.106362 0.314645 0.122065 0.152030
H9    H     H_    0.119250 0.336786 0.261179 0.146415
H10   H     H_    0.046554 0.137969 0.283607 0.139656
H11   H     H_    0.405847 0.950797 0.763269 0.128604
H12   H     H_    0.118228 0.372525 0.839783 0.115092
H13   H     H_    0.147340 0.335097 0.708854 0.120025
H14   H     H_    0.046216 0.434631 0.659025 0.172110
H15   H     H_    0.800535 0.852490 0.294123 0.139467
H16   H     H_    0.823982 0.865488 0.152307 0.131665
H17   H     H_    0.961232 0.430187 0.214634 0.141416
O1    O     O_R   0.754020 0.497590 0.609930 -0.499672
O2    O     O_R   0.295080 0.533620 0.397890 -0.503516
O3    O     O_R   0.485280 0.746620 0.388440 -0.511601
O4    O     O_R   0.720550 0.696220 0.420010 -0.498243
O5    O     O_3   0.500010 0.499990 0.499980 -0.278774
O6    O     O_R   0.163320 0.092900 0.874450 -0.511696
O7    O     O_R   0.934650 0.822080 0.882840 -0.494391
O8    O     O_R   0.915520 0.604140 0.893670 -0.485903
O9    O     O_R   0.191760 0.638110 0.923230 -0.470526
O10   O     O_R   0.406180 0.826930 0.920660 -0.516982
O11   O     O_R   0.358620 0.062870 0.901950 -0.518335
O12   O     O_R   0.481420 0.271390 0.600630 -0.507006
O13   O     O_R   0.163910 0.085460 0.050210 -0.523019
O14   O     O_R   0.935200 0.815170 0.045770 -0.505591
O15   O     O_R   0.916120 0.596690 0.069430 -0.530325
O16   O     O_R   0.192310 0.631200 0.086170 -0.501005
O17   O     O_R   0.406770 0.819480 0.096420 -0.502900
O18   O     O_R   0.359170 0.055960 0.064880 -0.524648
O19   O     O_3   0.161940 0.837600 0.984160 -0.289424
O20   O     O_R   0.263810 0.254550 0.589590 -0.498570
O21   O     O_R   0.300820 0.531200 0.560890 -0.518283
O22   O     O_R   0.491480 0.744020 0.564270 -0.525347
O23   O     O_R   0.726290 0.693800 0.583010 -0.487446
O24   O     O_R   0.747830 0.500190 0.434090 -0.519914
O25   O     O_R   0.475680 0.273800 0.437630 -0.501219
O26   O     O_R   0.257620 0.257160 0.413750 -0.512940
O27   O     O_3   0.989272 0.475559 0.788010 -0.528314
C43   C     C_3   0.864758 0.343286 0.800983 -0.078239
H18   H     H_    0.874033 0.291808 0.862559 0.106231
H19   H     H_    0.843688 0.269951 0.755722 0.109301
H20   H     H_    0.769791 0.362463 0.795125 0.146576

loop_
_geom_bond_atom_site_label_1
_geom_bond_atom_site_label_2
_ccdc_geom_bond_type
C5    C42   S    
C43   H18   S    
C1    O12   A    
C41   C42   A    
C14   C18   A    
C19   C20   S    
C32   O10   A    
C28   H8    S    
C27   H6    S    
C7    C8    T    
C15   C19   S    
C26   C27   A    
Cr1   O24   S    
C23   O1    A    
C28   C29   S    
Cr3   O22   S    
C20   H3    S    
C6    C12   S    
Cr4   O14   S    
C31   O8    A    
C4    C41   S    
C15   C16   A    
C35   O15   A    
Cr6   O11   S    
C34   O26   A    
C36   O17   A    
Cr2   O5    S    
C9    C10   T    
Cr4   O7    S    
C32   C40   S    
C43   H19   S    
C25   C29   S    
Cr6   O10   S    
C2    C6    A    
Cr5   O15   S    
Cr2   O21   S    
C28   H7    S    
C1    O20   A    
Cr1   O25   S    
C30   C34   S    
Cr3   O4    S    
Cr3   O23   S    
C1    C9    S    
C24   C25   A    
Cr5   O8    S    
C13   C36   S    
C14   C35   S    
Cr4   O13   S    
C22   C37   S    
C17   C21   A    
Cr6   O19   S    
C11   C38   S    
C34   O25   A    
C2    H1    S    
C33   O11   A    
C21   C39   S    
C36   O16   A    
C16   C20   S    
C4    H12   S    
Cr3   O3    S    
C17   C18   A    
C39   O4    A    
C5    H13   S    
Cr5   O19   S    
C29   H10   S    
Cr4   O6    S    
Cr2   O26   S    
Cr4   O19   S    
C31   O7    A    
C38   O3    A    
C3    C40   A    
C26   C30   A    
Cr1   O5    S    
C23   O23   A    
C22   C24   A    
Cr1   O12   S    
Cr2   O20   S    
C26   H5    S    
C25   C30   A    
C40   C41   A    
C12   O22   A    
Cr3   O5    S    
C8    C31   S    
C24   C28   S    
Cr5   O9    S    
C29   H9    S    
C4    C5    S    
C16   C21   A    
C43   H20   S    
C37   O13   A    
Cr6   O18   S    
C12   O21   A    
C22   C27   A    
C2    C3    A    
C20   H4    S    
C17   H15   S    
C32   O9    A    
C11   C13   T    
C19   H2    S    
C18   H16   S    
Cr1   O1    S    
C7    C23   S    
C35   O14   A    
O27   C43   S    
Cr6   O17   S    
C5    H14   S    
C19   H17   S    
C10   C33   S    
Cr5   O16   S    
C33   O6    A    
C38   O2    A    
C6    C42   A    
C14   C15   A    
C37   O18   A    
Cr2   O2    S    
C39   O24   A    
C4    O27   S    
C3    H11   S    
