data_mof_unit_18017.cif
_audit_creation_date              2012-12-10T17:05:15-0500
_audit_creation_method            fapswitch 2.2
_symmetry_space_group_name_H-M    P1
_symmetry_Int_Tables_number       1
_space_group_crystal_system       triclinic
_cell_length_a                    10.036477
_cell_length_b                    10.733795
_cell_length_c                    15.509739
_cell_angle_alpha                 90.12724
_cell_angle_beta                  67.221752
_cell_angle_gamma                 90.240704
_cell_volume                      1540.53256862

loop_
_atom_site_label
_atom_site_type_symbol
_atom_type_description
_atom_site_fract_x
_atom_site_fract_y
_atom_site_fract_z
_atom_type_partial_charge
C1    C     C_R   0.502771 0.737278 0.496194 0.798269
C2    C     C_R   0.705296 0.598791 0.040948 0.176709
C3    C     C_R   0.573431 0.536726 0.091834 0.104093
C4    C     C_R   0.408661 0.497840 0.676450 0.860119
C5    C     C_R   0.806356 0.619524 0.081840 -0.227027
C6    C     C_R   0.774438 0.582891 0.174051 -0.186047
C7    C     C_R   0.553879 0.486454 0.178782 -0.249113
C8    C     C_2   0.601879 0.066869 0.514879 -0.126478
C9    C     C_2   0.486515 0.132199 0.520225 -0.249383
C10   C     C_2   0.591577 0.933158 0.521029 -0.212169
C11   C     C_2   0.514121 0.869225 0.482108 0.299105
C12   C     C_R   0.398910 0.529484 0.919528 0.101027
C13   C     C_2   0.105662 0.426301 0.447926 -0.108588
C14   C     C_2   0.952822 0.420607 0.452875 -0.067706
C15   C     C_R   0.496970 0.262889 0.504618 0.904644
C16   C     C_R   0.590789 0.501005 0.323903 0.881987
C17   C     C_R   0.348878 0.496256 0.779215 -0.182740
C18   C     C_R   0.646501 0.517405 0.222843 -0.059112
C19   C     C_R   0.160583 0.458973 0.931747 -0.233786
C20   C     C_R   0.206014 0.459045 0.834732 0.453029
C21   C     C_R   0.441016 0.533342 0.822477 -0.298306
C22   C     C_2   0.074523 0.418581 0.135871 0.361362
C23   C     C_R   0.257516 0.485641 0.975378 -0.022486
C24   C     C_R   0.498853 0.559819 0.960770 0.087842
C25   C     C_R   0.464951 0.526713 0.054793 0.016136
C26   C     C_R   0.322571 0.488599 0.110231 -0.205917
C27   C     C_R   0.218578 0.467633 0.072448 -0.005740
C28   C     C_R   0.631773 0.622063 0.911228 -0.212943
C29   C     C_R   0.732325 0.642076 0.951263 -0.197302
H1    H     H_    0.906353 0.669109 0.044201 0.150097
H2    H     H_    0.846387 0.609459 0.207993 0.190554
H3    H     H_    0.831736 0.691415 0.911715 0.155936
H4    H     H_    0.050031 0.431845 0.971000 0.157814
H5    H     H_    0.549893 0.558495 0.778080 0.176204
H6    H     H_    0.288693 0.476718 0.184689 0.188360
H7    H     H_    0.658820 0.661474 0.842625 0.143511
H8    H     H_    0.001660 0.373568 0.109305 0.078890
H9    H     H_    0.412941 0.861773 0.397155 0.341077
H10   H     H_    0.162412 0.364013 0.743264 0.338187
H11   H     H_    0.704048 0.110684 0.506293 0.166367
H12   H     H_    0.381442 0.088842 0.536734 0.194114
H13   H     H_    0.648582 0.886728 0.558819 0.130456
H14   H     H_    0.183705 0.363627 0.399513 0.169122
H15   H     H_    0.073071 0.552629 0.548835 0.166809
H16   H     H_    0.926599 0.347520 0.413588 0.185747
H17   H     H_    0.879145 0.572221 0.531717 0.160453
H18   H     H_    0.463544 0.426114 0.215783 0.149801
N1    N     N_2   0.148330 0.498670 0.499030 -0.190666
N2    N     N_2   0.852680 0.498640 0.499000 -0.192990
O1    O     O_R   0.386950 0.680940 0.500010 -0.609142
O2    O     O_3   0.456676 0.926180 0.424069 -0.768634
O3    O     O_3   0.109221 0.417503 0.797744 -0.760647
O4    O     O_R   0.613110 0.680900 0.499990 -0.625864
O5    O     O_R   0.322330 0.500030 0.632270 -0.594558
O6    O     O_R   0.548480 0.499990 0.632240 -0.609117
O7    O     O_R   0.386890 0.319100 0.500010 -0.614358
O8    O     O_R   0.613050 0.319060 0.499990 -0.612576
O9    O     O_R   0.451520 0.500010 0.367760 -0.611692
O10   O     O_R   0.677670 0.499970 0.367730 -0.578269
O11   O     O_2   0.035363 0.426093 0.220717 -0.596096
Zn1   Zn    Zn3+2 0.349000 0.500030 0.500020 0.958536
Zn2   Zn    Zn3+2 0.651000 0.499970 0.499980 0.963097

loop_
_geom_bond_atom_site_label_1
_geom_bond_atom_site_label_2
_ccdc_geom_bond_type
C26   C27   A    
C13   N1    D    
C19   C23   A    
C29   H3    S    
N2    Zn2   S    
O5    Zn1   S    
C23   C27   A    
C10   H13   S    
C7    H18   S    
C1    O1    A    
C12   C24   A    
C9    H12   S    
C19   C20   A    
C12   C23   A    
C3    C25   A    
C7    C18   A    
C15   O7    A    
O9    Zn1   S    
H10   O3    S    
C9    C15   S    
O8    Zn2   S    
C20   O3    S    
C16   O9    A    
C13   C14   S    
C15   O8    A    
H17   N2    S    
N1    Zn1   S    
C2    C29   A    
C4    C17   S    
C8    C10   S    
C28   C29   A    
C6    H2    S    
C14   H16   S    
C3    C7    A    
C22   C27   S    
C4    O6    A    
C22   O11   D    
C5    C6    A    
C6    C18   A    
C14   N2    D    
C11   O2    S    
C10   C11   D    
C2    C5    A    
O6    Zn2   S    
C24   C28   A    
C26   H6    S    
C13   H14   S    
C17   C20   A    
C24   C25   A    
C28   H7    S    
C16   C18   S    
C5    H1    S    
O4    Zn2   S    
O1    Zn1   S    
C1    O4    A    
O7    Zn1   S    
O10   Zn2   S    
C2    C3    A    
H9    O2    S    
C8    H11   S    
C4    O5    A    
C25   C26   A    
C22   H8    S    
C12   C21   A    
C21   H5    S    
C17   C21   A    
H15   N1    S    
C19   H4    S    
C8    C9    D    
C16   O10   A    
C1    C11   S    
