data_mof_unit_28580.cif
_audit_creation_date              2013-03-05T16:11:20-0500
_audit_creation_method            fapswitch 2.2
_symmetry_space_group_name_H-M    P1
_symmetry_Int_Tables_number       1
_space_group_crystal_system       triclinic
_cell_length_a                    8.295428
_cell_length_b                    16.192347
_cell_length_c                    17.377037
_cell_angle_alpha                 112.063789
_cell_angle_beta                  83.702514
_cell_angle_gamma                 95.506434
_cell_volume                      2146.33455182

loop_
_atom_site_label
_atom_site_type_symbol
_atom_site_description
_atom_site_fract_x
_atom_site_fract_y
_atom_site_fract_z
_atom_type_partial_charge
P1    P     P_3+3 0.533580 0.585010 0.696460 0.428636
O1    O     O_2   0.351410 0.559500 0.703710 -0.366055
O2    O     O_3   0.622300 0.553110 0.604480 -0.408157
O3    O     O_3   0.077860 0.395310 0.623380 -0.380292
O4    O     O_2   0.208330 0.436290 0.766740 -0.424005
O5    O     O_3   0.512663 0.700481 0.730413 -0.618254
O6    O     O_3   0.969209 0.311884 0.734535 -0.599203
H1    H     H_    0.182241 0.252029 0.722507 0.106959
C1    C     C_3   0.992683 0.153872 0.663749 0.583066
P2    P     P_3+3 0.097450 0.292710 0.397510 0.465832
P3    P     P_3+3 0.492096 0.232794 0.547774 0.451235
O7    O     O_2   0.261760 0.281010 0.418880 -0.398954
O8    O     O_3   0.488390 0.347430 0.574410 -0.371684
O9    O     O_2   0.347659 0.186607 0.494891 -0.389634
O10   O     O_3   0.092650 0.259202 0.288924 -0.559173
O11   O     O_3   0.449847 0.211163 0.639527 -0.531037
C2    C     C_3   0.552485 0.268180 0.699714 0.310729
H2    H     H_    0.496729 0.333077 0.733209 0.118719
H3    H     H_    0.674554 0.281920 0.671733 0.052325
C3    C     C_3   0.581375 0.224458 0.761106 -0.394760
H4    H     H_    0.636513 0.159854 0.725015 0.205128
C4    C     C_3   0.682218 0.262929 0.316682 0.457940
H5    H     H_    0.785806 0.300544 0.351881 0.118628
H6    H     H_    0.573100 0.265333 0.360426 0.085859
C5    C     C_3   0.725052 0.166115 0.270550 -0.989793
H7    H     H_    0.841547 0.162965 0.231889 0.307669
H8    H     H_    0.735538 0.133275 0.315188 0.212697
H9    H     H_    0.630418 0.128183 0.228534 0.263064
Ba1   Ba    Ba6+2 0.325860 0.460280 0.530510 1.524441
C6    C     C_3   0.661712 0.748987 0.746467 0.249978
H10   H     H_    0.657728 0.808304 0.729385 0.111411
H11   H     H_    0.762562 0.711135 0.706777 0.122114
C7    C     C_3   0.685751 0.781580 0.839294 -0.014650
H12   H     H_    0.574133 0.813225 0.875709 0.137765
H13   H     H_    0.707026 0.724185 0.856472 0.095044
C8    C     C_3   0.242794 0.268187 0.246241 0.638335
H14   H     H_    0.336136 0.308093 0.288617 0.015200
C9    C     C_3   0.214413 0.317820 0.189509 -0.074495
H15   H     H_    0.330700 0.327302 0.154420 0.066366
H16   H     H_    0.167673 0.383672 0.229102 0.156858
P4    P     P_3+3 0.656110 0.414920 0.303520 0.477087
O12   O     O_2   0.838300 0.440470 0.296230 -0.320417
O13   O     O_3   0.567380 0.446810 0.395500 -0.433564
O14   O     O_3   0.111820 0.604620 0.376600 -0.395092
O15   O     O_3   0.650296 0.298259 0.258312 -0.569516
P5    P     P_3+3 0.711691 0.771108 0.458924 0.451452
O16   O     O_3   0.149150 0.609060 0.561440 -0.417873
O17   O     O_3   0.701290 0.652490 0.425560 -0.395555
O18   O     O_2   0.879038 0.807003 0.493796 -0.374255
O19   O     O_3   0.722677 0.800011 0.370743 -0.553004
Ba2   Ba    Ba6+2 0.863950 0.539650 0.469460 1.524057
P6    P     P_3+3 0.041175 0.415109 0.729160 0.423337
C10   C     C_3   0.077817 0.246785 0.686223 0.331276
H17   H     H_    0.122990 0.253887 0.626334 0.131204
H18   H     H_    0.881922 0.152945 0.632537 0.030685
O20   O     O_3   0.040530 0.390860 0.438530 -0.373884
C11   C     C_3   0.051293 0.672613 0.746091 0.496839
H19   H     H_    0.924559 0.650483 0.756852 -0.018380
H20   H     H_    0.109378 0.614997 0.698577 0.136755
C12   C     C_3   0.129610 0.699585 0.828030 -0.889853
H21   H     H_    0.054110 0.747171 0.879156 0.248989
H22   H     H_    0.140755 0.639951 0.843548 0.210511
H23   H     H_    0.251997 0.732248 0.823615 0.277936
P7    P     P_3+3 0.097849 0.721511 0.616424 0.430152
O21   O     O_2   0.927940 0.718960 0.581060 -0.378021
O22   O     O_3   0.052579 0.747383 0.723773 -0.536358
H24   H     H_    0.670224 0.267338 0.805106 0.214790
C13   C     C_3   0.720407 0.722058 0.298775 0.311570
H25   H     H_    0.822512 0.681022 0.295123 0.147706
H26   H     H_    0.604096 0.681856 0.298279 0.042376
C14   C     C_3   0.739699 0.747278 0.221910 0.011352
H27   H     H_    0.852581 0.790724 0.222665 0.134475
H28   H     H_    0.751591 0.685689 0.165359 0.133750
P8    P     P_3+3 0.146568 0.596041 0.273248 0.416845
C15   C     C_3   0.222883 0.764282 0.336390 0.458188
H29   H     H_    0.352035 0.747498 0.327313 0.068929
O23   O     O_2   0.000128 0.540780 0.226768 -0.411593
O24   O     O_3   0.133765 0.703025 0.272387 -0.536518
H30   H     H_    0.169975 0.765672 0.398447 0.109148
H31   H     H_    0.286665 0.906228 0.385709 0.216319
C16   C     C_3   0.216355 0.857419 0.335443 -0.927619
H32   H     H_    0.088390 0.876565 0.345841 0.265742
H33   H     H_    0.269383 0.859240 0.274538 0.276136
C17   C     C_2   0.760159 0.496305 0.727989 -0.421990
C18   C     C_3   0.891598 0.501730 0.784061 0.184501
C19   C     C_2   0.816999 0.495101 0.865404 -0.207386
C20   C     C_2   0.659972 0.514606 0.891470 0.081640
C21   C     C_2   0.561963 0.539884 0.836238 -0.290663
C22   C     C_1   0.624229 0.536485 0.761281 0.281261
C23   C     C_R   0.417594 0.548739 0.148701 0.434617
C24   C     C_R   0.340039 0.544041 0.223960 0.086268
C25   C     C_R   0.565733 0.467102 0.239721 0.332404
C26   C     C_R   0.641297 0.468885 0.163550 -0.359048
C27   C     C_R   0.567553 0.508151 0.116613 0.009736
C28   C     C_2   0.578033 0.507862 0.970497 -0.104294
C29   C     C_2   0.654692 0.509883 0.036506 -0.123677
C30   C     C_R   0.413928 0.502011 0.266728 -0.579774
H34   H     H_    0.786297 0.512888 0.032759 0.120867
H35   H     H_    0.438087 0.558993 0.857136 0.169370
H36   H     H_    0.446540 0.500951 0.973299 0.179701
H37   H     H_    0.892595 0.475700 0.902104 0.137977
H38   H     H_    0.756646 0.438889 0.140279 0.193033
H39   H     H_    0.774182 0.456253 0.661847 0.169194
H40   H     H_    0.348327 0.492857 0.320103 0.174906
C31   C     C_2   0.430551 0.779385 0.568764 -0.296320
C32   C     C_R   0.808456 0.250067 0.480536 -0.520812
C33   C     C_2   0.231225 0.895574 0.623814 0.394060
C34   C     C_2   0.259190 0.807729 0.601472 0.034850
C35   C     C_2   0.538067 0.827638 0.534859 0.207723
C36   C     C_3   0.484567 0.915241 0.536904 -0.172095
C37   C     C_3   0.369728 0.959761 0.614174 0.106840
C38   C     C_2   0.621486 0.979045 0.526901 -0.056294
C39   C     C_2   0.597225 0.034982 0.489354 -0.099251
C40   C     C_R   0.878664 0.072972 0.441554 0.044348
C41   C     C_R   0.723873 0.100654 0.477217 -0.076396
C42   C     C_R   0.995221 0.132359 0.422784 -0.285187
C43   C     C_R   0.959009 0.220682 0.439862 0.353883
C44   C     C_R   0.688520 0.189876 0.495965 0.190337
H41   H     H_    0.111803 0.108381 0.393040 0.173086
H42   H     H_    0.781003 0.318715 0.495906 0.169933
H43   H     H_    0.736730 0.981520 0.552172 0.137837
H44   H     H_    0.477547 0.034533 0.469310 0.169232
O25   O     O_3   0.818206 0.844266 0.857792 -0.692813
H45   H     H_    0.827530 0.863101 0.918539 0.333842
C45   C     C_3   0.304247 0.175001 0.192290 -0.363052
C46   C     C_3   0.294918 0.111452 0.239184 -0.885541
H46   H     H_    0.357738 0.141876 0.297336 0.268672
H47   H     H_    0.165989 0.093366 0.253820 0.266676
H48   H     H_    0.353675 0.049093 0.199226 0.248786
H49   H     H_    0.231314 0.142127 0.137655 0.243473
H50   H     H_    0.431688 0.182869 0.167704 0.183165
O26   O     O_3   0.097122 0.090309 0.608886 -0.739739
H51   H     H_    0.027705 0.036036 0.580814 0.347370
O27   O     O_3   0.097833 0.270739 0.133656 -0.685161
H52   H     H_    0.090173 0.305376 0.097710 0.334492
O28   O     O_3   0.945807 0.134452 0.735559 -0.730694
H53   H     H_    0.046370 0.126275 0.757323 0.352102
O29   O     O_3   0.603390 0.789942 0.217792 -0.693175
H54   H     H_    0.615433 0.852511 0.257743 0.346507
O30   O     O_3   0.356570 0.596576 0.108379 -0.741512
H55   H     H_    0.239572 0.603901 0.125016 0.346252
O31   O     O_3   0.085016 0.932191 0.660647 -0.712748
H56   H     H_    0.003577 0.885689 0.665975 0.359432
C47   C     C_3   0.461001 0.684766 0.549141 -0.185213
C48   C     C_3   0.393188 0.634009 0.464335 -0.540830
H57   H     H_    0.278100 0.661448 0.468927 0.228960
H58   H     H_    0.445110 0.649269 0.409870 0.158793
H59   H     H_    0.379874 0.562370 0.450067 0.256663
H60   H     H_    0.588759 0.675413 0.554187 0.229716
H61   H     H_    0.400567 0.662475 0.597714 0.229352
C49   C     C_3   0.426711 0.205227 0.810314 -0.231833
C50   C     C_3   0.359988 0.289658 0.877127 -0.907793
H62   H     H_    0.451849 0.323758 0.922551 0.260445
H63   H     H_    0.326142 0.336268 0.849235 0.273978
H64   H     H_    0.249755 0.271345 0.911059 0.258572
H65   H     H_    0.332564 0.168205 0.767355 0.220004
H66   H     H_    0.456518 0.160938 0.841881 0.206481

loop_
_geom_bond_atom_site_label_1
_geom_bond_atom_site_label_2
_geom_bond_distance
_ccdc_geom_bond_type
C9    H16   1.109212 S    
C20   C21   1.509937 S    
C26   C27   1.420367 A    
O7    Ba1   2.858593 S    
P4    O12   1.532561 D    
C3    H24   1.111977 S    
C28   C29   1.359765 D    
C11   O22   1.402023 S    
C31   C47   1.479972 S    
C40   C41   1.400343 A    
C23   C24   1.417998 A    
O25   H45   0.992375 S    
C10   H17   1.110298 S    
C5    H9    1.105847 S    
P5    O18   1.548314 D    
C46   H46   1.107993 S    
O3    P6    1.739956 S    
C12   H23   1.107558 S    
C49   H66   1.111598 S    
O8    Ba1   2.735782 S    
P6    C18   1.867097 S    
O6    P6    1.752835 S    
Ba2   O20   2.787614 S    
P2    O10   1.760554 S    
C48   H57   1.073916 S    
C6    H10   1.110939 S    
P3    O9    1.546815 D    
C11   H20   1.097526 S    
C2    C3    1.533864 S    
C42   C43   1.402748 A    
C12   H22   1.109907 S    
P1    O1    1.532217 D    
Ba2   O21   2.858761 S    
O2    Ba1   2.913982 S    
C36   C37   1.534303 S    
C47   H61   1.093325 S    
C16   H33   1.110535 S    
C45   H49   1.111431 S    
O17   Ba2   2.736281 S    
C39   H44   1.086071 S    
C8    C45   1.547778 S    
O26   H51   0.992108 S    
C4    C5    1.525346 S    
C29   H34   1.083995 S    
P1    C22   1.848167 S    
C49   C50   1.528111 S    
O4    P6    1.551092 D    
P7    C34   1.909305 S    
C1    H18   1.113168 S    
P2    O20   1.573516 S    
O3    Ba1   2.841696 S    
O12   Ba2   2.851116 S    
C21   C22   1.330572 D    
C32   C44   1.401190 A    
P4    O13   1.599340 S    
C38   C39   1.339541 D    
C48   H58   1.099165 S    
C25   C30   1.390407 A    
C23   C27   1.421168 A    
C14   O29   1.402047 S    
C9    H15   1.113002 S    
C31   C34   1.518672 S    
P5    O17   1.781929 S    
O31   H56   0.986391 S    
P1    O5    1.756479 S    
C30   H40   1.074921 S    
C17   C18   1.515369 S    
O16   P7    1.778185 S    
C14   H28   1.109641 S    
O2    Ba2   2.870301 S    
C28   H36   1.083393 S    
C13   H25   1.107928 S    
C11   C12   1.523641 S    
O16   Ba2   2.895657 S    
C46   H48   1.110291 S    
C5    H7    1.108648 S    
C18   C19   1.517171 S    
P8    O23   1.546739 D    
C16   H32   1.111127 S    
C20   C28   1.501138 S    
C12   H21   1.109738 S    
P1    O2    1.599309 S    
P7    O22   1.756624 S    
P8    C24   1.853187 S    
H1    C10   1.104809 S    
C27   C29   1.505242 S    
C15   H29   1.110483 S    
C47   H60   1.102267 S    
P3    O11   1.749575 S    
C45   H50   1.110112 S    
C40   C42   1.397843 A    
C50   H64   1.110327 S    
C33   C34   1.362537 D    
C41   C44   1.409284 A    
C4    O15   1.396470 S    
P1    Ba1   3.377978 S    
C2    H2    1.109802 S    
C19   H37   1.083838 S    
C49   H65   1.108355 S    
O30   H55   0.987107 S    
C33   O31   1.383778 S    
O14   P8    1.741984 S    
P2    O7    1.498357 D    
O14   Ba2   2.840910 S    
O5    C6    1.395755 S    
Ba1   O16   2.788112 S    
O1    Ba1   2.850662 S    
C32   C43   1.397651 A    
C45   C46   1.526332 S    
C4    H6    1.110075 S    
C1    C10   1.526406 S    
C17   C22   1.320744 D    
O6    C10   1.406808 S    
C2    H3    1.114154 S    
O10   C8    1.402218 S    
C48   H59   1.088409 S    
Ba1   Ba2   4.507832 S    
C1    O26   1.404127 S    
C31   C35   1.360099 D    
C8    H14   1.109466 S    
C46   H47   1.109274 S    
C6    C7    1.526772 S    
C32   H42   1.082125 S    
C19   C20   1.357845 D    
C33   C37   1.512527 S    
C15   C16   1.520566 S    
C50   H63   1.108456 S    
H31   C16   1.110156 S    
C26   H38   1.082484 S    
C23   O30   1.381304 S    
C42   H41   1.079262 S    
O27   H52   0.993732 S    
Ba1   O20   2.896579 S    
C5    H8    1.107035 S    
P5    O19   1.753644 S    
C3    C49   1.535235 S    
C47   C48   1.531940 S    
P7    O21   1.589250 D    
C8    C9    1.534809 S    
C24   C30   1.396841 A    
C14   H27   1.114118 S    
P2    C43   1.850180 S    
C35   C36   1.513221 S    
C6    H11   1.097945 S    
P3    O8    1.738710 S    
P2    Ba1   3.399498 S    
O13   Ba2   2.914873 S    
C11   H19   1.097060 S    
O11   C2    1.410753 S    
O19   C13   1.404377 S    
C13   C14   1.525382 S    
C25   C26   1.410293 A    
C7    H13   1.111485 S    
C7    H12   1.113205 S    
C9    O27   1.402485 S    
C15   O24   1.406485 S    
C36   C38   1.501346 S    
C21   H35   1.085502 S    
O29   H54   0.992857 S    
C1    O28   1.404313 S    
C38   H43   1.086235 S    
P4    C25   1.874239 S    
C3    H4    1.110344 S    
C13   H26   1.109877 S    
P8    O24   1.751450 S    
P5    C35   1.892637 S    
C7    O25   1.399732 S    
C17   H39   1.086402 S    
P4    O15   1.750373 S    
C4    H5    1.103846 S    
O28   H53   0.992218 S    
C50   H62   1.110129 S    
P3    C44   1.836833 S    
C15   H30   1.111668 S    
P4    Ba2   3.378400 S    
Ba1   O13   2.869486 S    
C39   C41   1.477999 S    
