data_mof_unit_18475.cif
_audit_creation_date              2012-12-10T16:55:02-0500
_audit_creation_method            fapswitch 2.2
_symmetry_space_group_name_H-M    P1
_symmetry_Int_Tables_number       1
_space_group_crystal_system       triclinic
_cell_length_a                    9.691057
_cell_length_b                    10.952712
_cell_length_c                    15.525744
_cell_angle_alpha                 89.794066
_cell_angle_beta                  73.858223
_cell_angle_gamma                 89.330775
_cell_volume                      1582.87867981

loop_
_atom_site_label
_atom_site_type_symbol
_atom_type_description
_atom_site_fract_x
_atom_site_fract_y
_atom_site_fract_z
_atom_type_partial_charge
C1    C     C_R   0.998313 0.265954 0.505655 0.816890
C2    C     C_R   0.675819 0.480107 0.908797 0.091197
C3    C     C_R   0.774978 0.508126 0.957807 0.164315
C4    C     C_R   0.528727 0.459865 0.955098 0.069504
C5    C     C_R   0.480660 0.480114 0.049317 0.061116
C6    C     C_R   0.583849 0.505832 0.095687 -0.209873
C7    C     C_R   0.728054 0.518608 0.050637 -0.236392
C8    C     C_R   0.428666 0.418330 0.910683 -0.222599
C9    C     C_R   0.284935 0.402878 0.956207 -0.237933
C10   C     C_R   0.234757 0.429926 0.047134 0.170482
C11   C     C_R   0.331374 0.470969 0.094358 0.086315
C12   C     C_R   0.916888 0.500090 0.672114 0.760726
C13   C     C_R   0.088597 0.415128 0.091690 -0.220110
C14   C     C_R   0.036524 0.441332 0.182778 -0.191223
C15   C     C_R   0.274724 0.501874 0.185221 -0.232613
C16   C     C_2   0.880280 0.938233 0.514658 0.107526
C17   C     C_2   0.999385 0.866716 0.491142 -0.386223
C18   C     C_2   0.900947 0.068759 0.496984 -0.204639
C19   C     C_2   0.988807 0.137443 0.529715 -0.064617
C20   C     C_2   0.400064 0.434415 0.554313 0.080624
C21   C     C_2   0.558701 0.421255 0.544354 -0.042012
C22   C     C_R   0.998961 0.734756 0.499322 0.842040
C23   C     C_R   0.083159 0.497922 0.327909 0.795475
C24   C     C_R   0.871199 0.498804 0.770483 -0.047339
C25   C     C_R   0.129974 0.483729 0.230088 -0.058315
C26   C     C_R   0.920393 0.526811 0.913298 -0.213546
C27   C     C_R   0.968561 0.520924 0.820220 -0.197359
C28   C     C_R   0.726627 0.477982 0.814758 -0.255874
Cu1   Cu    Cu3+1 0.138640 0.500020 0.499980 1.025045
Cu2   Cu    Cu3+1 0.861360 0.499980 0.500020 0.942403
H1    H     H_    0.803089 0.538884 0.088859 0.153099
H2    H     H_    0.015056 0.380900 0.056391 0.140205
H3    H     H_    0.104111 0.908141 0.464096 0.155228
H4    H     H_    0.842160 0.109535 0.453618 0.151204
H5    H     H_    0.327147 0.385220 0.608729 0.056897
H6    H     H_    0.594305 0.345990 0.578756 0.122807
H7    H     H_    0.615255 0.578699 0.480500 0.262596
H8    H     H_    0.340862 0.541016 0.223073 0.174372
H9    H     H_    0.924332 0.425622 0.216499 0.166105
H10   H     H_    0.212286 0.370017 0.919677 0.144781
H11   H     H_    0.996522 0.548318 0.950404 0.143341
H12   H     H_    0.080920 0.537064 0.787203 0.153665
H13   H     H_    0.654710 0.464353 0.774017 0.149210
H14   H     H_    0.557716 0.513505 0.167550 0.170690
H15   H     H_    0.458515 0.392894 0.840950 0.135303
N1    N     N_2   0.346430 0.498660 0.500980 0.095964
N2    N     N_2   0.652550 0.498630 0.501000 -0.258740
O1    O     O_R   0.117050 0.321960 0.499980 -0.582386
O2    O     O_R   0.882890 0.321920 0.500020 -0.590428
O3    O     O_R   0.052910 0.500040 0.629810 -0.609606
O4    O     O_R   0.818750 0.499990 0.629840 -0.588694
O5    O     O_R   0.117110 0.678080 0.499980 -0.553836
O6    O     O_R   0.882950 0.678040 0.500020 -0.594060
O7    O     O_R   0.181250 0.500010 0.370160 -0.519009
O8    O     O_R   0.947090 0.499960 0.370190 -0.573753
C29   C     C_3   0.728798 0.889220 0.553172 -0.319606
C30   C     C_3   0.612756 0.988352 0.586995 -0.384491
C31   C     C_3   0.466081 0.931604 0.628497 -0.852024
H16   H     H_    0.434444 0.874158 0.578441 0.263110
H17   H     H_    0.468656 0.874705 0.687407 0.256863
H18   H     H_    0.384273 0.005037 0.650866 0.241444
H19   H     H_    0.641406 0.045720 0.638294 0.225640
H20   H     H_    0.604517 0.047665 0.530371 0.221359
H21   H     H_    0.699044 0.835376 0.500595 0.213815
H22   H     H_    0.728647 0.828526 0.610801 0.203445
C32   C     C_3   0.064215 0.093708 0.598680 -0.402463
C33   C     C_3   0.003677 0.160067 0.688521 -0.346042
C34   C     C_3   0.079089 0.118939 0.757984 -0.850773
H23   H     H_    0.068699 0.018766 0.768910 0.258404
H24   H     H_    0.194554 0.143065 0.735422 0.243706
H25   H     H_    0.029391 0.166021 0.822612 0.248242
H26   H     H_    0.018089 0.259925 0.679139 0.220573
H27   H     H_    0.886842 0.141661 0.714643 0.218900
H28   H     H_    0.052037 0.994717 0.612572 0.217941
H29   H     H_    0.181159 0.111416 0.572412 0.204363
F1    F     F_    0.436363 0.530963 0.422302 -0.580350

loop_
_geom_bond_atom_site_label_1
_geom_bond_atom_site_label_2
_ccdc_geom_bond_type
Cu2   O4    S    
C13   H2    S    
C24   C27   A    
C4    C8    A    
N1    F1    S    
C30   H19   S    
C21   H6    S    
C26   C27   A    
C5    C11   A    
C3    C7    A    
C5    C6    A    
C15   C25   A    
Cu1   O7    S    
C31   H17   S    
C29   H22   S    
C32   H28   S    
C29   C30   S    
C19   C32   S    
C33   H26   S    
C8    H15   S    
C14   H9    S    
C34   H23   S    
C20   H5    S    
C11   C15   A    
C8    C9    A    
C29   H21   S    
C33   H27   S    
H7    N2    S    
C9    C10   A    
C31   H18   S    
C32   C33   S    
C6    H14   S    
C13   C14   A    
C17   H3    S    
C30   H20   S    
C22   O6    A    
Cu1   O3    S    
Cu2   O6    S    
C1    C19   S    
C7    H1    S    
Cu1   O1    S    
C33   C34   S    
Cu2   N2    S    
C18   C19   D    
C31   H16   S    
C9    H10   S    
C2    C4    A    
C16   C29   S    
C15   H8    S    
Cu1   Cu2   S    
C18   H4    S    
C16   C18   S    
Cu2   O2    S    
C12   O4    A    
C23   O7    A    
C22   O5    A    
C3    C26   A    
C24   C28   A    
C4    C5    A    
C10   C13   A    
C12   O3    A    
C1    O1    A    
C23   O8    A    
C6    C7    A    
Cu2   O8    S    
C12   C24   S    
C28   H13   S    
C17   C22   S    
Cu1   N1    S    
C2    C3    A    
C27   H12   S    
C30   C31   S    
C16   C17   D    
C34   H25   S    
C32   H29   S    
C23   C25   S    
C14   C25   A    
C10   C11   A    
C20   C21   S    
C34   H24   S    
C2    C28   A    
C1    O2    A    
C20   N1    D    
C26   H11   S    
C21   N2    D    
Cu1   O5    S    
