data_mof_unit_38949.cif
_audit_creation_date              2012-12-10T18:58:14-0500
_audit_creation_method            fapswitch 2.2
_symmetry_space_group_name_H-M    P1
_symmetry_Int_Tables_number       1
_space_group_crystal_system       triclinic
_cell_length_a                    11.063317
_cell_length_b                    10.87319
_cell_length_c                    9.556617
_cell_angle_alpha                 89.390616
_cell_angle_beta                  103.408146
_cell_angle_gamma                 90.729497
_cell_volume                      1118.13911768

loop_
_atom_site_label
_atom_site_type_symbol
_atom_type_description
_atom_site_fract_x
_atom_site_fract_y
_atom_site_fract_z
_atom_type_partial_charge
C1    C     C_R   0.499162 0.262602 0.500116 0.852742
C2    C     C_R   0.499908 0.129601 0.499712 -0.094291
C3    C     C_R   0.509924 0.067107 0.375679 -0.304999
C4    C     C_R   0.498644 0.939546 0.369729 0.446713
C5    C     C_R   0.492462 0.871719 0.494983 -0.115033
C6    C     C_R   0.479749 0.935017 0.617666 -0.125804
C7    C     C_3   0.369001 0.928985 0.683550 0.328475
C8    C     C_3   0.367240 0.068754 0.678408 0.307062
C9    C     C_R   0.601785 0.540652 0.100033 0.168237
C10   C     C_R   0.407624 0.441576 0.051065 0.520896
C11   C     C_R   0.406801 0.445041 0.900856 -0.216549
C12   C     C_R   0.262571 0.499060 0.440919 0.881809
C13   C     C_R   0.600694 0.542633 0.952702 0.233987
C14   C     C_3   0.655376 0.669185 0.961473 -0.497497
C15   C     C_3   0.661859 0.664413 0.121688 -0.472059
C16   C     C_R   0.495677 0.737722 0.497931 0.830839
C17   C     C_R   0.737793 0.498261 0.559286 0.726740
C18   C     C_2   0.127065 0.499767 0.406628 -0.395907
C19   C     C_2   0.067842 0.490915 0.513340 -0.160990
C20   C     C_2   0.874334 0.489590 0.593812 0.272830
C21   C     C_2   0.933226 0.501360 0.486242 -0.228051
C22   C     C_R   0.480123 0.062871 0.617911 -0.040087
Cu1   Cu    Cu3+1 0.499990 0.499980 0.640670 0.933051
Cu2   Cu    Cu3+1 0.500010 0.500020 0.359330 0.981348
H1    H     H_    0.882562 0.522674 0.377204 0.144899
H2    H     H_    0.387636 0.114284 0.785627 -0.022146
H3    H     H_    0.329585 0.406244 0.823507 0.138453
H4    H     H_    0.748318 0.673327 0.936783 0.177349
H5    H     H_    0.588737 0.738534 0.903260 0.212652
H6    H     H_    0.758495 0.660232 0.188201 0.183425
H7    H     H_    0.603223 0.733264 0.156094 0.280484
H8    H     H_    0.120074 0.479505 0.623855 0.215697
H9    H     H_    0.075997 0.509844 0.295443 0.164034
H10   H     H_    0.518508 0.116841 0.279555 0.172137
H11   H     H_    0.393634 0.891570 0.795588 0.009404
N1    N     N_R   0.500780 0.500930 0.148120 -0.220431
N2    N     N_R   0.500790 0.500890 0.852210 -0.201861
O1    O     O_R   0.500000 0.319640 0.618810 -0.578730
O2    O     O_R   0.500010 0.319680 0.381230 -0.571722
O3    O     O_R   0.320680 0.500000 0.575130 -0.607700
O4    O     O_R   0.320690 0.500040 0.337550 -0.525312
O5    O     O_R   0.499990 0.680320 0.618770 -0.593328
O6    O     O_R   0.500000 0.680360 0.381190 -0.550463
O7    O     O_R   0.679310 0.499960 0.662450 -0.578513
O8    O     O_R   0.679320 0.500000 0.424870 -0.599904
O9    O     O_3   0.310355 0.389056 0.100395 -0.550443
C23   C     C_3   0.280345 0.269812 0.044908 0.007205
H12   H     H_    0.364885 0.215771 0.042588 0.119599
H13   H     H_    0.219282 0.275876 0.935166 0.135508
C24   C     C_3   0.208383 0.201399 0.139901 -0.742748
H14   H     H_    0.124380 0.253762 0.146491 0.241502
H15   H     H_    0.178807 0.109539 0.093945 0.178714
H16   H     H_    0.267511 0.189455 0.250002 0.266979
O10   O     O_3   0.940758 0.451656 0.729087 -0.592196
C25   C     C_3   0.927356 0.535348 0.836213 0.062901
H17   H     H_    0.854110 0.500267 0.888807 0.178616
H18   H     H_    0.903733 0.630281 0.793973 0.117955
C26   C     C_3   0.048555 0.542459 0.950194 -0.801447
H19   H     H_    0.126314 0.568937 0.900080 0.249586
H20   H     H_    0.041077 0.611909 0.032051 0.196541
H21   H     H_    0.068314 0.451719 0.004172 0.274904
O11   O     O_3   0.486118 0.882516 0.238837 -0.598858
C27   C     C_3   0.361871 0.893215 0.158095 0.057528
H22   H     H_    0.357055 0.969478 0.078734 0.137708
H23   H     H_    0.293260 0.911384 0.224739 0.162122
C28   C     C_3   0.321675 0.774244 0.077158 -0.803960
H24   H     H_    0.326687 0.696192 0.153603 0.286056
H25   H     H_    0.223947 0.781456 0.016002 0.198331
H26   H     H_    0.381853 0.755395 0.001927 0.233230
O12   O     O_3   0.264670 0.876123 0.586902 -0.545010
C29   C     C_3   0.203512 0.788358 0.656644 0.105051
H27   H     H_    0.268900 0.728395 0.733384 0.139182
H28   H     H_    0.149301 0.726958 0.572885 0.178813
C30   C     C_3   0.112072 0.850218 0.729897 -0.873219
H29   H     H_    0.161892 0.913332 0.814873 0.226385
H30   H     H_    0.042844 0.902800 0.649709 0.260269
H31   H     H_    0.062282 0.779492 0.779904 0.212423
O13   O     O_3   0.265308 0.114505 0.573029 -0.537888
C31   C     C_3   0.178085 0.169712 0.638320 0.104131
H32   H     H_    0.210122 0.264089 0.672197 0.133886
H33   H     H_    0.163263 0.116555 0.733167 0.120956
C32   C     C_3   0.054283 0.177853 0.528993 -0.735595
H34   H     H_    0.019850 0.084348 0.493446 0.242518
H35   H     H_    0.065430 0.231987 0.433533 0.248496
H36   H     H_    0.984859 0.223073 0.578017 0.222385

loop_
_geom_bond_atom_site_label_1
_geom_bond_atom_site_label_2
_ccdc_geom_bond_type
C28   H25   S    
C25   H17   S    
C27   H23   S    
C8    H2    S    
Cu2   O2    S    
C7    O12   S    
C7    C8    S    
C23   H13   S    
Cu2   N1    S    
Cu1   O5    S    
C30   H30   S    
C15   H6    S    
Cu2   O8    S    
C19   C21   S    
C17   O8    A    
C1    C2    S    
C5    C6    A    
C28   H26   S    
C26   H20   S    
Cu1   O3    S    
C6    C22   A    
C4    O11   S    
C17   C20   S    
C18   C19   D    
C11   N2    A    
C9    C13   A    
C5    C16   S    
O10   C25   S    
C30   H31   S    
C2    C22   A    
C9    N1    A    
C8    C22   S    
Cu1   Cu2   S    
O12   C29   S    
C13   N2    A    
C26   H21   S    
C28   H24   S    
C27   C28   S    
C13   C14   S    
C8    O13   S    
Cu2   O4    S    
C19   H8    S    
C23   C24   S    
C24   H16   S    
C30   H29   S    
C20   O10   S    
C31   H33   S    
O13   C31   S    
C3    H10   S    
C26   H19   S    
Cu1   N2    S    
Cu1   O7    S    
C31   H32   S    
C12   O3    A    
C10   O9    S    
O11   C27   S    
C31   C32   S    
C24   H15   S    
C23   H12   S    
C11   H3    S    
C24   H14   S    
C16   O6    A    
C1    O1    A    
C32   H35   S    
C25   H18   S    
C14   H5    S    
C3    C4    A    
Cu1   O1    S    
C16   O5    A    
C12   O4    A    
C29   H28   S    
C21   H1    S    
O9    C23   S    
C7    H11   S    
C4    C5    A    
C29   C30   S    
C15   H7    S    
C6    C7    S    
C32   H36   S    
C2    C3    A    
C9    C15   S    
C17   O7    A    
C29   H27   S    
C18   H9    S    
C10   C11   A    
C1    O2    A    
C27   H22   S    
C20   C21   D    
C32   H34   S    
C25   C26   S    
C12   C18   S    
Cu2   O6    S    
C14   C15   S    
C10   N1    A    
C14   H4    S    
