data_mof_unit_36955.cif
_audit_creation_date              2012-12-10T16:49:30-0500
_audit_creation_method            fapswitch 2.2
_symmetry_space_group_name_H-M    P1
_symmetry_Int_Tables_number       1
_space_group_crystal_system       triclinic
_cell_length_a                    7.822455
_cell_length_b                    8.563784
_cell_length_c                    12.842252
_cell_angle_alpha                 89.173702
_cell_angle_beta                  88.00264
_cell_angle_gamma                 93.255801
_cell_volume                      858.273684704

loop_
_atom_site_label
_atom_site_type_symbol
_atom_type_description
_atom_site_fract_x
_atom_site_fract_y
_atom_site_fract_z
_atom_type_partial_charge
C1    C     C_R   0.455181 0.205623 0.497390 0.951413
C2    C     C_R   0.694533 0.425501 0.142583 -0.164323
C3    C     C_R   0.572899 0.445148 0.869451 -0.167989
C4    C     C_R   0.427108 0.554874 0.130549 -0.167980
C5    C     C_R   0.569494 0.462480 0.976007 0.016129
C6    C     C_R   0.430520 0.537557 0.023992 0.016131
C7    C     C_2   0.431528 0.042222 0.495848 -0.336242
C8    C     C_2   0.568472 0.957778 0.504152 -0.336242
C9    C     C_R   0.544818 0.794376 0.502610 0.951409
C10   C     C_R   0.465727 0.501403 0.699507 0.898094
C11   C     C_R   0.534274 0.498599 0.300493 0.898095
C12   C     C_R   0.555414 0.495700 0.189404 -0.139116
C13   C     C_R   0.444591 0.504315 0.810596 -0.139101
C14   C     C_R   0.297483 0.592047 0.964338 0.435589
C15   C     C_R   0.702535 0.407999 0.035661 0.435586
C16   C     C_R   0.305482 0.574538 0.857416 -0.164345
Cl1   Cl    Cl    0.120968 0.685934 0.018897 -0.532258
Cl2   Cl    Cl    0.879050 0.314108 0.981102 -0.532257
Cl3   Cl    Cl    0.979772 0.670041 0.381718 -0.460946
Cl4   Cl    Cl    0.020228 0.329958 0.618282 -0.460941
H1    H     H_    0.322807 0.611891 0.168945 0.233293
H2    H     H_    0.677200 0.388137 0.831056 0.233296
H3    H     H_    0.793850 0.379885 0.189214 0.206976
H4    H     H_    0.206162 0.620141 0.810786 0.206977
H5    H     H_    0.301858 0.991936 0.487874 0.213386
H6    H     H_    0.698142 0.008063 0.512126 0.213386
N1    N     N_2   0.054030 0.541640 0.471970 0.129986
N2    N     N_2   0.945970 0.458360 0.528030 0.129986
O1    O     O_R   0.609680 0.261530 0.506880 -0.608416
O2    O     O_R   0.390320 0.738470 0.493120 -0.608417
O3    O     O_R   0.323330 0.288220 0.488910 -0.581326
O4    O     O_R   0.676670 0.711780 0.511090 -0.581326
O5    O     O_R   0.619510 0.488830 0.661140 -0.606227
O6    O     O_R   0.380490 0.511170 0.338860 -0.606224
O7    O     O_R   0.333160 0.515520 0.643180 -0.588548
O8    O     O_R   0.666840 0.484480 0.356820 -0.588552
Zn1   Zn    Zn3+2 0.691200 0.482180 0.511990 1.100523
Zn2   Zn    Zn3+2 0.308800 0.517820 0.488010 1.100524

loop_
_geom_bond_atom_site_label_1
_geom_bond_atom_site_label_2
_ccdc_geom_bond_type
C15   Cl2   S    
C11   C12   S    
C10   O7    A    
C4    H1    S    
C4    C12   A    
Cl3   N1    S    
C3    C13   A    
O3    Zn2   S    
C2    C12   A    
C1    O1    A    
C7    C8    D    
C16   H4    S    
C1    C7    S    
O4    Zn1   S    
C2    C15   A    
C14   Cl1   S    
N2    Zn1   S    
C9    O2    A    
C11   O8    A    
C10   O5    A    
C5    C6    A    
C14   C16   A    
C5    C15   A    
C6    C14   A    
N1    Zn2   S    
C1    O3    A    
O7    Zn2   S    
C8    H6    S    
O2    Zn2   S    
C4    C6    A    
C13   C16   A    
O1    Zn1   S    
C2    H3    S    
O8    Zn1   S    
C3    H2    S    
Cl4   N2    S    
C9    O4    A    
C3    C5    A    
O6    Zn2   S    
C11   O6    A    
O5    Zn1   S    
C8    C9    S    
N1    N2    D    
C10   C13   S    
C7    H5    S    
