data_mof_unit_47918.cif
_audit_creation_date              2012-10-26T20:15:00-0400
_audit_creation_method            fapswitch 2.2
_symmetry_space_group_name_H-M    P1
_symmetry_Int_Tables_number       1
_space_group_crystal_system       triclinic
_cell_length_a                    17.716155
_cell_length_b                    9.083823
_cell_length_c                    7.791923
_cell_angle_alpha                 90.000101
_cell_angle_beta                  89.997784
_cell_angle_gamma                 90.0
_cell_volume                      1253.95741092

loop_
_atom_site_label
_atom_site_type_symbol
_atom_type_description
_atom_site_fract_x
_atom_site_fract_y
_atom_site_fract_z
_atom_type_partial_charge
C1    C     C_R   0.500000 0.220057 0.500000 0.553411
C2    C     C_R   0.845122 0.406966 0.384676 0.228153
C3    C     C_R   0.766622 0.587313 0.616572 -0.117657
C4    C     C_R   0.233378 0.587314 0.383430 -0.117657
C5    C     C_R   0.233738 0.410815 0.616458 -0.101024
C6    C     C_R   0.766262 0.410816 0.383541 -0.101024
C7    C     C_R   0.727064 0.499517 0.499908 -0.060312
C8    C     C_R   0.272936 0.499517 0.500092 -0.060311
C9    C     C_R   0.885053 0.497966 0.500250 0.021287
C10   C     C_R   0.114947 0.497966 0.499750 0.021289
C11   C     C_1   0.966124 0.496998 0.500295 0.193905
C12   C     C_R   0.500000 0.779943 0.500000 0.552883
C13   C     C_1   0.033876 0.496998 0.499706 0.193906
C14   C     C_1   0.500000 0.065396 0.500000 -0.027811
C15   C     C_1   0.500000 0.934604 0.500000 -0.028353
C16   C     C_R   0.355392 0.499951 0.500009 0.545253
C17   C     C_R   0.644607 0.499951 0.499991 0.545254
C18   C     C_R   0.845477 0.590010 0.615435 0.189596
C19   C     C_R   0.154523 0.590012 0.384567 0.189597
C20   C     C_R   0.154878 0.406964 0.615323 0.228152
Cu1   Cu    Cu3+1 0.500000 0.500000 0.669080 1.059550
Cu2   Cu    Cu3+1 0.500000 0.500000 0.330920 1.059550
H1    H     H_    0.735680 0.655792 0.705975 0.166333
H2    H     H_    0.264320 0.655794 0.294027 0.166332
H3    H     H_    0.264975 0.341840 0.704835 0.173774
H4    H     H_    0.735025 0.341842 0.295162 0.173775
H5    H     H_    0.816471 0.893726 0.771005 0.356240
H6    H     H_    0.183529 0.893729 0.229005 0.356241
H7    H     H_    0.031509 0.100931 0.721856 0.414951
H8    H     H_    0.968479 0.100915 0.278139 0.414955
N1    N     N_1   0.500000 0.500000 0.076820 -0.069876
N2    N     N_1   0.500000 0.500000 0.923180 -0.069876
O1    O     O_R   0.500000 0.288390 0.642760 -0.494405
O2    O     O_2   0.950686 0.798646 0.665834 -0.224998
O3    O     O_3   0.831885 0.821701 0.859813 -0.471791
O4    O     O_2   0.067565 0.616569 0.107273 -0.127354
O5    O     O_2   0.049314 0.798648 0.334173 -0.224999
O6    O     O_3   0.168115 0.821705 0.140194 -0.471788
O7    O     O_2   0.162278 0.210384 0.875081 -0.245677
O8    O     O_2   0.050642 0.369297 0.859115 -0.177658
O9    O     O_3   0.062526 0.156665 0.638377 -0.460980
O10   O     O_2   0.837722 0.210394 0.124908 -0.245686
O11   O     O_2   0.949361 0.369297 0.140891 -0.177653
O12   O     O_R   0.500000 0.711610 0.357240 -0.494358
O13   O     O_3   0.937469 0.156660 0.361618 -0.460989
O14   O     O_R   0.500000 0.711610 0.642760 -0.494358
O15   O     O_R   0.500000 0.288390 0.357240 -0.494404
O16   O     O_R   0.391250 0.500000 0.642840 -0.494938
O17   O     O_R   0.608750 0.500000 0.357160 -0.494938
O18   O     O_R   0.608750 0.500000 0.642840 -0.494972
O19   O     O_R   0.391250 0.500000 0.357160 -0.494972
O20   O     O_2   0.932434 0.616563 0.892729 -0.127355
S1    S     S_3+6 0.892923 0.708424 0.760232 0.087743
S2    S     S_3+6 0.107077 0.708427 0.239773 0.087745
S3    S     S_3+6 0.107527 0.284733 0.755835 0.074152
S4    S     S_3+6 0.892473 0.284735 0.244162 0.074151

loop_
_geom_bond_atom_site_label_1
_geom_bond_atom_site_label_2
_ccdc_geom_bond_type
C17   O18   A    
C5    C8    A    
C4    C19   A    
C16   O19   A    
C6    C7    A    
O3    S1    S    
C9    C11   S    
C9    C18   A    
H8    O13   S    
C3    H1    S    
N1    N2    T    
O6    S2    S    
C12   C15   S    
H6    O6    S    
C10   C19   A    
C4    C8    A    
Cu1   O16   S    
H7    O9    S    
C16   O16   A    
O9    S3    S    
Cu2   O15   S    
C1    O1    A    
C12   O12   A    
C5    C20   A    
C2    S4    S    
Cu1   Cu2   S    
O10   S4    D    
C11   C13   T    
C6    H4    S    
O2    S1    D    
C20   S3    S    
C5    H3    S    
O5    S2    D    
C19   S2    S    
Cu1   O18   S    
C3    C7    A    
Cu2   O17   S    
C4    H2    S    
Cu1   N2    S    
Cu2   O12   S    
Cu1   O1    S    
Cu2   N1    S    
O11   S4    D    
O4    S2    D    
O20   S1    D    
C3    C18   A    
C12   O14   A    
Cu1   O14   S    
C8    C16   S    
C17   O17   A    
C14   C15   T    
C1    O15   A    
C1    C14   S    
C18   S1    S    
H5    O3    S    
C2    C9    A    
O7    S3    D    
C2    C6    A    
O13   S4    S    
C10   C20   A    
Cu2   O19   S    
C7    C17   S    
C10   C13   S    
O8    S3    D    
