data_mof_unit_30308.cif
_audit_creation_date              2012-12-11T19:09:18-0500
_audit_creation_method            fapswitch 2.2
_symmetry_space_group_name_H-M    P1
_symmetry_Int_Tables_number       1
_space_group_crystal_system       triclinic
_cell_length_a                    8.536578
_cell_length_b                    15.002886
_cell_length_c                    26.814428
_cell_angle_alpha                 98.884801
_cell_angle_beta                  93.238883
_cell_angle_gamma                 80.862582
_cell_volume                      3348.14881283

loop_
_atom_site_label
_atom_site_type_symbol
_atom_type_description
_atom_site_fract_x
_atom_site_fract_y
_atom_site_fract_z
_atom_type_partial_charge
Ba1   Ba    Ba6+2 0.860050 0.456430 0.522540 1.690389
Ba2   Ba    Ba6+2 0.329780 0.543490 0.477450 1.696930
C1    C     C_3   0.576817 0.180511 0.689446 0.162733
C2    C     C_R   0.939617 0.595385 0.186885 0.639388
C3    C     C_2   0.754193 0.531752 0.270292 0.378258
C4    C     C_3   0.138110 0.269994 0.655527 0.294826
C5    C     C_3   0.713178 0.527729 0.324825 -0.152335
C6    C     C_1   0.993862 0.493366 0.344890 0.084776
C7    C     C_2   0.034738 0.492851 0.297691 -0.187806
C8    C     C_2   0.909496 0.514109 0.257724 0.234486
C9    C     C_R   0.032655 0.512980 0.105324 -0.089721
C10   C     C_R   0.043983 0.430533 0.125574 -0.032289
C11   C     C_R   0.088181 0.347478 0.094207 -0.055669
C12   C     C_3   0.635924 0.232595 0.650987 0.290962
C13   C     C_R   0.979436 0.597092 0.136022 -0.042085
C14   C     C_2   0.855786 0.539734 0.360070 -0.299728
C15   C     C_2   0.347495 0.480403 0.641956 -0.288950
C16   C     C_3   0.115348 0.247846 0.707854 -0.347572
C17   C     C_R   0.191920 0.425572 0.975218 0.020496
C18   C     C_R   0.072262 0.587075 0.979256 0.025527
C19   C     C_R   0.147025 0.504486 0.951293 0.034900
C20   C     C_R   0.292816 0.350035 0.948528 0.045290
C21   C     C_R   0.316703 0.347077 0.896942 -0.060506
C22   C     C_R   0.260062 0.421517 0.871765 -0.047726
C23   C     C_3   0.482472 0.687876 0.634960 0.758017
C24   C     C_R   0.179344 0.501429 0.899257 -0.084281
C25   C     C_R   0.131847 0.578573 0.874819 -0.026378
C26   C     C_R   0.167828 0.575168 0.823611 0.583733
C27   C     C_R   0.291724 0.419448 0.820316 0.575643
C28   C     C_3   0.175570 0.238297 0.396425 0.630959
C29   C     C_2   0.450240 0.480983 0.732240 0.004858
C30   C     C_3   0.489247 0.482949 0.677736 0.023369
C31   C     C_1   0.206640 0.519125 0.658145 -0.032342
C32   C     C_2   0.168205 0.515640 0.705139 -0.170909
C33   C     C_2   0.294424 0.496014 0.745244 0.239968
C34   C     C_3   0.469598 0.723073 0.691368 -0.253091
C35   C     C_R   0.135542 0.426505 0.024640 0.025062
C36   C     C_R   0.073315 0.510570 0.053991 0.052700
C37   C     C_R   0.048896 0.591625 0.032004 0.002110
C38   C     C_R   0.129322 0.345591 0.044557 -0.111746
C39   C     C_R   0.968434 0.679179 0.114534 0.056455
C40   C     C_3   0.102911 0.151463 0.375284 0.276878
C41   C     C_R   0.021818 0.662304 0.953212 -0.101433
C42   C     C_R   0.051137 0.658034 0.902249 -0.063395
C43   C     C_R   0.001876 0.674879 0.063465 -0.079966
C44   C     C_R   0.362719 0.178361 0.537096 0.001153
C45   C     C_3   0.097405 0.743660 0.350745 0.371971
C46   C     C_R   0.587727 0.213419 0.495497 0.067044
C47   C     C_R   0.765072 0.771713 0.493646 -0.255441
C48   C     C_R   0.852730 0.830997 0.476736 0.039460
C49   C     C_R   0.792624 0.924221 0.480525 -0.093984
C50   C     C_R   0.642186 0.959704 0.501384 0.022783
C51   C     C_R   0.556868 0.897964 0.520005 -0.038239
C52   C     C_3   0.954512 0.744722 0.659891 0.687519
C53   C     C_R   0.575444 0.054538 0.505908 0.004446
C54   C     C_R   0.427411 0.084942 0.529886 -0.071134
C55   C     C_R   0.348490 0.021877 0.547672 -0.062546
C56   C     C_3   0.107457 0.775206 0.299983 -0.310627
C57   C     C_R   0.412489 0.931125 0.543451 -0.022821
C58   C     C_R   0.649198 0.120103 0.486965 -0.195306
C59   C     C_R   0.450246 0.242393 0.523889 0.139407
C60   C     C_R   0.618720 0.804163 0.515539 0.007734
C61   C     C_3   0.071392 0.768421 0.703727 -0.416845
C62   C     C_3   0.679945 0.280022 0.351232 0.328591
C63   C     C_3   0.728363 0.201793 0.307648 -0.282497
C64   C     C_3   0.755924 0.168569 0.616680 -0.263224
C65   C     C_3   0.868001 0.834623 0.644635 -0.178379
C66   C     C_3   0.807195 0.337785 0.364168 -0.231618
C67   C     C_3   0.619391 0.756932 0.351303 0.431797
C68   C     C_3   0.535690 0.339542 0.331330 -0.305560
C69   C     C_3   0.584986 0.478405 0.771283 -0.311943
C70   C     C_3   0.399556 0.278922 0.974120 -0.415267
C71   C     C_3   0.921919 0.773035 0.144389 -0.304254
C72   C     C_3   0.349843 0.208725 0.399335 -0.275047
C73   C     C_3   0.581565 0.857240 0.342779 0.975641
C74   C     C_R   0.005639 0.432249 0.176238 0.609533
H1    H     H_    0.161070 0.092337 0.393733 0.034188
H2    H     H_    0.486314 0.226964 0.713232 0.091484
H3    H     H_    0.362810 0.673790 0.620054 -0.101536
H4    H     H_    0.405728 0.793840 0.697458 0.068740
H5    H     H_    0.408859 0.677598 0.709842 0.025236
H6    H     H_    0.586962 0.724759 0.710622 0.158686
H7    H     H_    0.677163 0.157549 0.715010 0.111241
H8    H     H_    0.115927 0.310234 0.736052 0.117407
H9    H     H_    0.218378 0.715549 0.363314 0.117456
H10   H     H_    0.019847 0.689917 0.345938 -0.016266
H11   H     H_    0.184052 0.829303 0.303690 0.145914
H12   H     H_    0.976914 0.159266 0.384958 0.045319
H13   H     H_    0.159094 0.716778 0.272110 0.103264
H14   H     H_    0.987051 0.802866 0.286230 0.167442
H15   H     H_    0.732064 0.725418 0.332637 -0.027025
H16   H     H_    0.635014 0.755332 0.392648 -0.117137
H17   H     H_    0.044177 0.327124 0.648562 0.112208
H18   H     H_    0.157375 0.472988 0.287049 0.133466
H19   H     H_    0.089460 0.283004 0.107810 0.125120
H20   H     H_    0.389296 0.287696 0.877087 0.122937
H21   H     H_    0.151094 0.279533 0.021571 0.083336
H22   H     H_    0.954955 0.725135 0.970973 0.068691
H23   H     H_    0.144612 0.705584 0.713534 0.115035
H24   H     H_    0.256591 0.291639 0.654884 -0.034902
H25   H     H_    0.010383 0.717947 0.884359 0.118917
H26   H     H_    0.044802 0.525206 0.714934 0.115787
H27   H     H_    0.995172 0.738771 0.049202 0.068392
H28   H     H_    0.842851 0.577106 0.398011 0.077587
H29   H     H_    0.368374 0.467073 0.602041 0.126037
H30   H     H_    0.237130 0.041514 0.566451 0.102816
H31   H     H_    0.751945 0.100459 0.463922 0.105798
H32   H     H_    0.813159 0.699924 0.490759 0.071490
H33   H     H_    0.865902 0.966878 0.466852 0.094538
H34   H     H_    0.005806 0.803344 0.737705 0.127470
H35   H     H_    0.999931 0.223376 0.709199 0.137863
H36   H     H_    0.345656 0.887866 0.559446 0.096095
H37   H     H_    0.212015 0.194118 0.717741 0.138816
H38   H     H_    0.701892 0.110538 0.596271 0.096694
H39   H     H_    0.797000 0.206092 0.588656 0.138610
H40   H     H_    0.859687 0.140378 0.639284 0.126947
H41   H     H_    0.088256 0.069378 0.312690 0.310220
H42   H     H_    0.884177 0.662352 0.701760 0.288211
H43   H     H_    0.789206 0.820616 0.611052 0.101975
H44   H     H_    0.794896 0.874503 0.675895 0.094050
H45   H     H_    0.147871 0.815123 0.693255 0.081604
H46   H     H_    0.953892 0.876809 0.634455 0.032932
H47   H     H_    0.893276 0.303032 0.387809 0.155565
H48   H     H_    0.858796 0.349599 0.329205 0.055886
H49   H     H_    0.762844 0.402241 0.388717 0.032961
H50   H     H_    0.554369 0.352491 0.292498 0.067240
H51   H     H_    0.426906 0.307939 0.329749 0.144864
H52   H     H_    0.523941 0.406774 0.354629 0.139355
H53   H     H_    0.413108 0.126498 0.648141 0.307253
H54   H     H_    0.555025 0.565376 0.602237 0.277720
H55   H     H_    0.675327 0.968250 0.359640 0.323955
H56   H     H_    0.812828 0.145898 0.320601 0.130988
H57   H     H_    0.452294 0.901195 0.401898 0.286504
H58   H     H_    0.471382 0.841024 0.276994 0.318080
H59   H     H_    0.669271 0.523407 0.763444 0.105971
H60   H     H_    0.544337 0.503239 0.810224 0.103435
H61   H     H_    0.648791 0.407630 0.769607 0.148295
H62   H     H_    0.417959 0.301978 0.015053 0.132651
H63   H     H_    0.351155 0.213503 0.967601 0.117654
H64   H     H_    0.519909 0.266183 0.958231 0.120359
H65   H     H_    0.535004 0.541411 0.246168 0.313550
H66   H     H_    0.798758 0.780423 0.157428 0.171004
H67   H     H_    0.780655 0.226244 0.276174 0.118481
H68   H     H_    0.005996 0.783993 0.177097 0.141513
H69   H     H_    0.924938 0.828531 0.121584 0.085106
H70   H     H_    0.359457 0.362977 0.512992 0.301518
H71   H     H_    0.396292 0.178441 0.361573 0.149731
H72   H     H_    0.392817 0.273126 0.413263 0.059413
H73   H     H_    0.381428 0.158036 0.425592 0.021546
H74   H     H_    0.186803 0.311352 0.463273 0.279871
H75   H     H_    0.622946 0.170362 0.292143 0.113098
H76   H     H_    0.531452 0.259155 0.627941 -0.001091
N1    N     N_R   0.954111 0.513919 0.206102 -0.409025
N2    N     N_R   0.248975 0.496497 0.797036 -0.422462
O1    O     O_2   0.906490 0.548660 0.619040 -0.371773
O2    O     O_2   0.181383 0.826552 0.473178 -0.482815
O3    O     O_3   0.034291 0.818108 0.385756 -0.578420
O4    O     O_3   0.138490 0.548590 0.558860 -0.464231
O5    O     O_3   0.572560 0.389970 0.472910 -0.487664
O6    O     O_2   0.345680 0.723560 0.528460 -0.463630
O7    O     O_3   0.531642 0.754993 0.611243 -0.637857
O8    O     O_2   0.378251 0.560731 0.325749 -0.516050
O9    O     O_3   0.495203 0.710087 0.330505 -0.628146
O10   O     O_2   0.016423 0.360821 0.193702 -0.583218
O11   O     O_2   0.359337 0.349289 0.796370 -0.624486
O12   O     O_3   0.649148 0.237959 0.392713 -0.652901
O13   O     O_2   0.891049 0.666040 0.214226 -0.598217
O14   O     O_2   0.129330 0.642874 0.802978 -0.619133
O15   O     O_3   0.686290 0.382320 0.585720 -0.440816
O16   O     O_2   0.814510 0.449317 0.672414 -0.475271
O17   O     O_3   0.036002 0.696232 0.616724 -0.625560
O18   O     O_3   0.712529 0.302167 0.678269 -0.634158
O19   O     O_2   0.844020 0.276410 0.471510 -0.411178
O20   O     O_3   0.101490 0.335510 0.560360 -0.444431
O21   O     O_2   0.036121 0.171774 0.523974 -0.467623
O22   O     O_3   0.119526 0.130735 0.322837 -0.714445
O23   O     O_3   0.125139 0.192779 0.619386 -0.634994
O24   O     O_3   0.838707 0.698615 0.674978 -0.694901
O25   O     O_3   0.513249 0.103557 0.665640 -0.741883
O26   O     O_3   0.596392 0.609574 0.628978 -0.679237
O27   O     O_3   0.704713 0.903515 0.364846 -0.754435
O28   O     O_3   0.436549 0.898470 0.364737 -0.741573
O29   O     O_3   0.572113 0.861849 0.290671 -0.690896
O30   O     O_3   0.639306 0.543011 0.232445 -0.703354
O31   O     O_3   0.404681 0.332736 0.541734 -0.748012
O32   O     O_3   0.117552 0.270274 0.444710 -0.726405
O33   O     O_2   0.283210 0.451320 0.380930 -0.488359
O34   O     O_3   0.051220 0.451340 0.441130 -0.478567
O35   O     O_3   0.503420 0.617610 0.414270 -0.460575
O36   O     O_3   0.143781 0.304854 0.362808 -0.620684
O37   O     O_3   0.617160 0.609950 0.527080 -0.461937
O38   O     O_3   0.088220 0.664410 0.439630 -0.500344
P1    P     P_3+3 0.071960 0.575810 0.612130 1.048360
P2    P     P_3+3 0.664360 0.290070 0.457280 0.997036
P3    P     P_3+3 0.157272 0.218935 0.559700 0.982569
P4    P     P_3+3 0.117760 0.424110 0.387870 0.988377
P5    P     P_3+3 0.041058 0.783957 0.445533 0.979701
P6    P     P_3+3 0.669432 0.403687 0.652082 0.987772
P7    P     P_3+3 0.526972 0.723522 0.545423 0.989063
P8    P     P_3+3 0.526039 0.601623 0.348916 0.928030

loop_
_geom_bond_atom_site_label_1
_geom_bond_atom_site_label_2
_ccdc_geom_bond_type
C68   H51   S    
C73   O28   S    
O5    P2    S    
C53   C54   A    
O33   P4    D    
H70   O31   S    
O2    P5    D    
C33   N2    S    
H58   O29   S    
O17   P1    S    
C73   O29   S    
C56   H11   S    
C66   H48   S    
C51   C57   A    
C23   O26   S    
C44   P3    S    
C69   H61   S    
C54   C55   A    
C65   H44   S    
H53   O25   S    
Ba1   O19   S    
C24   C25   A    
C32   H26   S    
C64   H40   S    
C11   H19   S    
C45   H9    S    
C72   H72   S    
Ba1   O4    S    
C17   C19   A    
O37   P7    S    
C60   P7    S    
C32   C33   S    
C35   C38   A    
C69   H59   S    
C36   C37   A    
C28   C72   S    
C55   C57   A    
C52   C61   S    
O8    P8    D    
C74   N1    Am   
C21   H20   S    
C16   H37   S    
Ba1   Ba2   S    
C27   O11   D    
C5    P8    S    
Ba1   O1    S    
C1    O25   S    
Ba2   O33   S    
C11   C38   A    
C61   H23   S    
C17   C35   A    
C22   C27   A    
C9    C13   A    
C25   C42   A    
C14   H28   S    
C70   H63   S    
C34   H6    S    
C6    C7    D    
C62   O12   S    
C21   C22   A    
C41   H22   S    
C72   H73   S    
O18   P6    S    
C62   C68   S    
O6    P7    D    
C67   H16   S    
O23   P3    S    
C7    C8    S    
C3    O30   S    
Ba2   P4    S    
C50   C53   A    
O36   P4    S    
C37   C43   A    
C68   H50   S    
C29   C69   S    
C55   H30   S    
C31   P1    S    
O20   P3    S    
C6    C14   D    
C53   C58   A    
C26   N2    Am   
C15   C31   D    
C8    N1    S    
C20   C70   S    
C61   H45   S    
C19   C24   A    
C46   C58   A    
C47   H32   S    
C71   H66   S    
C4    C16   S    
Ba1   O20   S    
O4    P1    S    
O15   P6    S    
C64   H39   S    
O7    P7    S    
C44   C59   A    
C49   C50   A    
C45   H10   S    
C67   O9    S    
C72   H71   S    
Ba1   O5    S    
C17   C20   A    
C16   H35   S    
C13   C39   A    
C12   O18   S    
C34   H4    S    
C23   O7    S    
C69   H60   S    
C3    C5    S    
C18   C37   A    
Ba2   O5    S    
C52   C65   S    
C48   C49   A    
C52   O24   S    
C71   H69   S    
C4    H24   S    
C63   H75   S    
C9    C36   A    
Ba1   P1    S    
C41   C42   A    
C35   C36   A    
O1    P1    D    
Ba2   O35   S    
C15   H29   S    
C51   C60   A    
C6    P4    S    
C16   H8    S    
C29   C30   S    
C34   H5    S    
Ba2   O4    S    
C4    H17   S    
C18   C19   A    
C59   O31   S    
C57   H36   S    
C12   C64   S    
O38   P5    S    
Ba2   O37   S    
C56   H14   S    
C58   H31   S    
H54   O26   S    
Ba1   O37   S    
O35   P8    S    
Ba2   O6    S    
C5    C14   S    
O9    P8    S    
C10   C74   A    
C4    O23   S    
C1    H7    S    
C29   C33   D    
C74   O10   D    
C40   H12   S    
C67   C73   S    
C12   H76   S    
C73   O27   S    
C65   H46   S    
C62   C66   S    
O16   P6    D    
C63   H56   S    
C50   C51   A    
H41   O22   S    
C45   O3    S    
Ba1   O34   S    
C68   H52   S    
C47   C60   A    
C64   H38   S    
C46   P2    S    
C23   H3    S    
C30   P6    S    
C52   O17   S    
O12   P2    S    
Ba2   O38   S    
H74   O32   S    
C42   H25   S    
C1    C12   S    
H42   O24   S    
C2    O13   D    
H65   O30   S    
C62   C63   S    
C61   H34   S    
Ba1   P2    S    
C3    C8    D    
C38   H21   S    
C66   H47   S    
C45   C56   S    
H55   O27   S    
C22   C24   A    
C48   P5    S    
C46   C59   A    
C2    C13   A    
C63   H67   S    
C7    H18   S    
Ba1   O15   S    
C31   C32   D    
C2    N1    Am   
O3    P5    S    
C28   O36   S    
C70   H62   S    
C56   H13   S    
Ba2   O34   S    
C18   C41   A    
O19   P2    D    
C26   O14   D    
C23   C34   S    
C39   C71   S    
H57   O28   S    
C70   H64   S    
C10   C11   A    
O34   P4    S    
C40   H1    S    
C49   H33   S    
C47   C48   A    
C44   C54   A    
C25   C26   A    
C28   O32   S    
C15   C30   S    
C39   C43   A    
C20   C21   A    
C28   C40   S    
C40   O22   S    
C67   H15   S    
C1    H2    S    
C65   H43   S    
C66   H49   S    
O21   P3    D    
C9    C10   A    
C27   N2    Am   
C71   H68   S    
C43   H27   S    
