data_mof_unit_17825.cif
_audit_creation_date              2012-12-10T18:58:48-0500
_audit_creation_method            fapswitch 2.2
_symmetry_space_group_name_H-M    P1
_symmetry_Int_Tables_number       1
_space_group_crystal_system       triclinic
_cell_length_a                    13.027689
_cell_length_b                    10.787844
_cell_length_c                    9.619162
_cell_angle_alpha                 92.291739
_cell_angle_beta                  95.703273
_cell_angle_gamma                 90.546204
_cell_volume                      1343.99161476

loop_
_atom_site_label
_atom_site_type_symbol
_atom_type_description
_atom_site_fract_x
_atom_site_fract_y
_atom_site_fract_z
_atom_type_partial_charge
C1    C     C_R   0.499574 0.263091 0.497094 0.875788
C2    C     C_R   0.406388 0.931860 0.439439 -0.132087
C3    C     C_R   0.493276 0.871452 0.505692 -0.233408
C4    C     C_R   0.301279 0.504704 0.474532 0.802015
C5    C     C_R   0.581947 0.941488 0.549894 -0.006522
C6    C     C_3   0.651772 0.957418 0.687007 0.958922
C7    C     C_3   0.665142 0.093866 0.654109 -0.524400
C8    C     C_R   0.568776 0.571856 0.085662 -0.009675
C9    C     C_R   0.442070 0.415959 0.063508 0.451861
C10   C     C_R   0.437272 0.421315 0.913094 0.436149
C11   C     C_R   0.569983 0.569684 0.938991 0.103829
C12   C     C_R   0.027060 0.548339 0.558704 -0.063243
C13   C     C_3   0.581724 0.706017 0.938006 -0.385900
C14   C     C_3   0.578270 0.710003 0.095267 -0.188916
C15   C     C_R   0.499606 0.737535 0.502490 0.789661
C16   C     C_R   0.699397 0.496278 0.525817 0.856799
C17   C     C_R   0.812848 0.500866 0.541694 -0.266520
C18   C     C_R   0.189015 0.509780 0.459778 -0.244874
C19   C     C_R   0.029207 0.458986 0.321873 0.564572
C20   C     C_R   0.135808 0.456810 0.338914 -0.243792
C21   C     C_R   0.134193 0.574652 0.558461 0.003117
C22   C     C_3   0.777957 0.386056 0.222308 -0.137049
C23   C     C_R   0.974461 0.486534 0.438104 -0.095808
C24   C     C_3   0.780629 0.852605 0.568011 -0.273308
C25   C     C_3   0.420739 0.209354 0.094259 -0.223799
C26   C     C_3   0.267897 0.384351 0.840222 -0.208417
C27   C     C_2   0.677545 0.755535 0.173813 0.467103
C28   C     C_3   0.815109 0.448224 0.851208 -0.279400
C29   C     C_3   0.971159 0.583289 0.150410 -0.321495
C30   C     C_2   0.019737 0.628169 0.811574 0.473521
C31   C     C_2   0.184580 0.684662 0.636864 0.383002
C32   C     C_3   0.260576 0.146210 0.510557 -0.234193
C33   C     C_2   0.314139 0.858829 0.377817 0.433700
C34   C     C_R   0.868333 0.457618 0.432002 0.376350
C35   C     C_3   0.502516 0.987053 0.815186 -0.405767
C36   C     C_R   0.865858 0.549148 0.667352 0.331995
C37   C     C_R   0.971442 0.576963 0.675314 -0.064605
C38   C     C_R   0.587387 0.067107 0.531218 -0.074383
C39   C     C_R   0.498322 0.130119 0.488273 -0.182192
C40   C     C_R   0.407147 0.063466 0.439771 0.438841
Cu1   Cu    Cu3+1 0.499990 0.499980 0.640670 0.980014
Cu2   Cu    Cu3+1 0.500010 0.500020 0.359330 0.991733
H1    H     H_    0.640277 0.162249 0.732881 0.186801
H2    H     H_    0.784159 0.929514 0.495137 0.198971
H3    H     H_    0.730228 0.775400 0.520468 0.167444
H4    H     H_    0.859789 0.815949 0.587121 0.196253
H5    H     H_    0.394766 0.177707 0.985417 0.167220
H6    H     H_    0.506282 0.203653 0.114633 0.137413
H7    H     H_    0.386874 0.142830 0.161761 0.234344
H8    H     H_    0.216578 0.343116 0.751102 0.169720
H9    H     H_    0.261481 0.486811 0.835889 0.195997
H10   H     H_    0.239425 0.351633 0.937539 0.205458
H11   H     H_    0.749303 0.708411 0.160399 0.037473
H12   H     H_    0.741848 0.117182 0.620118 0.194008
H13   H     H_    0.894550 0.420790 0.890194 0.191083
H14   H     H_    0.779183 0.372416 0.780220 0.168760
H15   H     H_    0.768627 0.457309 0.941077 0.157645
H16   H     H_    0.047644 0.624238 0.134808 0.219970
H17   H     H_    0.933644 0.641515 0.228725 0.140527
H18   H     H_    0.920821 0.588024 0.051905 0.197723
H19   H     H_    0.983520 0.704536 0.864073 0.109609
H20   H     H_    0.265321 0.684662 0.676380 0.076439
H21   H     H_    0.305495 0.198563 0.598524 0.167889
H22   H     H_    0.232349 0.056633 0.546981 0.187381
H23   H     H_    0.657234 0.732476 0.902262 0.259944
H24   H     H_    0.192186 0.202140 0.477046 0.192527
H25   H     H_    0.305526 0.761982 0.400485 0.032271
H26   H     H_    0.446289 0.922429 0.755637 0.175745
H27   H     H_    0.491997 0.082642 0.778949 0.183200
H28   H     H_    0.483245 0.988346 0.924881 0.197910
H29   H     H_    0.512666 0.747460 0.882408 0.217729
H30   H     H_    0.508294 0.756528 0.128536 0.193414
H31   H     H_    0.176647 0.423511 0.252234 0.215333
H32   H     H_    0.815009 0.337845 0.136892 0.189821
H33   H     H_    0.775858 0.487387 0.204560 0.128043
H34   H     H_    0.697716 0.349178 0.214704 0.166047
N1    N     N_R   0.500660 0.500930 0.148010 -0.241758
N2    N     N_R   0.500660 0.500890 0.852110 -0.234580
O1    O     O_R   0.500000 0.319640 0.618810 -0.567385
O2    O     O_3   0.747955 0.894184 0.697355 -0.574963
O3    O     O_3   0.384351 0.329307 0.125293 -0.544995
O4    O     O_3   0.369715 0.345538 0.827458 -0.592769
O5    O     O_2   0.678276 0.847880 0.251268 -0.567282
O6    O     O_3   0.815370 0.563851 0.786741 -0.573044
O7    O     O_3   0.981024 0.457975 0.187780 -0.585548
O8    O     O_2   0.096424 0.581621 0.869650 -0.611875
O9    O     O_2   0.136863 0.780512 0.650877 -0.559290
O10   O     O_3   0.318955 0.127457 0.395825 -0.548344
O11   O     O_2   0.247241 0.905173 0.299086 -0.491104
O12   O     O_R   0.500010 0.319680 0.381230 -0.536477
O13   O     O_3   0.604825 0.943498 0.813690 -0.572039
O14   O     O_R   0.348990 0.499960 0.599490 -0.578986
O15   O     O_R   0.349000 0.500000 0.361910 -0.535820
O16   O     O_R   0.499990 0.680320 0.618770 -0.588622
O17   O     O_R   0.500000 0.680360 0.381190 -0.577865
O18   O     O_R   0.651000 0.500000 0.638090 -0.532259
O19   O     O_R   0.651010 0.500040 0.400510 -0.602445
O20   O     O_3   0.830100 0.354180 0.351380 -0.561879

loop_
_geom_bond_atom_site_label_1
_geom_bond_atom_site_label_2
_ccdc_geom_bond_type
C1    O12   A    
C22   O20   S    
C28   O6    S    
C18   C21   A    
Cu1   Cu2   S    
C19   C20   A    
C22   H34   S    
C15   O16   A    
C10   N2    A    
C13   H23   S    
C28   H15   S    
C21   C31   S    
C12   C23   A    
C24   H3    S    
C36   C37   A    
C26   H10   S    
C26   H8    S    
C15   O17   A    
C38   C39   A    
C16   O19   A    
Cu1   O18   S    
C6    O13   S    
Cu2   O15   S    
C12   C37   A    
C24   O2    S    
C29   H17   S    
C35   H28   S    
C16   C17   S    
C17   C36   A    
C7    H1    S    
C14   C27   S    
C30   O8    D    
C9    C10   A    
C25   H5    S    
C29   O7    S    
C4    C18   S    
C26   O4    S    
C13   C14   S    
C25   O3    S    
C31   H20   S    
C22   H33   S    
C28   H13   S    
C35   O13   S    
C28   H14   S    
C16   O18   A    
C31   O9    D    
Cu2   O17   S    
C32   H22   S    
Cu2   O19   S    
Cu1   N2    S    
C13   H29   S    
C19   O7    S    
C12   C21   A    
C10   O4    S    
C30   C37   S    
Cu2   O12   S    
C19   C23   A    
C11   N2    A    
C33   O11   D    
C6    O2    S    
Cu1   O16   S    
C29   H18   S    
C23   C34   A    
C9    N1    A    
C25   H6    S    
C2    C33   S    
C8    N1    A    
C24   H2    S    
C17   C34   A    
C22   H32   S    
C39   C40   A    
C3    C15   S    
C33   H25   S    
C32   H24   S    
C8    C14   S    
C14   H30   S    
C32   H21   S    
C3    C5    A    
Cu1   O1    S    
C27   H11   S    
C6    C7    S    
C24   H4    S    
C40   O10   S    
C27   O5    D    
C2    C3    A    
C26   H9    S    
C11   C13   S    
C5    C6    S    
C35   H26   S    
C36   O6    S    
C8    C11   A    
C1    O1    A    
C34   O20   S    
C7    C38   S    
C20   H31   S    
C18   C20   A    
C25   H7    S    
C1    C39   S    
C4    O15   A    
C2    C40   A    
Cu1   O14   S    
C29   H16   S    
C35   H27   S    
Cu2   N1    S    
C30   H19   S    
C7    H12   S    
C5    C38   A    
C9    O3    S    
C4    O14   A    
C32   O10   S    
