data_mof_unit_34624.cif
_audit_creation_date              2013-03-05T15:54:29-0500
_audit_creation_method            fapswitch 2.2
_symmetry_space_group_name_H-M    P1
_symmetry_Int_Tables_number       1
_space_group_crystal_system       triclinic
_cell_length_a                    7.086336
_cell_length_b                    15.081025
_cell_length_c                    16.641656
_cell_angle_alpha                 95.226257
_cell_angle_beta                  90.167368
_cell_angle_gamma                 90.323789
_cell_volume                      1771.0482425

loop_
_atom_site_label
_atom_site_type_symbol
_atom_site_description
_atom_site_fract_x
_atom_site_fract_y
_atom_site_fract_z
_atom_type_partial_charge
O1    O     O_R   0.633330 0.174290 0.828230 -0.584187
O2    O     O_R   0.366670 0.825710 0.171770 -0.584179
O3    O     O_R   0.301450 0.154140 0.662030 -0.602014
O4    O     O_R   0.698550 0.845860 0.337970 -0.601957
O5    O     O_R   0.133140 0.325730 0.671770 -0.599685
O6    O     O_R   0.866860 0.674270 0.328230 -0.599666
C1    C     C_R   0.471605 0.130666 0.634972 1.007532
C2    C     C_R   0.528393 0.869336 0.365025 1.007465
O7    O     O_R   0.303490 0.163670 0.827000 -0.567059
O8    O     O_R   0.696510 0.836330 0.173000 -0.567064
O9    O     O_R   0.135190 0.335320 0.837920 -0.575600
O10   O     O_R   0.864810 0.664680 0.162080 -0.575603
C3    C     C_R   0.472170 0.143506 0.853661 0.984611
C4    C     C_R   0.527830 0.856494 0.146339 0.984613
O11   O     O_R   0.631280 0.164690 0.662080 -0.555475
O12   O     O_R   0.368720 0.835310 0.337920 -0.555489
O13   O     O_3   0.467420 0.306310 0.753380 -0.291645
O14   O     O_3   0.532580 0.693690 0.246620 -0.291659
V1    V     V_3+5 0.191790 0.239560 0.749370 1.209393
V2    V     V_3+5 0.808210 0.760440 0.250630 1.209411
O15   O     O_R   0.805590 0.345870 0.837970 -0.602146
O16   O     O_R   0.194410 0.654130 0.162030 -0.602146
C5    C     C_R   0.975006 0.366085 0.867657 1.006824
C6    C     C_R   0.024994 0.633915 0.132343 1.006819
O17   O     O_R   0.803560 0.336340 0.672990 -0.588645
O18   O     O_R   0.196440 0.663660 0.327010 -0.588656
C7    C     C_R   0.972287 0.356526 0.646364 0.961336
C8    C     C_R   0.027713 0.643473 0.353635 0.961357
V3    V     V_3+5 0.692030 0.260450 0.750630 1.201138
V4    V     V_3+5 0.307970 0.739550 0.249370 1.201134
O19   O     O_3   0.966260 0.193700 0.746610 -0.237218
O20   O     O_3   0.033740 0.806300 0.253390 -0.237213
C9    C     C_1   0.982587 0.418626 0.583776 -0.300487
C10   C     C_1   0.017414 0.581372 0.416222 -0.300450
C11   C     C_1   0.993293 0.469908 0.531089 0.058100
C12   C     C_1   0.006708 0.530088 0.468908 0.058069
C13   C     C_3   0.879797 0.563567 0.986094 0.383871
C14   C     C_3   0.120203 0.436433 0.013906 0.383870
C15   C     C_3   0.042527 0.531800 0.929666 -0.273041
C16   C     C_3   0.957473 0.468200 0.070333 -0.273041
H1    H     H_    0.074902 0.557801 0.870878 0.165588
H2    H     H_    0.925098 0.442199 0.129122 0.165589
C17   C     C_3   0.988180 0.434016 0.940084 -0.281108
C18   C     C_3   0.011820 0.565984 0.059916 -0.281106
C19   C     C_3   0.824222 0.465756 0.995757 0.052568
C20   C     C_3   0.175778 0.534244 0.004243 0.052567
C21   C     C_3   0.668837 0.011533 0.533336 0.437806
C22   C     C_3   0.331148 0.988462 0.466660 0.437815
C23   C     C_3   0.560643 0.922227 0.522682 0.047070
C24   C     C_3   0.439345 0.077766 0.477321 0.046916
C25   C     C_3   0.511208 0.940146 0.434988 -0.446360
C26   C     C_3   0.488783 0.059848 0.565013 -0.446475
C27   C     C_3   0.620650 0.029734 0.444300 0.033826
C28   C     C_3   0.379332 0.970260 0.555700 0.033791
C29   C     C_1   0.482208 0.081411 0.916262 -0.261571
C30   C     C_1   0.517792 0.918589 0.083738 -0.261562
C31   C     C_1   0.493098 0.030109 0.968927 0.087810
C32   C     C_1   0.506902 0.969891 0.031073 0.087811
N1    N     N_R   0.768530 0.638035 0.963373 0.212407
O21   O     O_R   0.702044 0.635300 0.890220 -0.433333
O22   O     O_R   0.786201 0.714923 0.004953 -0.446832
N2    N     N_R   0.231470 0.361965 0.036627 0.212407
O23   O     O_R   0.297956 0.364700 0.109780 -0.433330
O24   O     O_R   0.213798 0.285077 0.995047 -0.446830
C33   C     C_3   0.641396 0.412921 0.999525 -0.356370
C34   C     C_3   0.679701 0.317397 0.020705 -0.625821
H3    H     H_    0.798417 0.286332 0.985573 0.224650
H4    H     H_    0.713204 0.317271 0.085900 0.239359
H5    H     H_    0.555413 0.274173 0.007164 0.263399
H6    H     H_    0.554484 0.446869 0.047715 0.209501
H7    H     H_    0.565588 0.411016 0.940981 0.207294
C35   C     C_3   0.358604 0.587079 0.000475 -0.356367
C36   C     C_3   0.320298 0.682603 0.979294 -0.625827
H8    H     H_    0.286796 0.682729 0.914100 0.239358
H9    H     H_    0.201583 0.713668 0.014427 0.224651
H10   H     H_    0.444587 0.725827 0.992836 0.263399
H11   H     H_    0.434412 0.588984 0.059019 0.207294
H12   H     H_    0.445517 0.553131 0.952285 0.209500
C37   C     C_3   0.626004 0.832748 0.552495 -0.293003
C38   C     C_3   0.765792 0.778982 0.498331 -0.776081
H13   H     H_    0.686697 0.735769 0.452223 0.237377
H14   H     H_    0.865393 0.821007 0.467399 0.299231
H15   H     H_    0.848245 0.734809 0.534956 0.223565
H16   H     H_    0.686308 0.846004 0.614134 0.214543
H17   H     H_    0.502971 0.788331 0.556414 0.181672
C39   C     C_3   0.374024 0.167260 0.447533 -0.292859
C40   C     C_3   0.233985 0.220946 0.501644 -0.775725
H18   H     H_    0.151168 0.264930 0.464954 0.223553
H19   H     H_    0.134695 0.178854 0.532673 0.299251
H20   H     H_    0.312901 0.264344 0.547685 0.237255
H21   H     H_    0.497062 0.211709 0.443727 0.181570
H22   H     H_    0.313944 0.154035 0.385848 0.214478
N3    N     N_R   0.845540 0.009794 0.576769 0.247524
O25   O     O_R   0.960198 0.947860 0.550653 -0.431683
O26   O     O_R   0.851350 0.035653 0.653289 -0.426642
N4    N     N_R   0.154473 0.990206 0.423203 0.247576
O27   O     O_R   0.039793 0.052134 0.449308 -0.431641
O28   O     O_R   0.148721 0.964364 0.346680 -0.426596
C41   C     C_3   0.708714 0.058257 0.365215 -0.191570
C42   C     C_3   0.794148 0.152444 0.370134 -0.783441
H23   H     H_    0.700263 0.198086 0.340061 0.214801
H24   H     H_    0.818899 0.179630 0.433611 0.258362
H25   H     H_    0.930648 0.151327 0.337413 0.272075
H26   H     H_    0.814203 0.008705 0.342342 0.254354
H27   H     H_    0.596516 0.054358 0.318129 0.133371
C43   C     C_3   0.291250 0.941742 0.634783 -0.191659
C44   C     C_3   0.205762 0.847565 0.629865 -0.783305
H28   H     H_    0.181108 0.820359 0.566386 0.258355
H29   H     H_    0.299558 0.801925 0.659984 0.214777
H30   H     H_    0.069208 0.848708 0.662545 0.272083
H31   H     H_    0.403451 0.945628 0.681868 0.133382
H32   H     H_    0.185787 0.991304 0.657656 0.254355

loop_
_geom_bond_atom_site_label_1
_geom_bond_atom_site_label_2
_geom_bond_distance
_ccdc_geom_bond_type
C34   H4    1.110115 S    
C40   H18   1.110548 S    
N3    O25   1.287685 A    
C44   H29   1.110340 S    
C36   H8    1.110115 S    
C4    C30   1.464704 S    
C11   C12   1.440214 S    
O4    C2    1.327009 A    
V1    O19   1.736640 S    
C21   C23   1.541834 S    
C43   H32   1.103740 S    
C27   C41   1.552900 S    
C22   C28   1.568361 S    
O9    V1    2.010054 S    
C35   H11   1.109173 S    
C1    C26   1.512175 S    
O3    C1    1.327004 A    
C39   H21   1.102266 S    
C37   H16   1.110814 S    
C34   H5    1.103185 S    
C43   C44   1.536137 S    
O12   V4    2.010981 S    
C33   H6    1.102833 S    
C5    C17   1.511398 S    
O7    C3    1.320496 A    
C35   H12   1.102833 S    
C9    C11   1.223083 T    
O5    C7    1.316314 A    
O7    V1    1.969527 S    
C22   C25   1.543146 S    
O6    C8    1.316313 A    
O8    V2    1.969526 S    
C23   C25   1.547718 S    
N4    O28   1.297841 A    
C24   C26   1.547695 S    
C44   H28   1.110846 S    
O3    V1    2.013154 S    
O14   V4    1.738078 S    
V4    O20   2.191985 S    
O16   V4    2.014953 S    
N2    O24   1.300272 A    
C21   C27   1.568316 S    
C26   C28   1.549290 S    
C16   H2    1.110732 S    
C34   H3    1.107456 S    
C8    C10   1.464465 S    
N1    O21   1.301149 A    
C2    O12   1.302062 A    
C36   H9    1.107456 S    
C38   H15   1.110393 S    
C42   H24   1.110848 S    
C18   C20   1.539229 S    
O11   V3    2.010981 S    
C43   H31   1.112230 S    
O17   V3    1.966994 S    
C16   C19   1.554890 S    
C41   H27   1.112231 S    
N1    O22   1.300271 A    
C24   C27   1.555471 S    
C28   C43   1.552908 S    
C38   H14   1.105135 S    
O8    C4    1.320497 A    
C39   C40   1.527299 S    
C35   C36   1.539356 S    
C15   C17   1.547130 S    
C1    O11   1.302076 A    
C33   H7    1.109173 S    
O15   V3    2.014954 S    
C42   H25   1.110863 S    
C7    C9    1.464465 S    
C23   C37   1.552206 S    
C25   C27   1.549264 S    
N2    O23   1.301149 A    
C13   C15   1.540029 S    
C41   C42   1.536125 S    
N4    O27   1.287670 A    
O10   V2    2.010055 S    
O1    V3    1.957509 S    
C21   N3    1.445546 S    
C22   C24   1.541819 S    
C17   C19   1.539228 S    
C2    C25   1.512149 S    
C13   N1    1.453121 S    
C15   C20   1.554890 S    
O18   V4    1.966995 S    
O15   C5    1.320328 A    
C19   C33   1.521586 S    
C6    C18   1.511398 S    
C44   H30   1.110853 S    
O16   C6    1.320329 A    
O1    C3    1.315871 A    
C13   C19   1.547209 S    
C37   H17   1.102175 S    
V2    O20   1.736639 S    
C22   N4    1.445584 S    
C20   C35   1.521586 S    
C38   H13   1.108993 S    
C21   C26   1.543127 S    
O5    V1    1.959057 S    
O17   C7    1.319907 A    
O6    V2    1.959059 S    
O10   C6    1.309988 A    
O18   C8    1.319907 A    
O2    V4    1.957509 S    
C13   C18   1.539685 S    
C29   C31   1.223308 T    
C14   C17   1.539685 S    
V3    O19   2.191985 S    
C39   H22   1.110864 S    
O13   V3    1.738079 S    
C14   C16   1.540030 S    
C31   C32   1.440650 S    
O9    C5    1.309989 A    
C42   H23   1.110347 S    
O13   V1    2.190344 S    
C10   C12   1.223083 T    
C30   C32   1.223307 T    
C41   H26   1.103753 S    
O14   V2    2.190344 S    
O2    C4    1.315872 A    
C14   C20   1.547209 S    
C24   C39   1.552156 S    
C37   C38   1.527207 S    
O4    V2    2.013154 S    
C16   C18   1.547130 S    
C36   H10   1.103186 S    
C15   H1    1.110732 S    
N3    O26   1.297839 A    
C33   C34   1.539357 S    
C40   H20   1.109128 S    
C40   H19   1.105194 S    
C3    C29   1.464703 S    
C23   C28   1.555498 S    
C14   N2    1.453121 S    
