data_mof_unit_63031.cif
_audit_creation_date              2012-10-26T17:28:02-0400
_audit_creation_method            fapswitch 2.2
_symmetry_space_group_name_H-M    P1
_symmetry_Int_Tables_number       1
_space_group_crystal_system       triclinic
_cell_length_a                    18.79307
_cell_length_b                    18.715042
_cell_length_c                    18.830272
_cell_angle_alpha                 109.20166
_cell_angle_beta                  110.022329
_cell_angle_gamma                 109.180147
_cell_volume                      5098.60489531

loop_
_atom_site_label
_atom_site_type_symbol
_atom_type_description
_atom_site_fract_x
_atom_site_fract_y
_atom_site_fract_z
_atom_type_partial_charge
C1    C     C_R   0.618325 0.619020 0.499769 0.550616
C2    C     C_R   0.826804 0.750370 0.514145 0.028440
C3    C     C_3   0.845919 0.687080 0.462864 -0.281909
C4    C     C_R   0.380365 0.499797 0.380470 0.550656
C5    C     C_3   0.774748 0.615981 0.460375 -0.269188
C6    C     C_R   0.757060 0.498295 0.682834 0.019464
C7    C     C_R   0.685306 0.499680 0.687064 0.020134
C8    C     C_R   0.679492 0.501607 0.760391 -0.155134
C9    C     C_R   0.744462 0.500727 0.825334 -0.155421
C10   C     C_R   0.817164 0.500942 0.818841 0.017552
C11   C     C_R   0.820805 0.500721 0.746525 0.015397
C12   C     C_3   0.177364 0.468552 0.254053 -0.137379
C13   C     C_3   0.872864 0.499208 0.702223 -0.271217
C14   C     C_3   0.800557 0.497545 0.629947 -0.273894
C15   C     C_R   0.242987 0.244095 0.425180 0.017505
C16   C     C_R   0.381466 0.381306 0.499975 0.551371
C17   C     C_R   0.316519 0.315241 0.501453 0.020706
C18   C     C_R   0.324715 0.321640 0.580959 -0.154161
C19   C     C_R   0.260127 0.256466 0.580986 -0.154259
C20   C     C_R   0.185440 0.186084 0.501584 0.019560
C21   C     C_R   0.179580 0.183521 0.425288 0.018535
C22   C     C_3   0.124697 0.132490 0.328535 -0.270905
C23   C     C_3   0.264886 0.550478 0.330288 -0.133556
C24   C     C_3   0.196706 0.202300 0.328479 -0.273469
C25   C     C_R   0.003087 0.618791 0.121462 0.551240
C26   C     C_R   0.123306 0.500370 0.123711 0.547595
C27   C     C_R   0.004459 0.381320 0.885871 0.547708
C28   C     C_R   0.619500 0.500075 0.619659 0.553611
C29   C     C_R   0.884333 0.500106 0.884400 0.550764
C30   C     C_R   0.999554 0.119043 0.617975 0.551145
C31   C     C_R   0.881294 0.881245 0.500163 0.549914
C32   C     C_R   0.001068 0.881579 0.382180 0.550885
C33   C     C_R   0.118668 0.118770 0.500145 0.551331
C34   C     C_3   0.312265 0.499642 0.312473 0.037741
C35   C     C_R   0.011009 0.686153 0.262308 0.016206
C36   C     C_R   0.002123 0.685619 0.186020 0.020838
C37   C     C_R   0.992993 0.753432 0.174294 -0.155937
C38   C     C_R   0.991552 0.817784 0.238278 -0.155979
C39   C     C_R   0.002147 0.816342 0.315705 0.016695
C40   C     C_3   0.326345 0.531369 0.250254 -0.104476
C41   C     C_R   0.012842 0.749422 0.324920 0.019001
C42   C     C_3   0.025414 0.711624 0.383512 -0.270348
C43   C     C_3   0.024190 0.639878 0.312269 -0.275730
C44   C     C_R   0.927630 0.246812 0.744634 0.015447
C45   C     C_R   0.762322 0.685711 0.512127 0.013410
C46   C     C_R   0.004606 0.315340 0.819555 0.018549
C47   C     C_R   0.083478 0.319845 0.827171 -0.158724
C48   C     C_R   0.082137 0.255108 0.760936 -0.153664
C49   C     C_R   0.002094 0.187109 0.685130 0.019238
C50   C     C_R   0.926532 0.186765 0.679670 0.017277
C51   C     C_3   0.829626 0.138016 0.624829 -0.271821
C52   C     C_3   0.277709 0.582006 0.266977 -0.135418
C53   C     C_3   0.830979 0.207332 0.698506 -0.271089
C54   C     C_3   0.191095 0.500167 0.191657 0.044303
C55   C     C_3   0.238742 0.449938 0.174897 0.032690
C56   C     C_R   0.685879 0.687164 0.502180 0.016857
C57   C     C_3   0.225619 0.417544 0.237315 -0.104616
C58   C     C_3   0.221381 0.393317 0.084492 -0.275521
C59   C     C_3   0.278519 0.351090 0.089208 -0.436619
C60   C     C_R   0.679167 0.760146 0.503273 -0.155126
C61   C     C_R   0.743196 0.824257 0.502459 -0.156412
C62   C     C_R   0.815653 0.817094 0.503630 0.018453
Cu1   Cu    Cu3+1 0.500490 0.438210 0.438660 0.910026
Cu2   Cu    Cu3+1 0.499510 0.561790 0.561340 0.923353
Cu3   Cu    Cu3+1 0.942090 0.438240 0.003860 0.915904
Cu4   Cu    Cu3+1 0.065700 0.561800 0.003830 0.918827
Cu5   Cu    Cu3+1 0.937720 0.000020 0.437750 0.918735
Cu6   Cu    Cu3+1 0.062280 0.000080 0.562350 0.922893
H1    H     H_    0.297696 0.649299 0.278138 0.119104
H2    H     H_    0.762431 0.435666 0.566738 0.142885
H3    H     H_    0.381084 0.375897 0.642428 0.122498
H4    H     H_    0.388376 0.556720 0.249693 0.105629
H5    H     H_    0.267833 0.261744 0.642511 0.124162
H6    H     H_    0.119260 0.067221 0.301155 0.132617
H7    H     H_    0.061954 0.132793 0.304810 0.144270
H8    H     H_    0.232415 0.177204 0.300484 0.144854
H9    H     H_    0.175700 0.243320 0.305361 0.127711
H10   H     H_    0.985741 0.755882 0.115676 0.124171
H11   H     H_    0.983525 0.868883 0.227878 0.125333
H12   H     H_    0.912252 0.698444 0.501954 0.135263
H13   H     H_    0.089863 0.754774 0.444643 0.145472
H14   H     H_    0.968230 0.687350 0.392061 0.126912
H15   H     H_    0.088135 0.642050 0.332013 0.131380
H16   H     H_    0.966572 0.574274 0.280168 0.143232
H17   H     H_    0.145455 0.372188 0.884341 0.117007
H18   H     H_    0.143212 0.258675 0.768518 0.124614
H19   H     H_    0.806894 0.140633 0.563406 0.143810
H20   H     H_    0.800397 0.071898 0.617201 0.132277
H21   H     H_    0.809825 0.250510 0.679879 0.133808
H22   H     H_    0.801831 0.181046 0.732856 0.146991
H23   H     H_    0.717140 0.568768 0.393849 0.149805
H24   H     H_    0.205664 0.350271 0.226232 0.103146
H25   H     H_    0.115454 0.443242 0.254831 0.119524
H26   H     H_    0.276588 0.591963 0.395429 0.125508
H27   H     H_    0.622616 0.765311 0.500433 0.123925
H28   H     H_    0.735454 0.878220 0.499385 0.121423
H29   H     H_    0.829757 0.681023 0.397801 0.129725
H30   H     H_    0.348646 0.401863 0.129563 0.155469
H31   H     H_    0.264822 0.308493 0.117785 0.156184
H32   H     H_    0.264410 0.310701 0.022568 0.137637
H33   H     H_    0.151563 0.341673 0.042965 0.147680
H34   H     H_    0.800094 0.586217 0.497728 0.128878
H35   H     H_    0.234924 0.434473 0.054473 0.144204
H36   H     H_    0.624573 0.502413 0.766745 0.124015
H37   H     H_    0.738574 0.501124 0.880691 0.127118
H38   H     H_    0.936574 0.560523 0.739380 0.147163
H39   H     H_    0.875955 0.437942 0.680960 0.133467
H40   H     H_    0.822411 0.558263 0.626005 0.131385
O1    O     O_R   0.590590 0.537990 0.448210 -0.515625
O2    O     O_R   0.051820 0.090220 0.642110 -0.514648
O3    O     O_R   0.857230 0.909860 0.447430 -0.513305
O4    O     O_R   0.589760 0.642350 0.551800 -0.508826
O5    O     O_R   0.962420 0.909900 0.552660 -0.505589
O6    O     O_R   0.948170 0.909880 0.357990 -0.514387
O7    O     O_R   0.053360 0.909920 0.463210 -0.509182
O8    O     O_R   0.037580 0.090200 0.447440 -0.510496
O9    O     O_R   0.142770 0.090240 0.552670 -0.514096
O10   O     O_R   0.409550 0.447830 0.357350 -0.515602
O11   O     O_R   0.408710 0.552190 0.460940 -0.514590
O12   O     O_R   0.055390 0.642370 0.093330 -0.511221
O13   O     O_R   0.410240 0.357650 0.448200 -0.509022
O14   O     O_R   0.409410 0.462010 0.551790 -0.513849
O15   O     O_R   0.591290 0.447810 0.539060 -0.509182
O16   O     O_R   0.590450 0.552170 0.642650 -0.511852
O17   O     O_R   0.951010 0.538020 0.093350 -0.510993
O18   O     O_R   0.042570 0.447840 0.094710 -0.515989
O19   O     O_R   0.146960 0.552180 0.094690 -0.515069
O20   O     O_R   0.952400 0.357670 0.914360 -0.508895
O21   O     O_R   0.056780 0.462020 0.914330 -0.514058
O22   O     O_R   0.860840 0.447860 0.913000 -0.513372
O23   O     O_R   0.965220 0.552200 0.912980 -0.508902
O24   O     O_R   0.946640 0.090180 0.536890 -0.510102

loop_
_geom_bond_atom_site_label_1
_geom_bond_atom_site_label_2
_ccdc_geom_bond_type
C33   O9    A    
C59   H32   S    
C57   H24   S    
C43   H15   S    
C41   C42   S    
C35   C36   A    
C42   H14   S    
C13   H39   S    
Cu3   O22   S    
C28   O15   A    
C7    C8    A    
C39   C41   A    
C12   C23   S    
Cu2   O11   S    
C30   O2    A    
C34   C40   S    
C47   H17   S    
C36   C37   A    
Cu5   O6    S    
C1    O4    A    
C38   C39   A    
C30   O24   A    
Cu2   O4    S    
C38   H11   S    
C9    H37   S    
C59   H31   S    
Cu4   O19   S    
C18   C19   A    
C26   O18   A    
C32   C39   S    
C25   O17   A    
C16   O14   A    
C52   H1    S    
C1    O1    A    
C54   C55   S    
C44   C53   S    
Cu5   O24   S    
C45   C56   A    
C52   C54   S    
C16   C17   S    
C34   C57   S    
C4    O11   A    
C35   C43   S    
C9    C10   A    
Cu6   O5    S    
Cu4   O21   S    
C23   C34   S    
C14   H40   S    
Cu4   O12   S    
C13   C14   S    
C43   H16   S    
C14   H2    S    
C31   C62   S    
C4    O10   A    
C42   H13   S    
C22   H7    S    
C3    H12   S    
C26   C54   S    
Cu1   O13   S    
C44   C46   A    
C50   C51   S    
C2    C45   A    
C4    C34   S    
C61   H28   S    
Cu5   Cu6   S    
Cu3   O20   S    
C19   H5    S    
C51   H19   S    
C6    C11   A    
Cu1   O10   S    
C8    C9    A    
Cu6   O7    S    
C58   C59   S    
C40   C52   S    
C5    C45   S    
C7    C28   S    
C56   C60   A    
C60   C61   A    
C51   C53   S    
Cu3   O17   S    
Cu1   O1    S    
Cu5   O8    S    
C60   H27   S    
C37   C38   A    
Cu6   O9    S    
C6    C14   S    
C27   O20   A    
C3    H29   S    
C47   C48   A    
C40   C55   S    
C17   C18   A    
C58   H33   S    
Cu6   O2    S    
C8    H36   S    
C5    H23   S    
C20   C33   S    
C27   C46   S    
Cu5   O3    S    
C48   C49   A    
C30   C49   S    
C49   C50   A    
C55   C57   S    
C53   H21   S    
C27   O21   A    
C22   C24   S    
C12   H25   S    
C42   C43   S    
C12   C57   S    
C25   O12   A    
Cu4   O23   S    
C44   C50   A    
C18   H3    S    
C15   C17   A    
C16   O13   A    
C5    H34   S    
C15   C24   S    
C33   O8    A    
C31   O3    A    
C40   H4    S    
C1    C56   S    
C24   H8    S    
C13   H38   S    
C3    C5    S    
C51   H20   S    
Cu1   O15   S    
C28   O16   A    
C6    C7    A    
C37   H10   S    
C23   H26   S    
Cu3   O18   S    
C19   C20   A    
C2    C3    S    
Cu2   O16   S    
C11   C13   S    
C10   C29   S    
C23   C52   S    
C29   O23   A    
Cu2   O14   S    
C48   H18   S    
C26   O19   A    
C32   O7    A    
C61   C62   A    
C35   C41   A    
C46   C47   A    
C10   C11   A    
C25   C36   S    
Cu1   Cu2   S    
C29   O22   A    
C24   H9    S    
C15   C21   A    
C20   C21   A    
Cu3   Cu4   S    
C55   C58   S    
C53   H22   S    
C59   H30   S    
C22   H6    S    
C58   H35   S    
C32   O6    A    
C21   C22   S    
C31   O5    A    
C12   C54   S    
C2    C62   A    
