data_mof_unit_63738.cif
_audit_creation_date              2012-12-10T19:27:33-0500
_audit_creation_method            fapswitch 2.2
_symmetry_space_group_name_H-M    P1
_symmetry_Int_Tables_number       1
_space_group_crystal_system       triclinic
_cell_length_a                    18.863094
_cell_length_b                    18.636492
_cell_length_c                    18.660053
_cell_angle_alpha                 109.191089
_cell_angle_beta                  109.274137
_cell_angle_gamma                 109.554875
_cell_volume                      5074.06552468

loop_
_atom_site_label
_atom_site_type_symbol
_atom_type_description
_atom_site_fract_x
_atom_site_fract_y
_atom_site_fract_z
_atom_type_partial_charge
C1    C     C_R   0.378444 0.380109 0.498843 0.952413
C2    C     C_R   0.622433 0.334537 0.604255 0.037920
C3    C     C_R   0.237765 0.247312 0.420831 0.017350
C4    C     C_R   0.619437 0.498904 0.620458 0.892694
C5    C     C_R   0.310834 0.316090 0.499236 -0.224262
C6    C     C_R   0.314794 0.326678 0.578973 0.639736
C7    C     C_R   0.251240 0.261741 0.578996 -0.298955
C8    C     C_R   0.183094 0.188117 0.499597 -0.180135
C9    C     C_R   0.173737 0.184454 0.421043 0.146478
C10   C     C_3   0.159517 0.112414 0.342418 -0.475996
C11   C     C_3   0.230505 0.181819 0.342462 -0.425829
C12   C     C_R   0.753035 0.580772 0.764344 0.056782
C13   C     C_R   0.246573 0.424691 0.240842 0.128184
C14   C     C_R   0.314996 0.501432 0.315156 -0.092269
C15   C     C_R   0.317830 0.581048 0.326114 -0.204464
C16   C     C_R   0.621316 0.620348 0.501365 0.967801
C17   C     C_R   0.253200 0.580918 0.261411 -0.212466
C18   C     C_R   0.184455 0.500974 0.187287 -0.087345
C19   C     C_R   0.183125 0.424345 0.180432 0.121314
C20   C     C_3   0.136143 0.327662 0.122971 -0.473143
C21   C     C_3   0.208231 0.327884 0.193000 -0.468388
C22   C     C_R   0.678042 0.683880 0.424007 0.040778
C23   C     C_R   0.817732 0.502935 0.815036 -0.166234
C24   C     C_R   0.686828 0.687834 0.502411 -0.332146
C25   C     C_R   0.754791 0.762675 0.582032 0.523325
C26   C     C_R   0.819573 0.826476 0.581981 0.535827
C27   C     C_R   0.814375 0.816292 0.502262 -0.342080
C28   C     C_R   0.380018 0.500129 0.380027 0.863070
C29   C     C_R   0.740634 0.748173 0.423986 0.081523
C30   C     C_3   0.733716 0.684131 0.344890 -0.472679
C31   C     C_3   0.664706 0.612997 0.345126 -0.397884
C32   C     C_R   0.998530 0.380029 0.878480 0.870357
C33   C     C_R   0.881088 0.502039 0.881809 0.857414
C34   C     C_R   0.763093 0.426780 0.733299 0.058937
C35   C     C_R   0.000572 0.620159 0.120380 0.854843
C36   C     C_R   0.119528 0.499603 0.119980 0.870312
C37   C     C_R   0.000116 0.120098 0.620184 0.891906
C38   C     C_R   0.119461 0.119526 0.498931 0.902657
C39   C     C_R   0.000325 0.880212 0.379657 0.852880
C40   C     C_R   0.762264 0.663285 0.775816 -0.098377
C41   C     C_R   0.880325 0.879755 0.500103 0.969208
C42   C     C_R   0.014163 0.252112 0.826412 -0.130506
C43   C     C_R   0.998763 0.315252 0.811549 -0.052993
C44   C     C_R   0.995691 0.321548 0.737268 -0.022095
C45   C     C_R   0.689308 0.420319 0.673859 0.032312
C46   C     C_R   0.997187 0.257211 0.674216 -0.219293
C47   C     C_R   0.004047 0.189207 0.686637 -0.129293
C48   C     C_R   0.018274 0.190527 0.765181 -0.011007
C49   C     C_3   0.972009 0.119432 0.780245 0.459843
C50   C     C_3   0.966757 0.187163 0.847450 0.378934
C51   C     C_R   0.934786 0.705486 0.164018 0.072903
C52   C     C_R   0.820691 0.739602 0.856159 -0.084613
C53   C     C_R   0.002078 0.687379 0.185790 -0.060357
C54   C     C_R   0.076959 0.743430 0.267695 -0.211270
C55   C     C_R   0.077679 0.808753 0.331876 -0.209729
C56   C     C_R   0.686746 0.499400 0.687461 -0.201552
C57   C     C_R   0.004070 0.818516 0.312706 -0.102764
C58   C     C_R   0.935779 0.770577 0.226926 0.153878
C59   C     C_3   0.840714 0.718314 0.192200 -0.466654
C60   C     C_3   0.839793 0.646453 0.122597 -0.485317
C61   C     C_R   0.872422 0.736156 0.926342 -0.152979
C62   C     C_R   0.869659 0.657417 0.914684 -0.157449
C63   C     C_R   0.813138 0.580012 0.832242 0.077188
C64   C     C_1   0.985038 0.389151 0.721469 0.164892
C65   C     C_1   0.532376 0.307426 0.572943 0.193738
C66   C     C_R   0.779441 0.355929 0.710933 -0.111244
C67   C     C_R   0.720069 0.277656 0.633430 -0.141410
C68   C     C_R   0.640348 0.265800 0.581810 -0.182585
F1    F     F_    0.761179 0.771471 0.659383 -0.643744
F2    F     F_    0.887610 0.896545 0.658977 -0.593479
F3    F     F_    0.026010 0.091690 0.817795 -0.608500
F4    F     F_    0.882467 0.170266 0.821635 -0.646197
F5    F     F_    0.383110 0.395795 0.656456 -0.644818
H1    H     H_    0.590351 0.200945 0.527689 0.144419
H2    H     H_    0.136949 0.308993 0.060341 0.202109
H3    H     H_    0.185646 0.296615 0.228539 0.195319
H4    H     H_    0.726765 0.671168 0.723267 0.213036
H5    H     H_    0.249726 0.308221 0.170295 0.219520
H6    H     H_    0.708028 0.693571 0.287924 0.207735
H7    H     H_    0.793659 0.679618 0.358765 0.191462
H8    H     H_    0.599227 0.581249 0.288193 0.201842
H9    H     H_    0.684646 0.567209 0.359282 0.212030
H10   H     H_    0.990842 0.258766 0.614878 0.163736
H11   H     H_    0.908616 0.065393 0.722341 0.137227
H12   H     H_    0.256367 0.267640 0.640481 0.189862
H13   H     H_    0.825615 0.801557 0.863927 0.179306
H14   H     H_    0.003588 0.202005 0.915612 0.109576
H15   H     H_    0.132600 0.733910 0.282978 0.145191
H16   H     H_    0.133989 0.849128 0.396583 0.172519
H17   H     H_    0.825659 0.699897 0.238466 0.193934
H18   H     H_    0.804882 0.748438 0.165517 0.211098
H19   H     H_    0.824030 0.586201 0.128314 0.222498
H20   H     H_    0.803730 0.635317 0.055772 0.209403
H21   H     H_    0.916762 0.795088 0.989197 0.148017
H22   H     H_    0.913083 0.658318 0.970417 0.141099
H23   H     H_    0.177045 0.065438 0.356806 0.198104
H24   H     H_    0.838254 0.360581 0.752885 0.134495
H25   H     H_    0.733285 0.223995 0.616921 0.160696
H26   H     H_    0.094553 0.081921 0.285208 0.207352
H27   H     H_    0.289447 0.175312 0.357148 0.222045
H28   H     H_    0.206539 0.191139 0.285121 0.196614
H29   H     H_    0.370228 0.642730 0.383296 0.165405
H30   H     H_    0.256469 0.642421 0.269410 0.154944
H31   H     H_    0.071638 0.295317 0.117196 0.217897
N1    N     N_1   0.976473 0.443272 0.708825 -0.180225
N2    N     N_1   0.459490 0.281930 0.548657 -0.198431
O1    O     O_R   0.408400 0.356680 0.448290 -0.631463
O2    O     O_R   0.948300 0.091670 0.539990 -0.632038
O3    O     O_R   0.143340 0.091640 0.551750 -0.621185
O4    O     O_R   0.408370 0.460100 0.551700 -0.573224
O5    O     O_R   0.039900 0.091690 0.448360 -0.622205
O6    O     O_R   0.051700 0.908430 0.460110 -0.629206
O7    O     O_R   0.948260 0.908480 0.356720 -0.626414
O8    O     O_R   0.960100 0.908410 0.551740 -0.566052
O9    O     O_R   0.856660 0.908460 0.448350 -0.629141
O10   O     O_R   0.591630 0.448290 0.539910 -0.623062
O11   O     O_R   0.591590 0.551710 0.643320 -0.614132
O12   O     O_R   0.051700 0.460090 0.908430 -0.621805
O13   O     O_R   0.591630 0.539900 0.448300 -0.633634
O14   O     O_R   0.591600 0.643320 0.551710 -0.586967
O15   O     O_R   0.408410 0.448290 0.356680 -0.627771
O16   O     O_R   0.408370 0.551710 0.460090 -0.629495
O17   O     O_R   0.948260 0.356680 0.908450 -0.568434
O18   O     O_R   0.856640 0.448300 0.908430 -0.614418
O19   O     O_R   0.960090 0.551710 0.908400 -0.614740
O20   O     O_R   0.948250 0.539920 0.091630 -0.621636
O21   O     O_R   0.051690 0.643330 0.091610 -0.629016
O22   O     O_R   0.039870 0.448310 0.091660 -0.618897
O23   O     O_R   0.143310 0.551720 0.091640 -0.620998
O24   O     O_R   0.051740 0.091620 0.643380 -0.575123
Zn1   Zn    Zn3+2 0.500020 0.430950 0.430950 0.959897
Zn2   Zn    Zn3+2 0.499980 0.569050 0.569050 1.035593
Zn3   Zn    Zn3+2 0.930910 0.430960 0.000050 1.012313
Zn4   Zn    Zn3+2 0.069050 0.569060 0.000020 0.984653
Zn5   Zn    Zn3+2 0.069070 0.000020 0.569080 1.042418
Zn6   Zn    Zn3+2 0.930930 0.000080 0.431020 0.961452

loop_
_geom_bond_atom_site_label_1
_geom_bond_atom_site_label_2
_ccdc_geom_bond_type
O19   Zn4   S    
C22   C29   A    
C35   C53   S    
O24   Zn5   S    
O21   Zn4   S    
C41   O8    A    
C2    C65   S    
C34   C66   A    
C7    C8    A    
C53   C54   A    
C44   C64   S    
C21   H3    S    
C26   C27   A    
C29   C30   S    
C31   H9    S    
O18   Zn3   S    
O17   Zn3   S    
C1    C5    S    
C5    C6    A    
C49   H11   S    
C41   O9    A    
O2    Zn6   S    
C2    C68   A    
C52   C61   A    
C16   O14   A    
C30   C31   S    
C28   O16   A    
O5    Zn6   S    
C27   C29   A    
O9    Zn6   S    
C68   H1    S    
C39   C57   S    
C37   O24   A    
C18   C19   A    
O11   Zn2   S    
C50   F4    S    
C67   H25   S    
C46   C47   A    
C19   C20   S    
C45   C56   A    
C62   H22   S    
C8    C9    A    
C23   C33   S    
O7    Zn6   S    
C21   H5    S    
C33   O18   A    
O13   Zn1   S    
O8    Zn5   S    
O4    Zn2   S    
C37   C47   S    
C9    C10   S    
C61   C62   A    
O12   Zn4   S    
C30   H7    S    
C60   H20   S    
C23   C63   A    
C66   C67   A    
C59   C60   S    
C16   C24   S    
C13   C14   A    
C4    C56   S    
C32   O17   A    
C36   O22   A    
C8    C38   S    
O15   Zn1   S    
O16   Zn2   S    
C44   C46   A    
C60   H19   S    
C2    C45   A    
C22   C31   S    
C13   C19   A    
C67   C68   A    
C64   N1    T    
C24   C25   A    
O20   Zn3   S    
C37   O2    A    
O1    Zn1   S    
C16   O13   A    
C51   C58   A    
C12   C63   A    
C28   O15   A    
C42   C48   A    
C39   O7    A    
C58   C59   S    
C40   C52   A    
O23   Zn4   S    
C20   H2    S    
C11   H27   S    
C51   C53   A    
C59   H17   S    
C12   C40   A    
C35   O20   A    
C43   C44   A    
C62   C63   A    
C3    C9    A    
C1    O4    A    
C27   C41   S    
C47   C48   A    
C14   C15   A    
C10   H23   S    
C23   C34   A    
C33   O19   A    
C17   C18   A    
C13   C21   S    
C11   H28   S    
C34   C45   A    
C59   H18   S    
C38   O3    A    
C35   O21   A    
C12   C56   A    
C50   H14   S    
C42   C50   S    
C30   H6    S    
C48   C49   S    
C1    O1    A    
C55   C57   A    
C26   F2    S    
C22   C24   A    
C4    O11   A    
C25   F1    S    
C42   C43   A    
O6    Zn5   S    
O3    Zn5   S    
C65   N2    T    
C66   H24   S    
C6    F5    S    
C15   C17   A    
C54   C55   A    
C39   O6    A    
O14   Zn2   S    
C4    O10   A    
C32   O12   A    
C3    C5    A    
C6    C7    A    
C20   H31   S    
C31   H8    S    
C52   H13   S    
C25   C26   A    
C55   H16   S    
O22   Zn3   S    
C54   H15   S    
C57   C58   A    
C7    H12   S    
O10   Zn1   S    
C61   H21   S    
C32   C43   S    
C15   H29   S    
C17   H30   S    
C10   H26   S    
C3    C11   S    
C10   C11   S    
C46   H10   S    
C20   C21   S    
C49   C50   S    
C49   F3    S    
C40   H4    S    
C51   C60   S    
C14   C28   S    
C38   O5    A    
C36   O23   A    
C18   C36   S    
