data_mof_unit_40530.cif
_audit_creation_date              2012-12-11T17:34:24-0500
_audit_creation_method            fapswitch 2.2
_symmetry_space_group_name_H-M    P1
_symmetry_Int_Tables_number       1
_space_group_crystal_system       triclinic
_cell_length_a                    23.790698
_cell_length_b                    7.222377
_cell_length_c                    20.628641
_cell_angle_alpha                 89.999556
_cell_angle_beta                  105.392868
_cell_angle_gamma                 89.999935
_cell_volume                      3417.37671411

loop_
_atom_site_label
_atom_site_type_symbol
_atom_type_description
_atom_site_fract_x
_atom_site_fract_y
_atom_site_fract_z
_atom_type_partial_charge
O1    O     O_R   0.449110 0.494310 0.552140 -0.541216
O2    O     O_R   0.550890 0.994310 0.447860 -0.541217
O3    O     O_R   0.440010 0.824420 0.415850 -0.524718
O4    O     O_R   0.559990 0.324420 0.584150 -0.524719
C1    C     C_R   0.425281 0.655745 0.391027 0.694839
C2    C     C_R   0.574719 0.155744 0.608973 0.694833
O5    O     O_R   0.442260 0.824040 0.549660 -0.525048
O6    O     O_R   0.557740 0.324040 0.450340 -0.525048
O7    O     O_R   0.553160 0.993960 0.582620 -0.539790
O8    O     O_R   0.446840 0.493960 0.417380 -0.539790
C3    C     C_R   0.427641 0.655390 0.566256 0.706645
C4    C     C_R   0.572359 0.155391 0.433744 0.706639
O9    O     O_3   0.536380 0.660670 0.510660 -0.369187
O10   O     O_3   0.463620 0.160670 0.489340 -0.369188
V1    V     V_3+5 0.493250 0.935680 0.498020 1.477229
V2    V     V_3+5 0.506750 0.435680 0.501980 1.477230
C5    C     C_R   0.822725 0.907697 0.169495 -0.135785
C6    C     C_R   0.177275 0.407699 0.830505 -0.135785
H1    H     H_    0.805718 0.781170 0.185233 0.108271
H2    H     H_    0.194282 0.281172 0.814767 0.108271
C7    C     C_R   0.862258 0.896995 0.129757 -0.166638
C8    C     C_R   0.137742 0.396997 0.870244 -0.166637
H3    H     H_    0.874764 0.761575 0.115870 0.122542
H4    H     H_    0.125236 0.261577 0.884131 0.122542
C9    C     C_R   0.885520 0.058982 0.108751 -0.052035
C10   C     C_R   0.114480 0.558984 0.891249 -0.052035
C11   C     C_R   0.867662 0.231654 0.128410 -0.169352
C12   C     C_R   0.132337 0.731655 0.871589 -0.169353
C13   C     C_R   0.828166 0.241856 0.168064 -0.139318
C14   C     C_R   0.171833 0.741858 0.831935 -0.139318
C15   C     C_R   0.805578 0.080151 0.188986 0.129615
C16   C     C_R   0.194422 0.580153 0.811014 0.129614
C17   C     C_1   0.765380 0.091851 0.230889 -0.058540
C18   C     C_1   0.234620 0.591854 0.769111 -0.058540
C19   C     C_1   0.732072 0.103272 0.266206 -0.041834
C20   C     C_1   0.267928 0.603274 0.733794 -0.041834
C21   C     C_R   0.649283 0.984699 0.305453 -0.101658
C22   C     C_R   0.350720 0.484708 0.694551 -0.101668
H5    H     H_    0.644547 0.870329 0.270425 0.116111
H6    H     H_    0.355459 0.370346 0.729583 0.116105
C23   C     C_R   0.611418 0.998071 0.346871 -0.153376
C24   C     C_R   0.388585 0.498079 0.653133 -0.153378
C25   C     C_R   0.615996 0.144596 0.393216 -0.124752
C26   C     C_R   0.384004 0.644595 0.606784 -0.124742
C27   C     C_R   0.661155 0.277845 0.397944 -0.025316
C28   C     C_R   0.338842 0.777836 0.602050 -0.025319
C29   C     C_R   0.698071 0.264173 0.354730 -0.179706
C30   C     C_R   0.301926 0.764165 0.645264 -0.179702
H7    H     H_    0.732498 0.365076 0.358164 0.143431
H8    H     H_    0.267496 0.865061 0.641827 0.143434
C31   C     C_R   0.692549 0.118002 0.308853 0.098459
C32   C     C_R   0.307450 0.618003 0.691147 0.098463
C33   C     C_R   0.642418 0.193163 0.795320 -0.156503
C34   C     C_R   0.357580 0.693205 0.204680 -0.156503
H9    H     H_    0.556312 0.221259 0.729831 0.101591
H10   H     H_    0.443686 0.721303 0.270169 0.101592
H11   H     H_    0.726816 0.192179 0.908774 0.126150
H12   H     H_    0.273181 0.692237 0.091227 0.126149
H13   H     H_    0.627790 0.224698 0.839568 0.113531
H14   H     H_    0.372207 0.724759 0.160433 0.113530
C35   C     C_R   0.618618 0.149727 0.674772 -0.034565
C36   C     C_R   0.381381 0.649733 0.325228 -0.034567
C37   C     C_R   0.901931 0.014716 0.768042 -0.160075
C38   C     C_R   0.098071 0.514686 0.231957 -0.160073
C39   C     C_R   0.863559 0.010997 0.704158 -0.113388
C40   C     C_R   0.136443 0.510957 0.295841 -0.113388
C41   C     C_R   0.804292 0.044633 0.695102 -0.145343
C42   C     C_R   0.195709 0.544605 0.304898 -0.145341
C43   C     C_R   0.781554 0.083744 0.750392 0.075620
C44   C     C_R   0.218446 0.583738 0.249607 0.075620
C45   C     C_R   0.821518 0.089487 0.816093 0.069552
C46   C     C_R   0.178481 0.589493 0.183907 0.069551
C47   C     C_R   0.720590 0.116940 0.742669 0.066284
C48   C     C_R   0.279410 0.616944 0.257331 0.066282
C49   C     C_R   0.701501 0.157112 0.800862 0.137969
C50   C     C_R   0.298498 0.657140 0.199139 0.137969
C51   C     C_R   0.741369 0.161963 0.864363 -0.197724
C52   C     C_R   0.258629 0.662003 0.135638 -0.197722
C53   C     C_R   0.800288 0.128296 0.871978 -0.189894
C54   C     C_R   0.199711 0.628325 0.128022 -0.189895
C55   C     C_R   0.677678 0.112580 0.679488 -0.186138
C56   C     C_R   0.322322 0.612572 0.320512 -0.186133
C57   C     C_R   0.601539 0.190760 0.732879 -0.174218
C58   C     C_R   0.398459 0.690792 0.267122 -0.174217
C59   C     C_R   0.881945 0.054192 0.824423 -0.080181
C60   C     C_R   0.118055 0.554185 0.175577 -0.080183
H15   H     H_    0.688636 0.083396 0.633083 0.114352
H16   H     H_    0.311365 0.583370 0.366916 0.114352
H17   H     H_    0.947698 0.986212 0.773606 0.107019
H18   H     H_    0.052304 0.486171 0.226393 0.107020
H19   H     H_    0.777447 0.038793 0.644109 0.118620
H20   H     H_    0.222555 0.538755 0.355890 0.118619
H21   H     H_    0.879894 0.980728 0.661070 0.125288
H22   H     H_    0.120109 0.480670 0.338929 0.125287
H23   H     H_    0.829214 0.133320 0.922282 0.112121
H24   H     H_    0.170784 0.633357 0.077719 0.112125
O11   O     O_R   0.053190 0.709680 0.082610 -0.531264
O12   O     O_R   0.946810 0.209680 0.917390 -0.531265
O13   O     O_R   0.057740 0.380240 0.950340 -0.539752
O14   O     O_R   0.942260 0.880240 0.049660 -0.539753
C61   C     C_R   0.071525 0.548894 0.932589 0.674342
C62   C     C_R   0.928475 0.048893 0.067411 0.674341
O15   O     O_R   0.060000 0.379940 0.084150 -0.532289
O16   O     O_R   0.940000 0.879940 0.915850 -0.532289
O17   O     O_R   0.949110 0.210100 0.052140 -0.537965
O18   O     O_R   0.050890 0.710100 0.947860 -0.537966
C63   C     C_R   0.074739 0.548261 0.109032 0.676952
C64   C     C_R   0.925261 0.048263 0.890968 0.676953
O19   O     O_3   0.963630 0.543720 0.989330 -0.371967
O20   O     O_3   0.036370 0.043720 0.010670 -0.371967
V3    V     V_3+5 0.006750 0.268680 0.001980 1.412875
V4    V     V_3+5 0.993250 0.768680 0.998020 1.412874
H25   H     H_    0.884307 0.359689 0.113428 0.125295
H26   H     H_    0.115692 0.859690 0.886570 0.125295
H27   H     H_    0.815422 0.376360 0.182628 0.107598
H28   H     H_    0.184577 0.876362 0.817370 0.107598
H29   H     H_    0.577736 0.894023 0.341856 0.126647
H30   H     H_    0.422270 0.394038 0.658152 0.126637
C65   C     C_2   0.673566 0.427203 0.449119 0.748602
O21   O     O_2   0.670632 0.396719 0.506451 -0.564875
O22   O     O_R   0.691079 0.601547 0.432308 -0.668880
H31   H     H_    0.698580 0.691920 0.471282 0.295754
C66   C     C_2   0.326428 0.927182 0.550871 0.748602
O23   O     O_2   0.329366 0.896693 0.493541 -0.564879
O24   O     O_R   0.308906 0.101523 0.567674 -0.668876
H32   H     H_    0.301405 0.191888 0.528696 0.295753

loop_
_geom_bond_atom_site_label_1
_geom_bond_atom_site_label_2
_ccdc_geom_bond_type
C40   C42   A    
C37   C39   A    
C11   C13   A    
C47   C49   A    
C60   C63   S    
O1    C3    A    
C38   H18   S    
O2    C4    A    
C2    O7    A    
C34   C58   A    
C33   H13   S    
C66   O23   D    
C29   H7    S    
C34   H14   S    
O5    C3    A    
C48   C50   A    
C2    C35   S    
C22   H6    S    
C50   C52   A    
C22   C24   A    
C4    C25   S    
C10   C61   S    
C21   C31   A    
C52   C54   A    
C9    C62   S    
C66   O24   S    
C22   C32   A    
O12   C64   A    
C62   O17   A    
O15   V3    S    
C27   C29   A    
C38   C60   A    
C43   C45   A    
O20   V3    S    
C7    C9    A    
C17   C19   T    
C45   C59   A    
C29   C31   A    
C39   C41   A    
C44   C48   A    
C15   C17   S    
C43   C47   A    
C54   H24   S    
C59   C64   S    
C6    H2    S    
C20   C32   S    
C40   H22   S    
C27   C65   S    
C39   H21   S    
O17   V3    S    
O6    V2    S    
C37   C59   A    
C21   C23   A    
C23   C25   A    
C33   C49   A    
C24   C26   A    
C48   C56   A    
C13   C15   A    
C47   C55   A    
C26   C28   A    
H10   C58   S    
C51   C53   A    
C21   H5    S    
C28   C30   A    
C44   C46   A    
H11   C51   S    
O4    C2    A    
C35   C57   A    
O19   V4    S    
O16   V4    S    
O11   V4    S    
C24   H30   S    
O18   V4    S    
O5    V1    S    
C5    C7    A    
C45   C53   A    
C14   H28   S    
C41   C43   A    
C16   C18   S    
O4    V2    S    
C53   H23   S    
C49   C51   A    
O6    C4    A    
O13   V3    S    
C37   H17   S    
C41   H19   S    
C3    C26   S    
O1    V2    S    
O2    V1    S    
C25   C27   A    
O22   H31   S    
C55   H15   S    
C65   O22   S    
C12   H26   S    
C34   C50   A    
C11   H25   S    
O13   C61   A    
O14   V4    S    
C7    H3    S    
C19   C31   S    
O24   H32   S    
C5    C15   A    
C8    H4    S    
C28   C66   S    
C6    C16   A    
H9    C57   S    
O16   C64   A    
O3    V1    S    
O14   C62   A    
C61   O18   A    
C36   C58   A    
O12   V3    S    
C6    C8    A    
O3    C1    A    
C46   C60   A    
C65   O21   D    
C9    C11   A    
C10   C12   A    
C33   C57   A    
C12   C14   A    
O7    V1    S    
C1    O8    A    
C46   C54   A    
C35   C55   A    
C14   C16   A    
O8    V2    S    
C56   H16   S    
C30   H8    S    
C42   H20   S    
C13   H27   S    
C1    C36   S    
C18   C20   T    
C36   C56   A    
H12   C52   S    
O11   C63   A    
C5    H1    S    
C30   C32   A    
C42   C44   A    
C8    C10   A    
O9    V2    S    
O10   V1    S    
O15   C63   A    
C23   H29   S    
C38   C40   A    
