data_mof_unit_59914.cif
_audit_creation_date              2012-12-10T21:06:57-0500
_audit_creation_method            fapswitch 2.2
_symmetry_space_group_name_H-M    P1
_symmetry_Int_Tables_number       1
_space_group_crystal_system       triclinic
_cell_length_a                    10.747093
_cell_length_b                    15.837019
_cell_length_c                    15.043016
_cell_angle_alpha                 89.74485
_cell_angle_beta                  91.397763
_cell_angle_gamma                 89.78381
_cell_volume                      2559.54361961

loop_
_atom_site_label
_atom_site_type_symbol
_atom_type_description
_atom_site_fract_x
_atom_site_fract_y
_atom_site_fract_z
_atom_type_partial_charge
C1    C     C_R   0.499312 0.338886 0.500099 0.906880
C2    C     C_R   0.500775 0.661097 0.499918 0.878076
C3    C     C_R   0.872711 0.502695 0.505074 -0.270527
C4    C     C_R   0.127181 0.496965 0.497857 -0.195675
C5    C     C_R   0.939663 0.455668 0.570354 0.000260
C6    C     C_R   0.059680 0.544342 0.433381 -0.038893
C7    C     C_R   0.445359 0.956626 0.570611 0.476945
C8    C     C_R   0.556541 0.043262 0.428848 0.486859
C9    C     C_R   0.504754 0.912986 0.502418 -0.056183
C10   C     C_R   0.497526 0.086912 0.497223 -0.064463
C11   C     C_R   0.559586 0.955640 0.432204 -0.233928
C12   C     C_R   0.442212 0.044233 0.567224 -0.217546
C13   C     C_1   0.506150 0.824066 0.501236 0.137820
C14   C     C_1   0.496048 0.175849 0.498603 0.174598
C15   C     C_1   0.497054 0.250634 0.499908 -0.069095
C16   C     C_1   0.504308 0.749300 0.500148 -0.134279
C17   C     C_R   0.483033 0.424814 0.953121 -0.090109
C18   C     C_R   0.508476 0.576227 0.046717 -0.073528
C19   C     C_R   0.494914 0.500565 0.904927 0.056142
C20   C     C_R   0.497411 0.500391 0.094898 0.054455
C21   C     C_R   0.507085 0.576331 0.952836 -0.035547
C22   C     C_R   0.484369 0.424716 0.046975 -0.040645
C23   C     C_R   0.259498 0.498101 0.498981 0.970372
C24   C     C_R   0.740475 0.499955 0.501420 0.923201
C25   C     C_1   0.497820 0.500288 0.807174 0.119333
C26   C     C_1   0.498874 0.500217 0.192754 0.131430
C27   C     C_R   0.205718 0.717510 0.300623 0.363010
C28   C     C_R   0.794512 0.274658 0.691905 0.447560
C29   C     C_R   0.164476 0.668849 0.371376 -0.320912
C30   C     C_R   0.841773 0.325322 0.624763 -0.259059
C31   C     C_R   0.117996 0.587360 0.357074 -0.028657
C32   C     C_R   0.876660 0.408885 0.642094 -0.089222
C33   C     C_R   0.116233 0.552109 0.270025 0.342883
C34   C     C_R   0.859941 0.444131 0.728127 0.268836
C35   C     C_R   0.157810 0.602902 0.198109 0.283005
C36   C     C_R   0.819286 0.389934 0.797462 0.272739
C37   C     C_R   0.202095 0.684563 0.214944 -0.322202
C38   C     C_R   0.784805 0.306733 0.777546 -0.307124
C39   C     C_R   0.932194 0.550726 0.440337 0.422174
C40   C     C_R   0.068680 0.450889 0.565291 0.474234
H1    H     H_    0.232046 0.724082 0.160702 0.254416
H2    H     H_    0.754407 0.264970 0.829781 0.255925
H3    H     H_    0.474260 0.365413 0.918175 0.156497
H4    H     H_    0.518153 0.635543 0.081731 0.155365
H5    H     H_    0.164781 0.695143 0.437748 0.201000
H6    H     H_    0.854507 0.299371 0.559077 0.220111
H7    H     H_    0.397423 0.079547 0.619135 0.230157
H8    H     H_    0.603747 0.920354 0.380043 0.218033
H9    H     H_    0.475581 0.365318 0.082181 0.174293
H10   H     H_    0.516534 0.635667 0.917618 0.175114
N1    N     N_1   0.499960 0.500020 0.270550 -0.076809
N2    N     N_1   0.500040 0.499980 0.729450 -0.089451
O1    O     O_R   0.500000 0.378020 0.573650 -0.638481
O2    O     O_R   0.500000 0.621980 0.426350 -0.644404
O3    O     O_R   0.500060 0.378020 0.426320 -0.579063
O4    O     O_R   0.499940 0.621980 0.573680 -0.571377
O5    O     O_R   0.316730 0.500010 0.573660 -0.618534
O6    O     O_R   0.683270 0.499990 0.426340 -0.568896
O7    O     O_R   0.316790 0.500010 0.426330 -0.607788
O8    O     O_R   0.683210 0.499990 0.573670 -0.618128
Zn1   Zn    Zn3+2 0.499960 0.500000 0.598370 1.015512
Zn2   Zn    Zn3+2 0.500040 0.500000 0.401630 1.039738
S1    S     S_3+6 0.255712 0.822177 0.317116 0.070252
O9    O     O_2   0.177012 0.879815 0.259253 -0.184635
O10   O     O_2   0.243407 0.847694 0.412588 -0.267909
O11   O     O_3   0.404787 0.831270 0.287082 -0.511479
H11   H     H_    0.446151 0.778713 0.308357 0.326961
S2    S     S_3+6 0.756868 0.168260 0.672070 0.042298
O12   O     O_2   0.623892 0.153690 0.696471 -0.314728
O13   O     O_2   0.774256 0.146202 0.576099 -0.276359
O14   O     O_3   0.849945 0.106830 0.736580 -0.486987
H12   H     H_    0.821559 0.048410 0.724813 0.403104
S3    S     S_3+6 0.069842 0.444960 0.251682 0.125798
O15   O     O_2   0.974778 0.441197 0.176832 -0.211645
O16   O     O_2   0.182380 0.395089 0.225766 -0.203689
O17   O     O_3   0.010243 0.397256 0.341209 -0.535941
H13   H     H_    0.918713 0.399633 0.331951 0.377197
S4    S     S_3+6 0.895754 0.552499 0.750295 0.080204
O18   O     O_2   0.778726 0.596647 0.777636 -0.251349
O19   O     O_2   0.989951 0.557716 0.825493 -0.192028
O20   O     O_3   0.953824 0.604976 0.663175 -0.579089
H14   H     H_    0.882903 0.637204 0.636634 0.362246
S5    S     S_3+6 0.146205 0.571862 0.084797 0.109761
O21   O     O_2   0.199349 0.485038 0.072181 -0.232009
O22   O     O_2   0.011334 0.572350 0.055996 -0.150232
O23   O     O_3   0.223175 0.640066 0.020264 -0.565893
H15   H     H_    0.214057 0.617244 0.959247 0.401340
S6    S     S_3+6 0.830206 0.416631 0.912011 0.108043
O24   O     O_2   0.965225 0.415214 0.940448 -0.176768
O25   O     O_2   0.777385 0.502752 0.929002 -0.212467
O26   O     O_3   0.753810 0.345481 0.973335 -0.564108
H16   H     H_    0.766295 0.364228 0.035647 0.405296
O27   O     O_3   0.865002 0.599427 0.379028 -0.584014
C41   C     C_3   0.839869 0.678750 0.417396 0.094257
H17   H     H_    0.927108 0.710458 0.440424 0.164321
H18   H     H_    0.777084 0.671994 0.474707 0.112420
C42   C     C_3   0.775922 0.735193 0.348077 -0.689169
H19   H     H_    0.687282 0.706063 0.324583 0.246673
H20   H     H_    0.755400 0.797678 0.377589 0.205908
H21   H     H_    0.837510 0.744267 0.290598 0.275969
O28   O     O_3   0.134815 0.387555 0.610753 -0.610709
C43   C     C_3   0.160745 0.410195 0.700203 0.167879
H22   H     H_    0.080724 0.396451 0.742148 0.165754
H23   H     H_    0.186690 0.477874 0.707782 0.181917
C44   C     C_3   0.266005 0.354996 0.737162 -0.734438
H24   H     H_    0.351081 0.364383 0.698584 0.268390
H25   H     H_    0.285955 0.371471 0.807713 0.205960
H26   H     H_    0.239131 0.287414 0.733540 0.275739
S7    S     S_3+6 0.374819 0.903267 0.659802 0.080167
O29   O     O_2   0.272360 0.847944 0.623577 -0.247594
O30   O     O_2   0.470718 0.849132 0.707285 -0.269996
O31   O     O_3   0.315322 0.972685 0.731793 -0.515755
H27   H     H_    0.277676 0.937502 0.778562 0.407542
S8    S     S_3+6 0.625717 0.096536 0.339033 0.086683
O32   O     O_2   0.528567 0.149497 0.291365 -0.256927
O33   O     O_2   0.727371 0.153006 0.374358 -0.247761
O34   O     O_3   0.686015 0.027024 0.267480 -0.513805
H28   H     H_    0.722230 0.062128 0.220054 0.408954

loop_
_geom_bond_atom_site_label_1
_geom_bond_atom_site_label_2
_ccdc_geom_bond_type
O6    Zn2   S    
S1    O10   D    
O28   C43   S    
C27   C29   A    
C18   C21   A    
S3    O15   D    
S8    O32   D    
C3    C24   S    
C36   S6    S    
C23   O7    A    
C44   H25   S    
O27   C41   S    
C35   C37   A    
C38   H2    S    
N2    Zn1   S    
S7    O30   D    
S4    O19   D    
O3    Zn2   S    
C43   C44   S    
C23   O5    A    
C9    C13   S    
O31   H27   S    
C1    O1    A    
C33   C35   A    
C40   O28   S    
O1    Zn1   S    
C39   O27   S    
C4    C40   A    
S2    O12   D    
C31   C33   A    
C1    C15   S    
C2    C16   S    
C18   C20   A    
C8    S8    S    
C5    C32   S    
C6    C31   S    
S1    O11   S    
C3    C39   A    
S3    O16   D    
C11   H8    S    
C41   H17   S    
N1    Zn2   S    
C12   H7    S    
C10   C12   A    
C21   H10   S    
C42   H20   S    
C42   H19   S    
C7    C12   A    
C44   H26   S    
C24   O6    A    
O17   H13   S    
C4    C6    A    
C2    O2    A    
S7    O31   S    
O26   H16   S    
C4    C23   S    
C35   S5    S    
O23   H15   S    
O2    Zn2   S    
C41   C42   S    
O20   H14   S    
C7    S7    S    
C29   H5    S    
O8    Zn1   S    
C32   C34   A    
C41   H18   S    
C17   H3    S    
C18   H4    S    
S5    O21   D    
C14   C15   T    
S6    O26   S    
C28   C38   A    
C24   O8    A    
C6    C39   A    
S2    O14   S    
C43   H23   S    
C9    C11   A    
C27   S1    S    
C22   H9    S    
C33   S3    S    
S5    O22   D    
S6    O25   D    
C10   C14   S    
S3    O17   S    
C5    C40   A    
C42   H21   S    
C7    C9    A    
O7    Zn2   S    
C28   S2    S    
S4    O18   D    
C30   H6    S    
C20   C22   A    
C3    C5    A    
S8    O33   D    
O5    Zn1   S    
C44   H24   S    
C17   C22   A    
C36   C38   A    
C1    O3    A    
C25   N2    T    
O14   H12   S    
C29   C31   A    
C2    O4    A    
C26   N1    T    
C34   S4    S    
C30   C32   A    
S4    O20   S    
C20   C26   S    
C27   C37   A    
C8    C11   A    
C28   C30   A    
C17   C19   A    
O11   H11   S    
C34   C36   A    
C37   H1    S    
C43   H22   S    
C19   C25   S    
S8    O34   S    
S1    O9    D    
S5    O23   S    
S6    O24   D    
C8    C10   A    
C13   C16   T    
S7    O29   D    
S2    O13   D    
O4    Zn1   S    
O34   H28   S    
C19   C21   A    
