data_mof_unit_18549.cif
_audit_creation_date              2012-12-10T19:30:42-0500
_audit_creation_method            fapswitch 2.2
_symmetry_space_group_name_H-M    P1
_symmetry_Int_Tables_number       1
_space_group_crystal_system       triclinic
_cell_length_a                    14.915908
_cell_length_b                    15.737876
_cell_length_c                    16.552024
_cell_angle_alpha                 90.349073
_cell_angle_beta                  85.27084
_cell_angle_gamma                 89.982304
_cell_volume                      3872.19896726

loop_
_atom_site_label
_atom_site_type_symbol
_atom_type_description
_atom_site_fract_x
_atom_site_fract_y
_atom_site_fract_z
_atom_type_partial_charge
C1    C     C_R   0.500008 0.662517 0.499990 0.871498
C2    C     C_3   0.540551 0.029545 0.553720 0.434314
C3    C     C_3   0.501237 0.917017 0.492734 -0.039989
C4    C     C_3   0.498439 0.083102 0.489457 -0.044748
C5    C     C_1   0.500680 0.826361 0.495550 0.076426
C6    C     C_1   0.499388 0.173775 0.491168 0.079960
C7    C     C_3   0.031313 0.578955 0.488542 -0.150792
C8    C     C_3   0.968839 0.420263 0.511523 -0.145119
C9    C     C_3   0.976594 0.528428 0.428576 -0.148367
C10   C     C_3   0.023597 0.470766 0.571473 -0.158874
C11   C     C_3   0.964419 0.550186 0.559914 -0.154603
C12   C     C_R   0.500028 0.337506 0.499110 0.920351
C13   C     C_3   0.035776 0.449019 0.440184 -0.145689
C14   C     C_3   0.910808 0.499687 0.499947 0.112826
C15   C     C_3   0.089319 0.499556 0.500134 0.130217
C16   C     C_R   0.487680 0.499050 0.654360 0.956741
C17   C     C_R   0.512242 0.496616 0.345885 0.949024
C18   C     C_1   0.810375 0.499863 0.499951 0.052154
C19   C     C_1   0.189646 0.499778 0.500166 0.007470
C20   C     C_R   0.481596 0.484251 0.741693 -0.340800
C21   C     C_R   0.521125 0.470740 0.260840 -0.349896
C22   C     C_R   0.553105 0.510642 0.786196 0.308186
C23   C     C_3   0.543759 0.026001 0.422342 0.433189
C24   C     C_R   0.463529 0.407057 0.233905 0.328048
C25   C     C_R   0.563049 0.475569 0.862911 0.395060
C26   C     C_R   0.487748 0.364758 0.160540 0.360585
C27   C     C_R   0.494129 0.422793 0.898379 -0.081028
C28   C     C_R   0.559030 0.396160 0.108531 -0.105235
C29   C     C_R   0.418981 0.403747 0.856621 -0.331794
C30   C     C_R   0.613935 0.461106 0.134223 -0.288394
C31   C     C_R   0.411475 0.434430 0.778917 0.432131
C32   C     C_R   0.595494 0.499025 0.209866 0.434877
C33   C     C_2   0.490229 0.398220 0.983634 -0.086339
C34   C     C_3   0.455911 0.974244 0.559564 0.434385
C35   C     C_2   0.562780 0.378020 0.021826 -0.076725
C36   C     C_3   0.597538 0.650055 0.786657 0.117406
C37   C     C_3   0.536887 0.700395 0.733962 -0.372544
C38   C     C_3   0.520808 0.790266 0.766841 -0.966149
C39   C     C_3   0.308564 0.400643 0.249661 0.144630
C40   C     C_3   0.280470 0.492763 0.269101 -0.370063
C41   C     C_3   0.191678 0.514421 0.234380 -0.987232
C42   C     C_3   0.612072 0.641978 0.233700 0.103366
C43   C     C_3   0.630519 0.683621 0.150555 -0.360966
C44   C     C_3   0.594779 0.774565 0.151320 -0.959661
C45   C     C_3   0.587540 0.972459 0.486675 -0.511239
C46   C     C_3   0.270697 0.471225 0.745374 0.149141
C47   C     C_3   0.200745 0.449485 0.815168 -0.392123
C48   C     C_3   0.121639 0.511331 0.819124 -0.967120
C49   C     C_3   0.479990 0.220997 0.156735 0.145051
C50   C     C_3   0.424767 0.145945 0.130828 -0.853860
C51   C     C_3   0.715418 0.466077 0.870749 0.112334
C52   C     C_3   0.789542 0.478986 0.927506 -0.876634
C53   C     C_3   0.629838 0.995497 0.303822 0.112272
C54   C     C_3   0.667165 0.031768 0.223017 -0.855352
C55   C     C_3   0.366900 0.005562 0.676324 0.124708
C56   C     C_3   0.412096 0.027658 0.495367 -0.504646
C57   C     C_3   0.338348 0.973423 0.760997 -0.853137
C58   C     C_3   0.624850 0.004989 0.661663 0.118461
C59   C     C_3   0.646214 0.040502 0.743498 -0.836434
C60   C     C_3   0.375369 0.992419 0.319336 0.115461
C61   C     C_3   0.344178 0.951183 0.243211 -0.848570
C62   C     C_1   0.500258 0.751244 0.497903 -0.188175
C63   C     C_1   0.500040 0.248859 0.494721 -0.159438
C64   C     C_3   0.459015 0.970361 0.428247 0.429308
H1    H     H_    0.057171 0.644569 0.479012 0.132894
H2    H     H_    0.342166 0.052329 0.498752 0.166156
H3    H     H_    0.957334 0.552247 0.369430 0.138233
H4    H     H_    0.043064 0.446595 0.630395 0.125844
H5    H     H_    0.662847 0.683824 0.787564 0.160766
H6    H     H_    0.567690 0.648759 0.850781 0.148295
H7    H     H_    0.568942 0.703723 0.671016 0.235661
H8    H     H_    0.470932 0.667911 0.732476 0.203378
H9    H     H_    0.486291 0.788446 0.828888 0.263773
H10   H     H_    0.477536 0.825023 0.726862 0.312604
H11   H     H_    0.585631 0.824676 0.768507 0.254904
H12   H     H_    0.943037 0.354627 0.521028 0.132678
H13   H     H_    0.255316 0.357863 0.277043 0.152311
H14   H     H_    0.311133 0.389662 0.183027 0.159764
H15   H     H_    0.272354 0.502083 0.335698 0.254510
H16   H     H_    0.333245 0.536966 0.243274 0.212731
H17   H     H_    0.198539 0.508157 0.167271 0.267024
H18   H     H_    0.172557 0.580930 0.250634 0.273392
H19   H     H_    0.137424 0.471540 0.259641 0.261966
H20   H     H_    0.642190 0.682115 0.279830 0.168115
H21   H     H_    0.538231 0.640670 0.251207 0.099890
H22   H     H_    0.704176 0.684377 0.133542 0.232771
H23   H     H_    0.065308 0.406971 0.390882 0.125705
H24   H     H_    0.597543 0.646205 0.104172 0.225532
H25   H     H_    0.521018 0.775311 0.167614 0.271126
H26   H     H_    0.608353 0.802780 0.090217 0.265163
H27   H     H_    0.628630 0.813926 0.195688 0.258099
H28   H     H_    0.236822 0.471193 0.688038 0.169547
H29   H     H_    0.296635 0.537160 0.753108 0.112747
H30   H     H_    0.175456 0.383877 0.806644 0.233968
H31   H     H_    0.232214 0.452533 0.873613 0.215184
H32   H     H_    0.145261 0.577171 0.829289 0.266844
H33   H     H_    0.072108 0.493831 0.870074 0.268385
H34   H     H_    0.934993 0.591996 0.609468 0.132377
H35   H     H_    0.087726 0.508879 0.761905 0.257963
H36   H     H_    0.485236 0.216928 0.223412 0.168208
H37   H     H_    0.548459 0.216228 0.124539 0.137178
H38   H     H_    0.418628 0.148071 0.064452 0.261367
H39   H     H_    0.458061 0.085568 0.145559 0.209660
H40   H     H_    0.356524 0.148052 0.163144 0.254646
H41   H     H_    0.736950 0.498587 0.813091 0.198983
H42   H     H_    0.709263 0.396626 0.858601 0.120667
H43   H     H_    0.774864 0.441908 0.983821 0.244126
H44   H     H_    0.854815 0.457006 0.897401 0.214704
H45   H     H_    0.627616 0.368258 0.988744 0.165247
H46   H     H_    0.795140 0.547381 0.943254 0.265037
H47   H     H_    0.582481 0.943327 0.291243 0.172046
H48   H     H_    0.686888 0.969219 0.335089 0.144342
H49   H     H_    0.716116 0.083145 0.233094 0.263206
H50   H     H_    0.701689 0.980900 0.185466 0.210215
H51   H     H_    0.611655 0.058029 0.190008 0.248750
H52   H     H_    0.305488 0.023521 0.646573 0.147136
H53   H     H_    0.409531 0.062953 0.682676 0.176699
H54   H     H_    0.398682 0.957715 0.793104 0.256015
H55   H     H_    0.299043 0.023292 0.795975 0.212407
H56   H     H_    0.425842 0.408061 0.018361 0.158862
H57   H     H_    0.295983 0.915723 0.757313 0.263201
H58   H     H_    0.689081 0.987575 0.626533 0.143884
H59   H     H_    0.583354 0.946813 0.672790 0.167417
H60   H     H_    0.582881 0.057606 0.780031 0.258034
H61   H     H_    0.682630 0.992024 0.776703 0.201259
H62   H     H_    0.689063 0.097977 0.734976 0.261556
H63   H     H_    0.420664 0.046301 0.300633 0.170489
H64   H     H_    0.315199 0.017062 0.356363 0.146979
H65   H     H_    0.299173 0.896697 0.259730 0.264753
H66   H     H_    0.306695 0.998102 0.209169 0.209306
H67   H     H_    0.365763 0.364173 0.884568 0.180284
H68   H     H_    0.403202 0.928099 0.203826 0.254312
H69   H     H_    0.668273 0.485916 0.093732 0.198838
H70   H     H_    0.657489 0.947856 0.483579 0.164840
N1    N     N_1   0.731990 0.500000 0.499970 -0.079083
N2    N     N_1   0.268010 0.500000 0.500030 -0.098012
O1    O     O_R   0.425540 0.623220 0.500000 -0.609477
O2    O     O_3   0.389943 0.379642 0.283791 -0.611556
O3    O     O_3   0.653523 0.560986 0.234475 -0.622569
O4    O     O_3   0.339241 0.408599 0.737467 -0.621223
O5    O     O_3   0.436946 0.296959 0.136768 -0.623327
O6    O     O_3   0.633914 0.500662 0.906858 -0.621602
O7    O     O_3   0.586272 0.060777 0.350758 -0.611441
O8    O     O_3   0.413591 0.940426 0.631623 -0.622695
O9    O     O_3   0.579457 0.067459 0.619899 -0.605416
O10   O     O_3   0.419856 0.930957 0.362994 -0.611035
O11   O     O_R   0.574460 0.376780 0.500000 -0.615375
O12   O     O_R   0.574480 0.623220 0.499990 -0.618158
O13   O     O_R   0.425520 0.376780 0.500010 -0.587571
O14   O     O_R   0.416730 0.500010 0.615810 -0.607633
O15   O     O_R   0.583270 0.499990 0.384190 -0.580473
O16   O     O_R   0.565670 0.500010 0.615790 -0.568658
O17   O     O_R   0.434330 0.499990 0.384210 -0.593897
O18   O     O_3   0.615500 0.568392 0.752799 -0.636364
Zn1   Zn    Zn3+2 0.400550 0.500000 0.500010 0.987095
Zn2   Zn    Zn3+2 0.599450 0.500000 0.499990 1.005672

loop_
_geom_bond_atom_site_label_1
_geom_bond_atom_site_label_2
_ccdc_geom_bond_type
C50   H40   S    
C8    C13   S    
C23   C45   S    
C27   C29   A    
C14   C18   S    
C25   O6    S    
C43   C44   S    
C17   O17   A    
C1    C62   S    
C58   O9    S    
C36   O18   S    
C3    C64   S    
C27   C33   S    
C59   H62   S    
C34   C56   S    
C48   H33   S    
C34   O8    S    
C58   H59   S    
C11   H34   S    
C43   H24   S    
C39   H13   S    
C12   O11   A    
C36   C37   S    
C24   C26   A    
C4    C23   S    
C10   C15   S    
C55   H53   S    
C11   C14   S    
C46   H28   S    
C55   H52   S    
C41   H19   S    
C54   H49   S    
C8    H12   S    
O1    Zn1   S    
C9    C13   S    
C61   H68   S    
C15   C19   S    
O16   Zn2   S    
C52   H43   S    
C22   C25   A    
C49   O5    S    
C56   C64   S    
O17   Zn1   S    
C26   O5    S    
C2    O9    S    
C35   H45   S    
C61   H65   S    
C57   H55   S    
C53   H47   S    
C7    C15   S    
C39   O2    S    
C50   H39   S    
C4    C56   S    
C23   O7    S    
C17   O15   A    
C60   O10   S    
C36   H6    S    
C7    C11   S    
C38   H11   S    
C2    C45   S    
C21   C32   A    
C58   H58   S    
C1    O1    A    
C51   C52   S    
C39   H14   S    
C60   H64   S    
C42   H20   S    
C28   C35   S    
C32   O3    S    
C4    C6    S    
C39   C40   S    
N2    Zn1   S    
C3    C34   S    
C24   O2    S    
C19   N2    T    
C53   C54   S    
C3    C45   S    
C17   C21   S    
N1    Zn2   S    
C60   C61   S    
C53   O7    S    
C6    C63   T    
C2    C4    S    
C9    C14   S    
C9    H3    S    
C37   C38   S    
C7    H1    S    
C47   C48   S    
C13   C15   S    
C52   H46   S    
C51   H41   S    
C30   H69   S    
C41   H17   S    
C54   H51   S    
C13   H23   S    
C40   H16   S    
C45   H70   S    
C40   H15   S    
C18   N1    T    
C16   O16   A    
C42   H21   S    
C16   C20   S    
O15   Zn2   S    
O11   Zn2   S    
C44   H27   S    
C61   H66   S    
C53   H48   S    
C40   C41   S    
C20   C22   A    
C50   H38   S    
O14   Zn1   S    
C37   H7    S    
C37   H8    S    
C59   H61   S    
C42   C43   S    
C44   H26   S    
C36   H5    S    
C46   O4    S    
C22   O18   S    
C51   O6    S    
C59   H60   S    
C7    C9    S    
C48   H35   S    
C46   C47   S    
C23   C64   S    
C8    C14   S    
C55   O8    S    
C48   H32   S    
C64   O10   S    
C42   O3    S    
C43   H22   S    
C12   O13   A    
C60   H63   S    
C3    C5    S    
C10   H4    S    
C25   C27   A    
C26   C28   A    
C55   C57   S    
C58   C59   S    
C29   C31   A    
C49   H36   S    
C30   C32   A    
C2    C34   S    
C29   H67   S    
C46   H29   S    
C51   H42   S    
C56   H2    S    
C41   H18   S    
C54   H50   S    
C28   C30   A    
C33   C35   D    
C47   H30   S    
C38   H10   S    
C5    C62   T    
O13   Zn1   S    
C10   C11   S    
C57   H57   S    
C52   H44   S    
C33   H56   S    
C8    C10   S    
C49   C50   S    
C21   C24   A    
C47   H31   S    
C1    O12   A    
C16   O14   A    
O12   Zn2   S    
C31   O4    S    
C12   C63   S    
C38   H9    S    
C44   H25   S    
C49   H37   S    
C57   H54   S    
C20   C31   A    
