data_mof_unit_58501.cif
_audit_creation_date              2013-03-05T16:12:26-0500
_audit_creation_method            fapswitch 2.2
_symmetry_space_group_name_H-M    P1
_symmetry_Int_Tables_number       1
_space_group_crystal_system       triclinic
_cell_length_a                    10.820438
_cell_length_b                    10.076941
_cell_length_c                    23.383274
_cell_angle_alpha                 90.090271
_cell_angle_beta                  94.740089
_cell_angle_gamma                 91.422417
_cell_volume                      2540.12001255

loop_
_atom_site_label
_atom_site_type_symbol
_atom_site_description
_atom_site_fract_x
_atom_site_fract_y
_atom_site_fract_z
_atom_type_partial_charge
O1    O     O_R   0.316770 0.614620 0.500000 -0.600001
O2    O     O_R   0.683230 0.385380 0.500000 -0.610934
O3    O     O_R   0.683230 0.614620 0.500000 -0.587069
O4    O     O_R   0.316770 0.385380 0.500000 -0.598787
C1    C     C_R   0.261749 0.498486 0.505147 0.953687
C2    C     C_R   0.740044 0.501981 0.499679 0.976082
O5    O     O_R   0.499970 0.614690 0.416160 -0.629796
O6    O     O_R   0.500030 0.385310 0.583840 -0.645530
O7    O     O_R   0.500030 0.614690 0.583840 -0.619073
O8    O     O_R   0.499970 0.385310 0.416160 -0.638226
C3    C     C_R   0.496581 0.499025 0.389737 0.893601
C4    C     C_R   0.502611 0.499140 0.610342 0.884998
Zn1   Zn    Zn3+2 0.500000 0.653120 0.500000 0.999872
Zn2   Zn    Zn3+2 0.500000 0.346880 0.500000 0.978295
C5    C     C_R   0.621373 0.494835 0.888436 0.541696
C6    C     C_R   0.368386 0.461691 0.112250 0.550273
N1    N     N_R   0.515286 0.483526 0.852862 -0.363225
N2    N     N_R   0.472668 0.487697 0.147534 -0.363421
C7    C     C_R   0.400821 0.484689 0.873171 0.546063
C8    C     C_R   0.582129 0.525611 0.126900 0.542779
C9    C     C_R   0.388756 0.480140 0.932494 -0.144598
C10   C     C_R   0.595447 0.520069 0.067749 -0.147268
C11   C     C_R   0.497403 0.493389 0.970257 -0.068663
C12   C     C_R   0.488264 0.495147 0.030110 -0.069735
C13   C     C_R   0.615169 0.505016 0.948221 -0.146688
C14   C     C_R   0.371918 0.472133 0.052354 -0.144977
C15   C     C_R   0.272141 0.463082 0.954998 0.213840
C16   C     C_R   0.712096 0.536831 0.045435 0.218478
C17   C     C_R   0.264082 0.457501 0.014312 0.217140
C18   C     C_R   0.722190 0.526201 0.986399 0.215385
O9    O     O_2   0.731642 0.496433 0.865425 -0.462293
O10   O     O_2   0.263210 0.423651 0.135518 -0.466978
O11   O     O_2   0.299754 0.490873 0.835483 -0.475022
O12   O     O_2   0.677137 0.567461 0.164114 -0.481777
C19   C     C_R   0.534854 0.381514 0.240258 0.190582
C20   C     C_R   0.473973 0.368629 0.759165 0.203980
C21   C     C_R   0.544989 0.391306 0.299980 -0.186904
C22   C     C_R   0.463612 0.379537 0.699452 -0.195172
H1    H     H_    0.598023 0.319000 0.325178 0.198614
H2    H     H_    0.421389 0.298403 0.673660 0.183375
C23   C     C_R   0.486420 0.493005 0.327459 -0.049912
C24   C     C_R   0.509945 0.492788 0.672742 -0.045064
C25   C     C_R   0.409592 0.579482 0.295442 -0.249222
C26   C     C_R   0.572965 0.591930 0.705801 -0.226076
H3    H     H_    0.353815 0.649294 0.316302 0.162137
H4    H     H_    0.623456 0.669890 0.685872 0.178303
C27   C     C_R   0.402797 0.574814 0.236013 -0.097190
C28   C     C_R   0.574808 0.588104 0.765055 -0.090594
H5    H     H_    0.348486 0.646997 0.211374 0.172261
H6    H     H_    0.616905 0.670301 0.790129 0.171764
C29   C     C_R   0.467599 0.478789 0.208220 0.273365
C30   C     C_R   0.523226 0.478504 0.792107 0.269373
C31   C     C_R   0.059710 0.377915 0.503652 0.151107
C32   C     C_R   0.943963 0.615286 0.525775 0.220408
C33   C     C_R   0.935136 0.392116 0.483279 0.179568
C34   C     C_R   0.072709 0.612388 0.530118 0.219543
C35   C     C_R   0.874676 0.505940 0.500919 -0.343198
C36   C     C_R   0.130476 0.495501 0.514736 -0.320372
C37   C     C_R   0.575162 0.074538 0.539385 0.182918
C38   C     C_R   0.436436 0.928231 0.456596 0.195982
C39   C     C_R   0.426187 0.070238 0.459972 0.191827
C40   C     C_R   0.565554 0.932144 0.542782 0.221783
N3    N     N_R   0.500000 0.857200 0.500000 -0.124548
N4    N     N_R   0.500000 0.142800 0.500000 -0.135149
N5    N     N_R   0.160303 0.448535 0.918148 0.280737
O13   O     O_R   0.102261 0.553210 0.899195 -0.224332
O14   O     O_R   0.121548 0.331234 0.900313 -0.280137
N6    N     N_R   0.823338 0.554334 0.082531 0.282214
O15   O     O_R   0.871844 0.672607 0.091767 -0.257553
O16   O     O_R   0.872355 0.452934 0.109362 -0.265585
N7    N     N_R   0.143979 0.445080 0.035236 0.278170
O17   O     O_R   0.094604 0.548092 0.056868 -0.239124
O18   O     O_R   0.086919 0.329950 0.035277 -0.254670
N8    N     N_R   0.843217 0.532937 0.966218 0.277198
O19   O     O_R   0.903571 0.646046 0.965301 -0.259455
O20   O     O_R   0.897224 0.423921 0.953918 -0.232247
C41   C     C_3   0.594821 0.266767 0.212133 -0.400532
C42   C     C_3   0.497672 0.164323 0.188316 -0.794591
H7    H     H_    0.441595 0.127622 0.223024 0.261916
H8    H     H_    0.435353 0.207738 0.153620 0.278296
H9    H     H_    0.544583 0.078842 0.170302 0.268998
H10   H     H_    0.651130 0.301933 0.177414 0.251859
H11   H     H_    0.659826 0.215972 0.243757 0.232301
C43   C     C_3   0.436066 0.238648 0.786127 -0.410596
C44   C     C_3   0.549205 0.165575 0.811944 -0.786861
H12   H     H_    0.614288 0.147617 0.778561 0.267323
H13   H     H_    0.598048 0.223768 0.847660 0.279177
H14   H     H_    0.519188 0.068333 0.829072 0.263372
H15   H     H_    0.371041 0.254430 0.819512 0.256438
H16   H     H_    0.386052 0.172339 0.753410 0.226670
N9    N     N_R   0.103722 0.254282 0.528498 0.230366
O21   O     O_R   0.186539 0.257409 0.572216 -0.347026
O22   O     O_R   0.043771 0.142660 0.517762 -0.329896
N10   N     N_R   0.885460 0.729642 0.546547 0.226058
O23   O     O_R   0.847868 0.821200 0.510458 -0.354118
O24   O     O_R   0.897175 0.756572 0.601180 -0.390748
N11   N     N_R   0.877520 0.309498 0.437189 0.228994
O25   O     O_R   0.795115 0.359998 0.400324 -0.399898
O26   O     O_R   0.922775 0.196247 0.424193 -0.356705
N12   N     N_R   0.143679 0.723717 0.554905 0.262277
O27   O     O_R   0.221026 0.706973 0.599782 -0.358959
O28   O     O_R   0.126379 0.842712 0.534795 -0.304443
C45   C     C_3   0.670181 0.149906 0.579625 -0.497085
C46   C     C_3   0.801933 0.131026 0.563209 -0.617888
H17   H     H_    0.838400 0.032946 0.575773 0.302044
H18   H     H_    0.803991 0.141627 0.516184 0.305744
H19   H     H_    0.864633 0.207840 0.585000 0.248863
H20   H     H_    0.657737 0.255591 0.577998 0.276377
H21   H     H_    0.661691 0.125391 0.625364 0.204478
C47   C     C_3   0.395000 0.862190 0.400112 -0.373208
C48   C     C_3   0.500971 0.873174 0.360301 -0.771957
H22   H     H_    0.583069 0.817423 0.377237 0.300010
H23   H     H_    0.531458 0.978523 0.356134 0.239668
H24   H     H_    0.469887 0.838087 0.316487 0.241380
H25   H     H_    0.354968 0.762878 0.406740 0.234631
H26   H     H_    0.314647 0.907965 0.377075 0.195666
C49   C     C_3   0.340039 0.141925 0.416139 -0.452602
C50   C     C_3   0.203183 0.099609 0.416534 -0.674452
H27   H     H_    0.167428 0.057023 0.374392 0.238561
H28   H     H_    0.187804 0.026331 0.450774 0.310909
H29   H     H_    0.147840 0.188409 0.422782 0.289140
H30   H     H_    0.341785 0.247426 0.424552 0.275909
H31   H     H_    0.371654 0.131012 0.372430 0.197746
C51   C     C_3   0.614436 0.869663 0.598434 -0.325566
C52   C     C_3   0.520062 0.886799 0.643453 -0.814095
H32   H     H_    0.442560 0.813166 0.637007 0.325093
H33   H     H_    0.479811 0.987206 0.641075 0.253972
H34   H     H_    0.565759 0.877633 0.687446 0.235627
H35   H     H_    0.645582 0.768720 0.592125 0.255616
H36   H     H_    0.702572 0.915384 0.616307 0.218915

loop_
_geom_bond_atom_site_label_1
_geom_bond_atom_site_label_2
_geom_bond_distance
_ccdc_geom_bond_type
C15   C17   1.397982 A    
C48   H22   1.108565 S    
O3    C2    1.304494 A    
C46   H18   1.106948 S    
N11   O25   1.301532 A    
C27   H5    1.083024 S    
C41   C42   1.525924 S    
O5    C3    1.316611 A    
C37   N4    1.374311 A    
C43   H16   1.112038 S    
C1    C36   1.455796 S    
C38   N3    1.388112 A    
O1    C1    1.310021 A    
C16   N6    1.431356 S    
C12   C14   1.415389 A    
C22   C24   1.403346 A    
C18   N8    1.428316 S    
C42   H8    1.108900 S    
C5    C13   1.408812 A    
C41   H11   1.112056 S    
O7    Zn1   1.998910 S    
C50   H27   1.110094 S    
C4    C24   1.456305 S    
C47   C48   1.537579 S    
N6    O15   1.300755 A    
N5    O14   1.300739 A    
C31   N9    1.449982 S    
C52   H34   1.108939 S    
C11   C12   1.411275 A    
C45   H20   1.077110 S    
C20   C30   1.415423 A    
C8    O12   1.349593 S    
C28   H6    1.083015 S    
C9    C15   1.413479 A    
C10   C16   1.411541 A    
C21   C23   1.400788 A    
C23   C25   1.395030 A    
C2    C35   1.454223 S    
O2    C2    1.312820 A    
C24   C26   1.391855 A    
N1    C30   1.431205 S    
C40   C51   1.508313 S    
C46   H17   1.104515 S    
N11   O26   1.298374 A    
C26   H4    1.074573 S    
N2    C29   1.427508 S    
C31   C33   1.402870 A    
C6    C14   1.408258 A    
C32   C34   1.389431 A    
N8    O19   1.300575 A    
C44   H13   1.109424 S    
C39   C49   1.522879 S    
C43   C44   1.526228 S    
C7    O11   1.349348 S    
N9    O21   1.302373 A    
N7    O18   1.300646 A    
C42   H7    1.111235 S    
C27   C29   1.399058 A    
C44   H12   1.111190 S    
C19   C41   1.515235 S    
C38   C39   1.440567 A    
C50   H29   1.105136 S    
C39   N4    1.376206 A    
C49   H30   1.080287 S    
C40   N3    1.388516 A    
C15   N5    1.430690 S    
N9    O22   1.298073 A    
Zn1   N3    2.056502 S    
C28   C30   1.400491 A    
O6    C4    1.301485 A    
Zn2   N4    2.056502 S    
C33   N11   1.450392 S    
N12   O28   1.300923 A    
C51   H36   1.099140 S    
C48   H23   1.110650 S    
N10   O24   1.300824 A    
C25   H3    1.079687 S    
N8    O20   1.299876 A    
N6    O16   1.301144 A    
C8    C10   1.403580 A    
C33   C35   1.412122 A    
C19   C29   1.413961 A    
C52   H32   1.106522 S    
C10   C12   1.413830 A    
O1    Zn1   2.010757 S    
C43   H15   1.107122 S    
C34   N12   1.437293 S    
C20   C22   1.396252 A    
C47   H26   1.096444 S    
C19   C21   1.394886 A    
C44   H14   1.110425 S    
C13   C18   1.414151 A    
C5    N1    1.363094 A    
C37   C40   1.438885 A    
O6    Zn2   1.997709 S    
C7    C9    1.404696 A    
O4    C1    1.308852 A    
O3    Zn1   2.029659 S    
C31   C36   1.406660 A    
C5    O9    1.348551 S    
C6    O10   1.348867 S    
C45   H21   1.108733 S    
C37   C45   1.522614 S    
C9    C11   1.414170 A    
C49   H31   1.110418 S    
N7    O17   1.299750 A    
C21   H1    1.083323 S    
C49   C50   1.531575 S    
C22   H2    1.084093 S    
C42   H9    1.110379 S    
C41   H10   1.108091 S    
C20   C43   1.516568 S    
C16   C18   1.397890 A    
N12   O27   1.300975 A    
N1    C7    1.362945 A    
C34   C36   1.407064 A    
C51   H35   1.093062 S    
C3    C23   1.452366 S    
C48   H24   1.106233 S    
N2    C8    1.361682 A    
C11   C13   1.415746 A    
O4    Zn2   2.029660 S    
N10   O23   1.301216 A    
O2    Zn2   2.010756 S    
O7    C4    1.319718 A    
C50   H28   1.109844 S    
C32   N10   1.431724 S    
C38   C47   1.507603 S    
O8    C3    1.302595 A    
O5    Zn1   1.997712 S    
C14   C17   1.412109 A    
C6    N2    1.361395 A    
N5    O13   1.300703 A    
C45   C46   1.523026 S    
C52   H33   1.111110 S    
C25   C27   1.386181 A    
C47   H25   1.096919 S    
C46   H19   1.111135 S    
C26   C28   1.384675 A    
O8    Zn2   1.998912 S    
C51   C52   1.538372 S    
C17   N7    1.428693 S    
C32   C35   1.413846 A    
