data_mof_unit_67678.cif
_audit_creation_date              2013-03-05T16:48:55-0500
_audit_creation_method            fapswitch 2.2
_symmetry_space_group_name_H-M    P1
_symmetry_Int_Tables_number       1
_space_group_crystal_system       triclinic
_cell_length_a                    10.913507
_cell_length_b                    10.870046
_cell_length_c                    12.817422
_cell_angle_alpha                 92.960028
_cell_angle_beta                  91.54983
_cell_angle_gamma                 90.405405
_cell_volume                      1517.89605735

loop_
_atom_site_label
_atom_site_type_symbol
_atom_site_description
_atom_site_fract_x
_atom_site_fract_y
_atom_site_fract_z
_atom_type_partial_charge
O1    O     O_R   0.313000 0.493330 0.412070 -0.584550
O2    O     O_R   0.687000 0.506670 0.587930 -0.599298
O3    O     O_R   0.326280 0.506660 0.587930 -0.542644
O4    O     O_R   0.673720 0.493340 0.412070 -0.554203
C1    C     C_R   0.262362 0.498393 0.502027 0.782226
C2    C     C_R   0.738234 0.498931 0.498379 0.823523
O5    O     O_R   0.493370 0.312980 0.412070 -0.591082
O6    O     O_R   0.506630 0.687020 0.587930 -0.588168
O7    O     O_R   0.506650 0.326310 0.587930 -0.557960
O8    O     O_R   0.493350 0.673690 0.412070 -0.557347
C3    C     C_R   0.502243 0.262096 0.500587 0.768569
C4    C     C_R   0.497265 0.737842 0.499684 0.792970
Cu1   Cu    Cu3+1 0.492140 0.492110 0.395880 0.982296
Cu2   Cu    Cu3+1 0.507860 0.507890 0.604120 0.992843
H1    H     H_    0.746753 0.346735 0.905528 0.144311
H2    H     H_    0.092639 0.717130 0.158171 0.133692
C5    C     C_R   0.762887 0.295792 0.742372 -0.096633
C6    C     C_R   0.158998 0.738959 0.317776 -0.123666
H3    H     H_    0.829613 0.366606 0.730061 0.121964
H4    H     H_    0.088837 0.680971 0.347380 0.157379
C7    C     C_R   0.720951 0.218111 0.658628 -0.113190
C8    C     C_R   0.246504 0.794707 0.386506 -0.106081
H5    H     H_    0.755651 0.230598 0.581570 0.093426
H6    H     H_    0.242056 0.779295 0.469133 0.100060
C9    C     C_R   0.626883 0.132236 0.672980 0.118456
C10   C     C_R   0.338228 0.870918 0.348835 0.131151
C11   C     C_R   0.583204 0.118314 0.773714 -0.149249
C12   C     C_R   0.337432 0.894150 0.241974 -0.161245
H7    H     H_    0.510941 0.052487 0.786259 0.136406
H8    H     H_    0.405381 0.954781 0.211399 0.118417
C13   C     C_R   0.628795 0.193398 0.857732 -0.192436
C14   C     C_R   0.248116 0.839657 0.174061 -0.156222
H9    H     H_    0.595321 0.182326 0.935141 0.141922
H10   H     H_    0.246596 0.859096 0.092470 0.114048
C15   C     C_R   0.715583 0.284825 0.841351 -0.143895
C16   C     C_R   0.160475 0.760333 0.211425 -0.128732
C17   C     C_R   0.559100 0.938350 0.580021 -0.252688
C18   C     C_R   0.437922 0.061599 0.422503 -0.240196
H11   H     H_    0.607360 0.890552 0.640657 0.154407
H12   H     H_    0.386442 0.110252 0.364157 0.151657
C19   C     C_R   0.494008 0.871683 0.499940 -0.080206
C20   C     C_R   0.504477 0.128191 0.501571 -0.071234
C21   C     C_R   0.428201 0.933871 0.422595 0.007691
C22   C     C_R   0.564397 0.066201 0.582457 0.014867
H13   H     H_    0.233222 0.825788 0.916422 0.154382
H14   H     H_    0.880612 0.527446 0.002532 0.153021
C23   C     C_R   0.223962 0.639255 0.852550 -0.273937
C24   C     C_R   0.853339 0.606993 0.157206 -0.403178
H15   H     H_    0.273518 0.603982 0.918475 0.167323
H16   H     H_    0.832665 0.695787 0.127256 0.149990
C25   C     C_R   0.182471 0.558820 0.769828 0.513427
C26   C     C_R   0.856325 0.588331 0.265681 0.519463
C27   C     C_R   0.122410 0.609424 0.682013 -0.059666
C28   C     C_R   0.888858 0.471163 0.299085 0.025608
C29   C     C_R   0.105739 0.737106 0.680460 -0.302833
C30   C     C_R   0.910695 0.374303 0.225992 -0.341331
H17   H     H_    0.058805 0.776283 0.614461 0.162738
H18   H     H_    0.941247 0.287460 0.254043 0.151272
C31   C     C_R   0.139813 0.814201 0.766514 0.569471
C32   C     C_R   0.906220 0.392876 0.118476 0.521471
C33   C     C_R   0.202064 0.765441 0.851485 -0.315006
C34   C     C_R   0.880007 0.510505 0.085047 -0.245238
C35   C     C_R   0.937365 0.529925 0.589875 -0.292203
C36   C     C_R   0.064890 0.449591 0.415560 -0.287045
H19   H     H_    0.888583 0.562786 0.658123 0.155045
H20   H     H_    0.114825 0.421608 0.346365 0.174938
C37   C     C_R   0.872525 0.495441 0.497093 -0.035120
C38   C     C_R   0.129371 0.491616 0.506061 -0.072730
C39   C     C_R   0.938223 0.461967 0.406835 0.046489
C40   C     C_R   0.064955 0.534842 0.593924 0.063394
N1    N     N_1   0.480320 0.480250 0.239400 -0.169915
N2    N     N_1   0.519680 0.519750 0.760600 -0.146656
C41   C     C_2   0.466918 0.459188 0.031470 -0.042294
C42   C     C_2   0.525331 0.539296 0.968329 0.006731
C43   C     C_1   0.521291 0.526481 0.852211 0.197262
C44   C     C_1   0.474726 0.472919 0.147803 0.169908
O9    O     O_3   0.111306 0.937586 0.766276 -0.618795
C45   C     C_3   0.011778 0.961720 0.832761 0.042793
H21   H     H_    0.014163 0.061979 0.854130 0.142464
H22   H     H_    0.021058 0.915642 0.908141 0.153880
C46   C     C_3   0.887171 0.931519 0.777298 -0.368075
H23   H     H_    0.819684 0.001715 0.803503 0.198143
H24   H     H_    0.894854 0.936518 0.691305 0.232427
C47   C     C_3   0.836610 0.805067 0.802375 -0.887346
H25   H     H_    0.900357 0.730587 0.780083 0.256997
H26   H     H_    0.748273 0.787234 0.759168 0.250492
H27   H     H_    0.820921 0.800978 0.887057 0.236938
O10   O     O_3   0.944118 0.302904 0.046010 -0.635669
C48   C     C_3   0.877181 0.191729 0.053855 0.018968
H28   H     H_    0.845801 0.161140 0.973835 0.168625
H29   H     H_    0.792967 0.200763 0.101417 0.134526
C49   C     C_3   0.959659 0.090017 0.093487 -0.320790
H30   H     H_    0.039268 0.078222 0.042266 0.210556
H31   H     H_    0.996133 0.113392 0.173549 0.213366
C50   C     C_3   0.888294 0.969096 0.093228 -1.002261
H32   H     H_    0.818464 0.974792 0.154394 0.263206
H33   H     H_    0.952373 0.892693 0.107275 0.252621
H34   H     H_    0.840027 0.949820 0.017010 0.261394
C51   C     C_3   0.595264 0.650527 0.015415 -0.398480
C52   C     C_3   0.516034 0.766657 0.020209 -0.340811
C53   C     C_3   0.514720 0.834305 0.918791 -0.839627
H35   H     H_    0.607925 0.868626 0.902923 0.252146
H36   H     H_    0.480557 0.773826 0.851835 0.275232
H37   H     H_    0.453147 0.914696 0.926924 0.231110
H38   H     H_    0.420909 0.741834 0.039612 0.225363
H39   H     H_    0.552812 0.831120 0.083847 0.203137
H40   H     H_    0.625772 0.633889 0.096361 0.190054
H41   H     H_    0.679649 0.665787 0.971121 0.194031
C54   C     C_3   0.381337 0.359508 0.983012 -0.380446
C55   C     C_3   0.369902 0.246096 0.049054 -0.353946
C56   C     C_3   0.298375 0.142997 0.988792 -0.860574
H42   H     H_    0.205661 0.175311 0.966345 0.262930
H43   H     H_    0.346745 0.112943 0.916929 0.252814
H44   H     H_    0.289005 0.063212 0.038525 0.232613
H45   H     H_    0.462083 0.211911 0.071472 0.207305
H46   H     H_    0.320674 0.271335 0.121822 0.228614
H47   H     H_    0.288804 0.399781 0.973444 0.217658
H48   H     H_    0.412327 0.328513 0.904213 0.234808
O11   O     O_3   0.222274 0.437807 0.769744 -0.610791
C57   C     C_3   0.124386 0.351750 0.764219 0.026654
H49   H     H_    0.034054 0.391823 0.745030 0.130099
H50   H     H_    0.114687 0.313868 0.842393 0.156025
C58   C     C_3   0.155688 0.245977 0.685495 -0.271050
H51   H     H_    0.214279 0.280399 0.623562 0.231385
H52   H     H_    0.208931 0.175138 0.726333 0.226645
C59   C     C_3   0.041569 0.186595 0.632596 -0.898580
H53   H     H_    0.977214 0.157274 0.691910 0.261381
H54   H     H_    0.067847 0.104689 0.583050 0.268819
H55   H     H_    0.994822 0.252926 0.582234 0.251849
O12   O     O_3   0.831181 0.678234 0.343924 -0.624169
C60   C     C_3   0.833100 0.800334 0.312836 0.017193
H56   H     H_    0.748778 0.818085 0.265385 0.156070
H57   H     H_    0.916937 0.818887 0.269113 0.156546
C61   C     C_3   0.836047 0.885959 0.411277 -0.297299
H58   H     H_    0.756131 0.865286 0.459325 0.226349
H59   H     H_    0.920843 0.868828 0.458328 0.211185
C62   C     C_3   0.833186 0.021335 0.385317 -0.934085
H60   H     H_    0.914254 0.044543 0.339374 0.260363
H61   H     H_    0.835959 0.079740 0.458880 0.251275
H62   H     H_    0.747782 0.041628 0.340385 0.259607

loop_
_geom_bond_atom_site_label_1
_geom_bond_atom_site_label_2
_geom_bond_distance
_ccdc_geom_bond_type
C35   H19   1.082516 S    
C53   H35   1.108548 S    
C29   C31   1.391080 A    
C11   H7    1.081930 S    
C41   C42   1.382911 D    
C56   H42   1.108911 S    
C47   H27   1.106492 S    
C60   C61   1.528216 S    
C31   O9    1.379098 S    
C61   C62   1.525703 S    
C46   H23   1.110116 S    
C32   O10   1.386708 S    
C50   H34   1.106900 S    
C54   H47   1.109773 S    
C58   H51   1.110753 S    
C23   H15   1.079444 S    
O9    C45   1.416275 S    
O5    C3    1.289245 A    
C51   H41   1.110773 S    
C62   H61   1.108765 S    
C52   H38   1.108752 S    
C59   H53   1.106159 S    
H14   C34   1.083060 S    
O1    C1    1.290821 A    
C36   C38   1.394997 A    
C8    H6    1.083057 S    
C47   H26   1.109541 S    
C18   C20   1.398425 A    
N2    C43   1.172369 T    
N1    C44   1.172535 T    
C45   H22   1.113564 S    
C58   H52   1.111792 S    
C3    C20   1.456636 S    
C32   C34   1.398377 A    
H13   C33   1.078816 S    
O4    Cu1   1.986798 S    
C55   C56   1.525618 S    
C49   H30   1.107255 S    
C50   H32   1.107802 S    
C26   C28   1.409246 A    
C10   C21   1.483144 S    
C25   O11   1.388157 S    
C13   H9    1.078751 S    
C48   H29   1.118657 S    
C57   C58   1.536611 S    
C24   H16   1.080056 S    
C14   C16   1.394069 A    
C53   H36   1.108456 S    
Cu1   Cu2   2.666548 S    
C19   C21   1.411776 A    
O2    C2    1.289413 A    
C20   C22   1.413589 A    
O6    Cu2   1.968906 S    
C1    C38   1.455204 S    
C27   C40   1.478242 S    
C9    C22   1.480130 S    
H1    C15   1.081526 S    
C46   H24   1.111736 S    
C57   H50   1.110169 S    
C54   H48   1.110390 S    
C28   C30   1.398850 A    
C27   C29   1.402152 A    
C62   H62   1.111783 S    
C35   C37   1.400073 A    
C31   C33   1.397612 A    
C42   C43   1.487081 S    
C11   C13   1.395664 A    
C12   C14   1.396921 A    
C47   H25   1.102697 S    
O4    C2    1.293657 A    
C45   H21   1.109870 S    
C58   C59   1.524872 S    
C23   C25   1.402272 A    
Cu1   N1    2.003756 S    
C59   H55   1.110085 S    
C60   H57   1.108461 S    
C49   C50   1.522896 S    
C5    C7    1.396052 A    
C30   C32   1.402670 A    
C37   C39   1.410647 A    
C36   H20   1.084774 S    
O7    Cu2   1.973889 S    
C4    C19   1.455384 S    
C24   C34   1.399598 A    
C51   C52   1.534682 S    
C35   C40   1.392566 A    
C24   C26   1.414959 A    
O6    C4    1.286102 A    
C49   H31   1.107078 S    
C56   H43   1.109718 S    
C36   C39   1.391905 A    
C48   C49   1.529057 S    
O7    C3    1.287922 A    
C61   H58   1.109512 S    
O3    Cu2   1.986800 S    
O8    C4    1.290469 A    
C2    C37   1.466859 S    
C53   H37   1.108479 S    
C29   H17   1.084510 S    
C41   C44   1.490923 S    
C13   C15   1.395655 A    
O1    Cu1   1.971668 S    
C60   H56   1.112807 S    
C55   H46   1.112031 S    
C46   C47   1.530242 S    
C57   H49   1.107315 S    
C7    C9    1.404822 A    
C59   H54   1.110529 S    
C6    C8    1.395159 A    
Cu2   N2    2.003756 S    
O3    C1    1.286215 A    
O8    Cu1   1.973889 S    
C23   C33   1.394673 A    
C61   H59   1.112934 S    
O11   C57   1.412888 S    
C50   H33   1.108189 S    
C41   C54   1.522145 S    
C42   C51   1.515025 S    
C52   H39   1.112072 S    
C9    C11   1.403449 A    
C51   H40   1.105247 S    
C62   H60   1.110647 S    
C10   C12   1.405354 A    
C26   O12   1.397692 S    
C17   C22   1.389247 A    
C7    H5    1.081991 S    
O12   C60   1.405512 S    
C18   C21   1.391772 A    
C17   H11   1.083892 S    
C54   C55   1.537270 S    
H2    C16   1.081288 S    
C18   H12   1.084874 S    
C45   C46   1.542648 S    
C28   C39   1.477302 S    
C12   H8    1.083205 S    
C52   C53   1.525957 S    
C5    H3    1.076353 S    
C30   H18   1.079155 S    
C56   H44   1.108299 S    
C6    H4    1.077587 S    
C17   C19   1.399931 A    
O2    Cu2   1.971667 S    
O5    Cu1   1.968906 S    
O10   C48   1.417108 S    
C38   C40   1.405746 A    
C8    C10   1.406122 A    
C5    C15   1.392983 A    
C25   C27   1.424173 A    
C48   H28   1.106341 S    
C6    C16   1.395081 A    
C55   H45   1.110582 S    
C14   H10   1.077280 S    
