data_mof_unit_49282.cif
_audit_creation_date              2012-12-11T14:01:39-0500
_audit_creation_method            fapswitch 2.2
_symmetry_space_group_name_H-M    P1
_symmetry_Int_Tables_number       1
_space_group_crystal_system       triclinic
_cell_length_a                    18.857603
_cell_length_b                    11.147733
_cell_length_c                    18.756319
_cell_angle_alpha                 89.812431
_cell_angle_beta                  88.848247
_cell_angle_gamma                 90.050233
_cell_volume                      3942.12494562

loop_
_atom_site_label
_atom_site_type_symbol
_atom_type_description
_atom_site_fract_x
_atom_site_fract_y
_atom_site_fract_z
_atom_type_partial_charge
C1    C     C_R   0.269280 0.045967 0.849958 0.541843
C2    C     C_R   0.031719 0.651994 0.956114 -0.142374
C3    C     C_R   0.516590 0.158121 0.028888 -0.145921
C4    C     C_R   0.531722 0.151995 0.956122 -0.142241
C5    C     C_2   0.272940 0.703677 0.936894 -0.011679
C6    C     C_2   0.737783 0.682443 0.063480 -0.013704
C7    C     C_2   0.772945 0.203689 0.936895 -0.012219
C8    C     C_2   0.237786 0.182438 0.063481 -0.013128
C9    C     C_2   0.246551 0.569829 0.072664 -0.118745
C10   C     C_2   0.749678 0.568228 0.921686 -0.107643
C11   C     C_2   0.746551 0.069848 0.072667 -0.118288
C12   C     C_R   0.728123 0.041109 0.146126 0.533563
C13   C     C_2   0.249677 0.068225 0.921687 -0.108072
C14   C     C_2   0.310563 0.608796 0.050508 -0.190391
C15   C     C_2   0.690931 0.623875 0.944988 -0.181379
C16   C     C_2   0.810567 0.108796 0.050509 -0.190323
C17   C     C_2   0.190933 0.123878 0.944989 -0.181457
C18   C     C_2   0.321864 0.645236 0.975248 -0.135623
C19   C     C_2   0.682717 0.651664 0.021951 -0.162828
C20   C     C_2   0.821867 0.145240 0.975249 -0.135657
C21   C     C_2   0.182720 0.151667 0.021952 -0.162781
C22   C     C_2   0.484479 0.828564 0.570549 -0.101982
C23   C     C_R   0.769280 0.545966 0.849959 0.540256
C24   C     C_2   0.485252 0.838719 0.414922 -0.108282
C25   C     C_2   0.984814 0.328504 0.570664 -0.092937
C26   C     C_2   0.985585 0.338672 0.415079 -0.110283
C27   C     C_2   0.464975 0.742741 0.452258 -0.166011
C28   C     C_2   0.450402 0.750898 0.528136 -0.151505
C29   C     C_2   0.965289 0.242651 0.452347 -0.164177
C30   C     C_2   0.950896 0.250627 0.528240 -0.146325
C31   C     C_2   0.247288 0.569248 0.582544 -0.109825
C32   C     C_2   0.744293 0.611913 0.430694 -0.092252
C33   C     C_2   0.755733 0.112206 0.569390 -0.105877
C34   C     C_R   0.228122 0.541105 0.146125 0.534654
C35   C     C_2   0.252888 0.067688 0.417244 -0.106300
C36   C     C_2   0.238466 0.571274 0.426971 -0.088814
C37   C     C_2   0.743708 0.602693 0.586407 -0.107422
C38   C     C_2   0.756471 0.102162 0.413569 -0.108398
C39   C     C_2   0.262077 0.070751 0.572645 -0.089845
C40   C     C_R   0.471345 0.821275 0.852676 0.526418
C41   C     C_R   0.529567 0.822263 0.146516 0.525228
C42   C     C_R   0.971346 0.321275 0.852675 0.525901
C43   C     C_R   0.029568 0.322263 0.146515 0.525930
C44   C     C_2   0.182421 0.563179 0.472306 -0.148420
C45   C     C_R   0.502052 0.054381 0.067749 -0.087530
C46   C     C_2   0.784335 0.677101 0.548227 -0.166527
C47   C     C_2   0.716207 0.177209 0.451373 -0.163772
C48   C     C_2   0.317993 0.060598 0.527341 -0.147383
C49   C     C_2   0.187404 0.588012 0.547751 -0.164008
C50   C     C_2   0.771661 0.696817 0.473347 -0.150177
C51   C     C_2   0.728819 0.197149 0.526244 -0.152026
C52   C     C_2   0.313097 0.085160 0.451710 -0.163318
C53   C     C_R   0.276238 0.697165 0.857205 0.578632
C54   C     C_R   0.726060 0.692243 0.141544 0.583568
C55   C     C_R   0.776239 0.197168 0.857204 0.579669
C56   C     C_R   0.528373 0.042617 0.921171 -0.081053
C57   C     C_R   0.226060 0.192241 0.141544 0.582420
C58   C     C_R   0.273843 0.042640 0.646541 0.553429
C59   C     C_R   0.728952 0.047641 0.350199 0.560399
C60   C     C_R   0.771076 0.547857 0.649829 0.557117
C61   C     C_R   0.226298 0.542683 0.353303 0.556682
C62   C     C_R   0.467331 0.823074 0.645816 0.548073
C63   C     C_R   0.527355 0.824168 0.350407 0.556896
C64   C     C_R   0.967460 0.323076 0.645885 0.548618
C65   C     C_R   0.027418 0.324162 0.350436 0.553398
C66   C     C_R   0.260188 0.634942 0.647262 0.563779
C67   C     C_R   0.002056 0.554381 0.067743 -0.087537
C68   C     C_R   0.738046 0.642148 0.356159 0.563961
C69   C     C_R   0.761987 0.142493 0.643830 0.560769
C70   C     C_R   0.239866 0.134486 0.352670 0.567629
C71   C     C_R   0.502349 0.831489 0.073811 -0.000807
C72   C     C_R   0.500966 0.826758 0.924240 0.000415
C73   C     C_R   0.002354 0.331489 0.073809 -0.000970
C74   C     C_R   0.000970 0.326756 0.924238 0.000593
C75   C     C_R   0.504922 0.940953 0.034615 0.026002
C76   C     C_R   0.511302 0.936859 0.959252 0.026223
C77   C     C_R   0.004928 0.440952 0.034611 0.025789
C78   C     C_R   0.028377 0.542614 0.921165 -0.081191
C79   C     C_R   0.011308 0.436856 0.959248 0.026499
C80   C     C_R   0.498240 0.720412 0.964081 -0.172165
C81   C     C_R   0.496007 0.723099 0.037182 -0.175328
C82   C     C_R   0.998243 0.220410 0.964079 -0.172124
C83   C     C_R   0.996010 0.223098 0.037181 -0.175371
C84   C     C_3   0.208636 0.769273 0.971275 -0.237746
C85   C     C_3   0.219047 0.838449 0.042346 -0.289484
C86   C     C_3   0.148092 0.862913 0.079678 -0.447356
C87   C     C_3   0.812734 0.710269 0.030225 -0.248245
C88   C     C_3   0.856199 0.814823 0.058708 -0.282683
C89   C     C_R   0.016587 0.658122 0.028879 -0.145861
C90   C     C_3   0.899823 0.876476 0.999360 -0.480443
C91   C     C_3   0.708646 0.269298 0.971278 -0.237783
C92   C     C_3   0.719063 0.338462 0.042353 -0.289246
C93   C     C_3   0.648117 0.362823 0.079731 -0.447788
C94   C     C_3   0.312739 0.210260 0.030227 -0.248055
C95   C     C_3   0.356206 0.314811 0.058712 -0.282755
C96   C     C_3   0.399827 0.376471 0.999365 -0.480282
Cr1   Cr    Cr6+3 0.230530 0.836340 0.748870 1.006841
Cr2   Cr    Cr6+3 0.614360 0.677860 0.250770 1.004454
Cr3   Cr    Cr6+3 0.885640 0.177860 0.749230 1.011064
Cr4   Cr    Cr6+3 0.114360 0.177860 0.250770 1.004678
Cr5   Cr    Cr6+3 0.769470 0.836340 0.251130 0.996056
Cr6   Cr    Cr6+3 0.730530 0.336340 0.748870 1.003886
Cr7   Cr    Cr6+3 0.269470 0.336340 0.251130 0.999343
Cr8   Cr    Cr6+3 0.387420 0.989430 0.750820 1.013593
Cr9   Cr    Cr6+3 0.612580 0.989430 0.249180 1.002427
Cr10  Cr    Cr6+3 0.887420 0.489430 0.750820 1.012184
Cr11  Cr    Cr6+3 0.112580 0.489430 0.249180 1.003815
Cr12  Cr    Cr6+3 0.385640 0.677860 0.749230 1.011938
H1    H     H_    0.493887 0.633463 0.938918 0.135233
H2    H     H_    0.791042 0.781659 0.451774 0.154788
H3    H     H_    0.709677 0.282114 0.547438 0.156431
H4    H     H_    0.358502 0.128455 0.425920 0.152847
H5    H     H_    0.292019 0.588455 0.444535 0.086747
H6    H     H_    0.694271 0.568333 0.565674 0.106395
H7    H     H_    0.805739 0.067376 0.434509 0.096632
H8    H     H_    0.208724 0.089204 0.554947 0.094557
H9    H     H_    0.290827 0.518700 0.558591 0.102859
H10   H     H_    0.724320 0.526528 0.450574 0.087342
H11   H     H_    0.775567 0.026746 0.549924 0.085868
H12   H     H_    0.493664 0.637758 0.064931 0.131174
H13   H     H_    0.209190 0.017517 0.441490 0.109644
H14   H     H_    0.486883 0.064976 0.123207 0.135612
H15   H     H_    0.541002 0.041140 0.864664 0.137112
H16   H     H_    0.986887 0.564978 0.123201 0.136579
H17   H     H_    0.041007 0.541134 0.864658 0.135872
H18   H     H_    0.015239 0.743952 0.055357 0.107167
H19   H     H_    0.044646 0.732772 0.926372 0.108532
H20   H     H_    0.515250 0.243951 0.055368 0.106929
H21   H     H_    0.544653 0.232773 0.926381 0.108999
H22   H     H_    0.354276 0.613462 0.087195 0.134550
H23   H     H_    0.993888 0.133462 0.938917 0.135153
H24   H     H_    0.649373 0.648124 0.908407 0.138720
H25   H     H_    0.854282 0.113442 0.087193 0.134598
H26   H     H_    0.149376 0.148133 0.908409 0.138665
H27   H     H_    0.369782 0.614610 0.948632 0.139201
H28   H     H_    0.630154 0.642828 0.045623 0.146390
H29   H     H_    0.869783 0.114609 0.948631 0.139134
H30   H     H_    0.130156 0.142841 0.045623 0.146398
H31   H     H_    0.204970 0.554572 0.034841 0.128130
H32   H     H_    0.789304 0.534553 0.956683 0.098267
H33   H     H_    0.704966 0.054609 0.034846 0.128344
H34   H     H_    0.993666 0.137758 0.064930 0.131224
H35   H     H_    0.289301 0.034547 0.956684 0.097958
H36   H     H_    0.465758 0.653599 0.428979 0.153332
H37   H     H_    0.414715 0.683241 0.550442 0.155909
H38   H     H_    0.965790 0.153598 0.428941 0.152089
H39   H     H_    0.915328 0.182791 0.550515 0.157753
H40   H     H_    0.480187 0.928310 0.437197 0.102330
H41   H     H_    0.520176 0.897474 0.550026 0.093614
H42   H     H_    0.980822 0.428208 0.437476 0.105890
H43   H     H_    0.020481 0.397522 0.550192 0.085648
H44   H     H_    0.110712 0.906910 0.042780 0.140908
H45   H     H_    0.129474 0.545242 0.452959 0.150876
H46   H     H_    0.125373 0.777434 0.099935 0.173518
H47   H     H_    0.156014 0.921801 0.126229 0.180901
H48   H     H_    0.252807 0.794878 0.081653 0.183423
H49   H     H_    0.245743 0.923913 0.033275 0.161032
H50   H     H_    0.187948 0.835883 0.932927 0.168331
H51   H     H_    0.165106 0.703910 0.977653 0.153133
H52   H     H_    0.931759 0.811404 0.968762 0.167568
H53   H     H_    0.863647 0.917056 0.960356 0.165668
H54   H     H_    0.934889 0.946100 0.021922 0.128811
H55   H     H_    0.819972 0.880513 0.080291 0.215339
H56   H     H_    0.831833 0.716898 0.570006 0.154221
H57   H     H_    0.891996 0.784211 0.101434 0.173353
H58   H     H_    0.846628 0.629295 0.035244 0.146181
H59   H     H_    0.806592 0.734247 0.973545 0.175106
H60   H     H_    0.610715 0.406859 0.042873 0.141011
H61   H     H_    0.625421 0.277300 0.099948 0.173276
H62   H     H_    0.656048 0.421646 0.126311 0.180603
H63   H     H_    0.752875 0.294930 0.081631 0.183413
H64   H     H_    0.745706 0.423971 0.033279 0.161129
H65   H     H_    0.687963 0.335917 0.932932 0.168383
H66   H     H_    0.665110 0.203944 0.977649 0.153146
H67   H     H_    0.668974 0.217506 0.429288 0.153638
H68   H     H_    0.431763 0.311403 0.968765 0.167721
H69   H     H_    0.363649 0.417054 0.960364 0.165786
H70   H     H_    0.434892 0.446095 0.021928 0.128705
H71   H     H_    0.319982 0.380502 0.080300 0.215301
H72   H     H_    0.392004 0.284193 0.101435 0.172833
H73   H     H_    0.346630 0.129283 0.035246 0.146021
H74   H     H_    0.306599 0.234238 0.973547 0.175113
H75   H     H_    0.370738 0.041487 0.546844 0.154896
H76   H     H_    0.142180 0.631925 0.573227 0.155156
O1    O     O_R   0.215090 0.709860 0.828130 -0.530318
O2    O     O_R   0.543740 0.718170 0.330000 -0.510081
O3    O     O_R   0.956260 0.218170 0.670000 -0.513315
O4    O     O_R   0.043740 0.218170 0.330000 -0.508767
O5    O     O_R   0.320940 0.626760 0.674370 -0.501051
O6    O     O_R   0.679060 0.626760 0.325630 -0.488377
O7    O     O_R   0.820940 0.126760 0.674370 -0.497887
O8    O     O_R   0.179060 0.126760 0.325630 -0.491593
O9    O     O_3   0.334530 0.834540 0.749640 -0.276206
O10   O     O_3   0.665470 0.834540 0.250360 -0.265725
O11   O     O_3   0.834530 0.334540 0.749640 -0.275535
O12   O     O_R   0.784910 0.709860 0.171870 -0.524661
O13   O     O_3   0.165470 0.334540 0.250360 -0.266094
O14   O     O_R   0.236990 0.958390 0.823710 -0.526058
O15   O     O_R   0.763010 0.958390 0.176290 -0.532643
O16   O     O_R   0.736990 0.458390 0.823710 -0.526179
O17   O     O_R   0.263010 0.458390 0.176290 -0.532496
O18   O     O_R   0.332380 0.074750 0.830850 -0.506885
O19   O     O_R   0.667620 0.074750 0.169150 -0.513348
O20   O     O_R   0.832380 0.574750 0.830850 -0.508564
O21   O     O_R   0.167620 0.574750 0.169150 -0.511758
O22   O     O_R   0.445800 0.917770 0.825070 -0.506072
O23   O     O_R   0.715090 0.209860 0.828130 -0.527211
O24   O     O_R   0.554200 0.917770 0.174930 -0.513438
O25   O     O_R   0.945800 0.417770 0.825070 -0.506843
O26   O     O_R   0.054200 0.417770 0.174930 -0.512548
O27   O     O_R   0.456410 0.716580 0.829970 -0.535560
O28   O     O_R   0.543590 0.716580 0.170030 -0.536956
O29   O     O_R   0.956410 0.216580 0.829970 -0.535853
O30   O     O_R   0.043590 0.216580 0.170030 -0.536519
O31   O     O_R   0.321080 0.625290 0.822650 -0.498064
O32   O     O_R   0.678920 0.625290 0.177350 -0.510829
O33   O     O_R   0.821080 0.125290 0.822650 -0.496858
O34   O     O_R   0.284910 0.209860 0.171870 -0.527871
O35   O     O_R   0.178920 0.125290 0.177350 -0.512165
O36   O     O_R   0.214930 0.711450 0.668160 -0.509798
O37   O     O_R   0.785070 0.711450 0.331840 -0.515114
O38   O     O_R   0.714930 0.211450 0.668160 -0.510549
O39   O     O_R   0.285070 0.211450 0.331840 -0.512359
O40   O     O_R   0.236850 0.959870 0.675420 -0.495428
O41   O     O_R   0.763150 0.959870 0.324580 -0.507443
O42   O     O_R   0.736850 0.459870 0.675420 -0.508706
O43   O     O_R   0.263150 0.459870 0.324580 -0.494676
O44   O     O_R   0.332230 0.076350 0.670880 -0.512216
O45   O     O_R   0.445660 0.919250 0.676780 -0.499509
O46   O     O_R   0.667770 0.076350 0.329120 -0.510179
O47   O     O_R   0.832230 0.576350 0.670880 -0.510172
O48   O     O_R   0.167770 0.576350 0.329120 -0.512072
O49   O     O_R   0.554340 0.919250 0.323220 -0.497845
O50   O     O_R   0.945660 0.419250 0.676780 -0.493791
O51   O     O_R   0.054340 0.419250 0.323220 -0.503355
O52   O     O_R   0.456260 0.718170 0.670000 -0.510092

loop_
_geom_bond_atom_site_label_1
_geom_bond_atom_site_label_2
_ccdc_geom_bond_type
C44   C49   S    
C43   C73   S    
C31   C66   S    
C71   C75   A    
C87   C88   S    
Cr12  O52   S    
C56   C76   A    
C60   O47   A    
C14   C18   S    
C68   O37   A    
C67   C77   A    
C24   C27   D    
C67   C89   A    
C72   C76   A    
Cr6   O11   S    
C69   O7    A    
Cr3   O3    S    
C70   O8    A    
C30   H39   S    
C55   O33   A    
Cr11  O26   S    
C85   C86   S    
Cr1   O1    S    
C6    C19   D    
C81   H12   S    
Cr4   O30   S    
C28   H37   S    
C61   O43   A    
C85   H49   S    
C90   H54   S    
C44   H45   S    
C5    C53   S    
Cr4   O4    S    
C31   C49   D    
C86   H44   S    
C10   C15   D    
C36   H5    S    
Cr9   O19   S    
C87   H58   S    
C63   O49   A    
C57   O34   A    
C16   H25   S    
C92   H63   S    
Cr7   O43   S    
C66   O5    A    
Cr3   O11   S    
C50   H2    S    
C61   O48   A    
Cr10  O47   S    
C91   H65   S    
Cr5   O41   S    
C69   O38   A    
Cr7   O13   S    
C12   O19   A    
Cr1   O9    S    
C43   O26   A    
C53   O1    A    
C31   H9    S    
C66   O36   A    
Cr7   O39   S    
C41   O28   A    
C73   C77   A    
C25   H43   S    
C87   H59   S    
C15   H24   S    
C1    O14   A    
C93   H60   S    
C94   H74   S    
C80   H1    S    
Cr8   O9    S    
C84   H50   S    
C94   H73   S    
Cr8   O22   S    
C96   H69   S    
Cr10  O50   S    
Cr6   O23   S    
C37   C46   D    
Cr5   O12   S    
C33   C69   S    
C41   C71   S    
C27   C28   S    
C2    H19   S    
C62   O45   A    
C59   O46   A    
C65   O4    A    
C53   O31   A    
C22   C28   D    
Cr11  O48   S    
C4    C56   A    
C90   H52   S    
C43   O30   A    
C17   H26   S    
C68   O6    A    
Cr4   O8    S    
C10   H32   S    
C21   H30   S    
C6    C54   S    
C1    O18   A    
C84   H51   S    
Cr8   O44   S    
C89   H18   S    
C77   C79   A    
C34   O21   A    
Cr9   O10   S    
C40   O22   A    
C93   H62   S    
C42   C74   S    
C62   O52   A    
C90   H53   S    
Cr12  O31   S    
C56   H15   S    
Cr3   O33   S    
C35   H13   S    
C54   O12   A    
C84   C85   S    
Cr4   O35   S    
C24   H40   S    
C91   C92   S    
Cr11  O13   S    
C9    C14   D    
C58   O40   A    
C3    H20   S    
C93   H61   S    
C47   C51   S    
C37   H6    S    
C57   O35   A    
C19   H28   S    
Cr10  O25   S    
Cr2   O28   S    
C23   O16   A    
C3    C45   A    
C17   C21   S    
C6    C87   S    
C91   H66   S    
C25   C64   S    
Cr8   O18   S    
C20   H29   S    
C2    C89   A    
C15   C19   S    
C75   C76   A    
Cr7   O17   S    
C64   O50   A    
C29   C30   S    
C2    C78   A    
Cr6   O16   S    
C8    C57   S    
C22   C62   S    
C49   H76   S    
C11   C16   D    
C54   O32   A    
C95   C96   S    
C40   O27   A    
C26   H42   S    
C16   C20   S    
C63   O2    A    
C7    C91   S    
C27   H36   S    
Cr1   O36   S    
C8    C94   S    
C18   H27   S    
C86   H47   S    
C37   C60   S    
C11   H33   S    
C32   C50   D    
C38   C47   D    
C4    H21   S    
C42   O25   A    
Cr2   O6    S    
C7    C55   S    
C95   H71   S    
C88   C90   S    
C33   H11   S    
C24   C63   S    
C74   C79   A    
C35   C70   S    
C9    C34   S    
C45   H14   S    
Cr12  O5    S    
C36   C44   D    
C1    C13   S    
C36   C61   S    
C29   H38   S    
Cr12  O27   S    
C58   O44   A    
Cr5   O10   S    
Cr6   O38   S    
Cr9   O24   S    
C14   H22   S    
Cr5   O37   S    
C25   C30   D    
C5    C84   S    
Cr11  O51   S    
C51   H3    S    
C96   H68   S    
C78   C79   A    
C26   C65   S    
Cr9   O49   S    
Cr1   O14   S    
C65   O51   A    
C32   H10   S    
C80   C81   A    
Cr2   O32   S    
C8    C21   D    
C48   H75   S    
C11   C12   S    
Cr5   O15   S    
Cr10  O11   S    
C5    C18   D    
C10   C23   S    
C33   C51   D    
C88   H55   S    
C70   O39   A    
C46   C50   S    
Cr1   O40   S    
C13   C17   D    
C23   O20   A    
C45   C75   A    
C96   H70   S    
Cr9   O46   S    
C41   O24   A    
C82   H23   S    
C55   O23   A    
Cr2   O2    S    
C42   O29   A    
Cr4   O13   S    
C32   C68   S    
Cr3   O7    S    
C38   H7    S    
C9    H31   S    
Cr8   O45   S    
C86   H46   S    
C88   H57   S    
C92   H64   S    
C22   H41   S    
C39   C58   S    
C92   C93   S    
C12   O15   A    
C73   C83   A    
Cr2   O10   S    
C60   O42   A    
C13   H35   S    
C83   H34   S    
C94   C95   S    
C59   O41   A    
C47   H67   S    
Cr11  O21   S    
C64   O3    A    
Cr3   O29   S    
Cr7   O34   S    
Cr10  O20   S    
C38   C59   S    
C95   H72   S    
C48   C52   S    
C40   C72   S    
C26   C29   D    
C72   C80   A    
C7    C20   D    
C35   C52   D    
C39   H8    S    
C52   H4    S    
C46   H56   S    
C34   O17   A    
C82   C83   A    
Cr12  O9    S    
C78   H17   S    
C85   H48   S    
C74   C82   A    
C3    C4    A    
C39   C48   D    
C71   C81   A    
C67   H16   S    
Cr6   O42   S    
