data_mof_unit_46741.cif
_audit_creation_date              2012-12-10T17:46:57-0500
_audit_creation_method            fapswitch 2.2
_symmetry_space_group_name_H-M    P1
_symmetry_Int_Tables_number       1
_space_group_crystal_system       triclinic
_cell_length_a                    9.917088
_cell_length_b                    10.717006
_cell_length_c                    13.6168
_cell_angle_alpha                 92.336588
_cell_angle_beta                  83.064458
_cell_angle_gamma                 91.810208
_cell_volume                      1434.91070262

loop_
_atom_site_label
_atom_site_type_symbol
_atom_type_description
_atom_site_fract_x
_atom_site_fract_y
_atom_site_fract_z
_atom_type_partial_charge
Br1   Br    Br    0.803373 0.885470 0.507800 -0.485964
Br2   Br    Br    0.088409 0.119638 0.253519 -0.513694
C1    C     C_R   0.504160 0.738916 0.489681 0.873681
C2    C     C_R   0.625659 0.942755 0.492631 0.267826
C3    C     C_R   0.613458 0.068709 0.503171 -0.190158
C4    C     C_R   0.475702 0.500379 0.685620 0.886082
C5    C     C_R   0.500940 0.126485 0.475402 -0.166459
C6    C     C_R   0.842998 0.651475 0.639710 -0.196964
C7    C     C_R   0.903577 0.723538 0.712076 0.579089
C8    C     C_R   0.043909 0.725033 0.708882 -0.245117
C9    C     C_R   0.122606 0.652609 0.638352 -0.206011
C10   C     C_R   0.063515 0.573921 0.569118 0.157496
C11   C     C_R   0.919180 0.573407 0.569549 0.022399
C12   C     C_1   0.457235 0.501955 0.789490 -0.189043
C13   C     C_R   0.937197 0.432644 0.430932 0.576925
C14   C     C_R   0.080602 0.430870 0.432755 -0.212720
C15   C     C_R   0.499280 0.259893 0.492275 0.901536
C16   C     C_R   0.524275 0.499378 0.314372 0.876461
C17   C     C_1   0.542653 0.497923 0.210528 -0.178722
C18   C     C_2   0.558208 0.495309 0.018727 -0.165359
C19   C     C_2   0.441780 0.505113 0.981327 -0.147262
C20   C     C_1   0.445381 0.503580 0.877373 0.004040
C21   C     C_1   0.554513 0.496531 0.122664 0.017347
C22   C     C_3   0.709093 0.748227 0.822972 -0.281528
C23   C     C_R   0.321623 0.854850 0.365296 -0.199520
C24   C     C_3   0.911936 0.412889 0.267362 -0.208834
C25   C     C_R   0.223881 0.912516 0.319140 -0.143832
C26   C     C_R   0.217350 0.041824 0.322738 0.338361
C27   C     C_R   0.308581 0.114076 0.372949 -0.205751
C28   C     C_R   0.404981 0.057279 0.424365 0.061005
C29   C     C_R   0.411484 0.925714 0.420498 0.074298
C30   C     C_R   0.514410 0.869598 0.466311 -0.189814
H1    H     H_    0.345288 0.514238 0.027964 0.162928
H2    H     H_    0.695198 0.121852 0.532833 0.214017
H3    H     H_    0.721447 0.648771 0.840141 0.144406
H4    H     H_    0.627453 0.756780 0.774725 0.162127
H5    H     H_    0.676152 0.798952 0.894023 0.206015
H6    H     H_    0.020720 0.398684 0.239955 0.162049
H7    H     H_    0.889163 0.514129 0.268516 0.145271
H8    H     H_    0.850563 0.364320 0.213745 0.204360
H9    H     H_    0.738624 0.666288 0.635050 0.217950
H10   H     H_    0.093039 0.784556 0.760926 0.177016
H11   H     H_    0.229523 0.662871 0.639187 0.221447
H12   H     H_    0.142109 0.373792 0.378731 0.176037
H13   H     H_    0.654689 0.485915 0.972157 0.155814
H14   H     H_    0.329883 0.755225 0.352154 0.179375
H15   H     H_    0.156198 0.856469 0.277445 0.170887
H16   H     H_    0.306278 0.213662 0.366290 0.172365
N1    N     N_R   0.857120 0.501200 0.500900 -0.146135
N2    N     N_R   0.142720 0.501280 0.500940 -0.134474
O1    O     O_R   0.385310 0.683220 0.500000 -0.643931
O2    O     O_3   0.876421 0.361211 0.360990 -0.556666
O3    O     O_R   0.614640 0.683250 0.500010 -0.595026
O4    O     O_R   0.368830 0.499960 0.640340 -0.617101
O5    O     O_R   0.598160 0.499980 0.640350 -0.637127
O6    O     O_R   0.385360 0.316750 0.499990 -0.617821
O7    O     O_R   0.614690 0.316780 0.500000 -0.576689
O8    O     O_R   0.401840 0.500020 0.359650 -0.632973
O9    O     O_R   0.631170 0.500040 0.359660 -0.579490
O10   O     O_3   0.831509 0.804616 0.779864 -0.584103
Zn1   Zn    Zn3+2 0.346870 0.499980 0.499990 0.939733
Zn2   Zn    Zn3+2 0.653130 0.500020 0.500010 0.999944

loop_
_geom_bond_atom_site_label_1
_geom_bond_atom_site_label_2
_ccdc_geom_bond_type
C23   C29   A    
C17   C21   T    
C9    C10   A    
C9    H11   S    
C6    C11   A    
O4    Zn1   S    
C24   O2    S    
C8    H10   S    
O3    Zn2   S    
C14   H12   S    
C10   N2    A    
C29   C30   A    
O1    Zn1   S    
C18   C21   S    
C4    O5    A    
C22   O10   S    
C7    O10   S    
C3    H2    S    
Br1   C2    S    
O8    Zn1   S    
C22   H5    S    
C6    C7    A    
O7    Zn2   S    
C5    C28   A    
C22   H4    S    
C13   O2    S    
C6    H9    S    
C1    O3    A    
C15   O6    A    
C24   H8    S    
C27   C28   A    
C4    O4    A    
C11   N1    A    
C26   C27   A    
C14   N2    A    
C28   C29   A    
C13   N1    A    
C1    C30   S    
C24   H7    S    
C22   H3    S    
C4    C12   S    
C8    C9    A    
C27   H16   S    
C2    C30   A    
O5    Zn2   S    
C16   O9    A    
C19   H1    S    
C10   C11   A    
C12   C20   T    
C16   C17   S    
C7    C8    A    
C18   H13   S    
C25   H15   S    
C25   C26   A    
C3    C5    A    
N2    Zn1   S    
C1    O1    A    
O6    Zn1   S    
C24   H6    S    
O9    Zn2   S    
Br2   C26   S    
N1    Zn2   S    
C18   C19   D    
C19   C20   S    
C23   H14   S    
C16   O8    A    
C13   C14   A    
C15   O7    A    
C2    C3    A    
C5    C15   S    
C23   C25   A    
