data_mof_unit_34212.cif
_audit_creation_date              2012-12-11T15:21:37-0500
_audit_creation_method            fapswitch 2.2
_symmetry_space_group_name_H-M    P1
_symmetry_Int_Tables_number       1
_space_group_crystal_system       triclinic
_cell_length_a                    19.1271
_cell_length_b                    7.149217
_cell_length_c                    17.698925
_cell_angle_alpha                 90.001834
_cell_angle_beta                  108.984568
_cell_angle_gamma                 89.997475
_cell_volume                      2288.57326856

loop_
_atom_site_label
_atom_site_type_symbol
_atom_type_description
_atom_site_fract_x
_atom_site_fract_y
_atom_site_fract_z
_atom_type_partial_charge
O1    O     O_R   0.562310 0.505770 0.439670 -0.536840
O2    O     O_R   0.437690 0.005770 0.560330 -0.536822
O3    O     O_R   0.411650 0.169150 0.405330 -0.536654
O4    O     O_R   0.588350 0.669150 0.594670 -0.536672
C1    C     C_R   0.384556 0.345876 0.382802 0.632836
C2    C     C_R   0.615469 0.845868 0.617168 0.632829
O5    O     O_R   0.560140 0.175610 0.430010 -0.539729
O6    O     O_R   0.439860 0.675610 0.569990 -0.539707
O7    O     O_R   0.587240 0.012100 0.585200 -0.539412
O8    O     O_R   0.412760 0.512100 0.414800 -0.539424
C3    C     C_R   0.580983 0.344608 0.414803 0.699889
C4    C     C_R   0.419016 0.844614 0.585194 0.699953
O9    O     O_3   0.508720 0.341420 0.550890 -0.371598
O10   O     O_3   0.491280 0.841420 0.449110 -0.371613
V1    V     V_3+5 0.498380 0.063930 0.490560 1.378271
V2    V     V_3+5 0.501620 0.563930 0.509440 1.378261
C5    C     C_R   0.176999 0.066121 0.862886 -0.222341
C6    C     C_R   0.823008 0.566150 0.137131 -0.222361
C7    C     C_R   0.129674 0.916314 0.864434 -0.080675
C8    C     C_R   0.870330 0.416334 0.135572 -0.080719
C9    C     C_R   0.130316 0.754876 0.818998 -0.220091
C10   C     C_R   0.869687 0.254889 0.180999 -0.220030
C11   C     C_R   0.177288 0.742561 0.772475 0.089576
C12   C     C_R   0.822706 0.242556 0.227510 0.089536
C13   C     C_R   0.225330 0.892216 0.772273 0.054211
C14   C     C_R   0.774669 0.392221 0.227726 0.054233
C15   C     C_R   0.225313 0.054277 0.817849 0.090624
C16   C     C_R   0.774697 0.554306 0.182171 0.090637
C17   C     C_R   0.177197 0.583016 0.726199 -0.192712
C18   C     C_R   0.822782 0.082978 0.273758 -0.192772
C19   C     C_R   0.224877 0.570719 0.680832 -0.187288
C20   C     C_R   0.775093 0.070663 0.319114 -0.187327
C21   C     C_R   0.273698 0.717475 0.681058 0.090423
C22   C     C_R   0.726282 0.217438 0.318909 0.090422
C23   C     C_R   0.273598 0.879618 0.726559 0.054443
C24   C     C_R   0.726396 0.379612 0.273435 0.054468
C25   C     C_R   0.321638 0.029278 0.726375 0.089529
C26   C     C_R   0.678369 0.529295 0.273642 0.089523
C27   C     C_R   0.321661 0.188935 0.772558 -0.194563
C28   C     C_R   0.678363 0.688986 0.227488 -0.194622
C29   C     C_R   0.274037 0.201163 0.817973 -0.188005
C30   C     C_R   0.725986 0.701219 0.182073 -0.188010
C31   C     C_R   0.322262 0.705354 0.636292 -0.224037
C32   C     C_R   0.677715 0.205309 0.363670 -0.224087
C33   C     C_R   0.369721 0.855030 0.634926 -0.081379
C34   C     C_R   0.630272 0.355013 0.365065 -0.081366
C35   C     C_R   0.368775 0.016784 0.680064 -0.222572
C36   C     C_R   0.631233 0.516795 0.319952 -0.222582
H1    H     H_    0.177356 0.190528 0.898056 0.123513
H2    H     H_    0.822654 0.690563 0.101971 0.123536
H3    H     H_    0.093741 0.639193 0.819277 0.131236
H4    H     H_    0.906266 0.139210 0.180718 0.131247
H5    H     H_    0.140499 0.467025 0.725428 0.134131
H6    H     H_    0.859470 0.966964 0.274510 0.134158
H7    H     H_    0.223806 0.445750 0.645828 0.134994
H8    H     H_    0.776150 0.945661 0.354093 0.135026
H9    H     H_    0.322048 0.580812 0.601254 0.123468
H10   H     H_    0.677915 0.080739 0.398685 0.123469
H11   H     H_    0.405320 0.132543 0.679808 0.129117
H12   H     H_    0.594701 0.632577 0.320229 0.129117
H13   H     H_    0.358337 0.304961 0.773307 0.132825
H14   H     H_    0.641706 0.805047 0.226769 0.132837
H15   H     H_    0.275122 0.326113 0.852993 0.134086
H16   H     H_    0.724916 0.826205 0.147080 0.134126
C37   C     C_3   0.752417 0.814573 0.837346 -0.372362
C38   C     C_3   0.247325 0.312304 0.162818 -0.372152
H17   H     H_    0.772142 0.675401 0.863959 0.140134
H18   H     H_    0.227224 0.172946 0.136696 0.140438
H19   H     H_    0.740823 0.899187 0.884706 0.135547
H20   H     H_    0.259071 0.395355 0.115135 0.135450
C39   C     C_3   0.679601 0.787723 0.766050 -0.338905
C40   C     C_3   0.320129 0.285407 0.234123 -0.338957
H21   H     H_    0.633422 0.860160 0.779298 0.134140
H22   H     H_    0.366468 0.356188 0.220550 0.134073
H23   H     H_    0.665449 0.636360 0.758689 0.143479
H24   H     H_    0.333863 0.133859 0.241981 0.143747
H25   H     H_    0.843062 0.644868 0.768559 0.133048
H26   H     H_    0.156377 0.146822 0.232341 0.132792
H27   H     H_    0.739170 0.611336 0.661736 0.120656
H28   H     H_    0.260269 0.113500 0.339226 0.120362
C41   C     C_3   0.826067 0.786562 0.742928 0.047381
C42   C     C_3   0.173762 0.288742 0.257477 0.047079
C43   C     C_3   0.782070 0.103924 0.774836 -0.330936
C44   C     C_3   0.218525 0.604071 0.224400 -0.330933
C45   C     C_3   0.813479 0.912048 0.810463 0.118316
C46   C     C_3   0.186573 0.412080 0.189476 0.118351
H29   H     H_    0.823443 0.183630 0.755949 0.144204
H30   H     H_    0.177425 0.685404 0.243101 0.144325
H31   H     H_    0.769501 0.189935 0.821268 0.133404
H32   H     H_    0.231230 0.688468 0.177619 0.133195
C47   C     C_3   0.687694 0.866414 0.687792 0.088836
C48   C     C_3   0.312355 0.366438 0.312151 0.088762
C49   C     C_3   0.752475 0.762864 0.671366 -0.323944
C50   C     C_3   0.247353 0.265091 0.329045 -0.323783
C51   C     C_3   0.710677 0.077505 0.703014 -0.290093
C52   C     C_3   0.289925 0.577706 0.296219 -0.289929
H33   H     H_    0.665501 0.158655 0.714559 0.145779
H34   H     H_    0.335296 0.657256 0.284325 0.145337
H35   H     H_    0.719411 0.138230 0.648845 0.137271
H36   H     H_    0.281417 0.640164 0.350201 0.137705
H37   H     H_    0.758419 0.816900 0.614770 0.137154
H38   H     H_    0.241621 0.320906 0.385468 0.137141
O11   O     O_R   0.087220 0.271820 0.085230 -0.544256
O12   O     O_R   0.912780 0.771820 0.914770 -0.544217
O13   O     O_R   0.939860 0.595540 0.069990 -0.539417
O14   O     O_R   0.060140 0.095540 0.930010 -0.539410
C53   C     C_R   0.919212 0.426555 0.085406 0.697048
C54   C     C_R   0.080789 0.926548 0.914596 0.696989
O15   O     O_R   0.088340 0.601930 0.094680 -0.538009
O16   O     O_R   0.911660 0.101930 0.905320 -0.538062
O17   O     O_R   0.062310 0.765410 0.939660 -0.536936
O18   O     O_R   0.937690 0.265410 0.060340 -0.536889
C55   C     C_R   0.115813 0.431845 0.117828 0.656804
C56   C     C_R   0.884215 0.931840 0.882137 0.656776
O19   O     O_3   0.991270 0.429630 0.949130 -0.372492
O20   O     O_3   0.008730 0.929630 0.050870 -0.372489
V3    V     V_3+5 0.001620 0.707150 0.009440 1.379133
V4    V     V_3+5 0.998380 0.207150 0.990560 1.379130
C57   C     C_3   0.888901 0.856905 0.713586 -0.820364
H39   H     H_    0.898334 0.754884 0.670552 0.212558
H40   H     H_    0.874982 0.993919 0.682926 0.217823
H41   H     H_    0.941398 0.870351 0.764046 0.199767
C58   C     C_3   0.111176 0.361501 0.286676 -0.820294
H42   H     H_    0.101579 0.260963 0.330141 0.212649
H43   H     H_    0.125452 0.499035 0.316799 0.217825
H44   H     H_    0.058664 0.374820 0.236227 0.199681

loop_
_geom_bond_atom_site_label_1
_geom_bond_atom_site_label_2
_ccdc_geom_bond_type
C43   H29   S    
C42   C50   S    
C53   O18   A    
C38   H18   S    
O1    C3    A    
C40   H24   S    
O2    C4    A    
O16   V4    S    
C2    O7    A    
O15   V3    S    
C58   H42   S    
C27   C29   A    
O5    C3    A    
C18   H6    S    
C17   H5    S    
C46   C55   S    
C11   C17   A    
C45   C56   S    
C26   C28   A    
C12   C14   A    
H27   C49   S    
C40   C48   S    
C51   H35   S    
C58   H43   S    
C2    C47   S    
C48   C52   S    
C41   C49   S    
O20   V3    S    
C6    C8    A    
C44   C52   S    
C33   C35   A    
C15   C29   A    
C5    C7    A    
C38   C40   S    
O18   V4    S    
C32   H10   S    
C37   H17   S    
C52   H34   S    
C19   C21   A    
C25   C35   A    
O16   C56   A    
C26   C36   A    
O15   C55   A    
C8    C53   S    
C7    C54   S    
C28   C30   A    
C28   H14   S    
O6    V2    S    
O14   V4    S    
O13   V3    S    
C44   H32   S    
C27   H13   S    
C32   C34   A    
C36   H12   S    
C57   H40   S    
C43   H31   S    
C34   C36   A    
C39   H23   S    
C5    C15   A    
C6    C16   A    
C40   H22   S    
C49   H37   S    
C39   H21   S    
C58   H44   S    
O5    V1    S    
C42   C46   S    
C35   H11   S    
C21   C31   A    
O4    V2    S    
C47   C49   S    
O13   C53   A    
H26   C42   S    
H25   C41   S    
O6    C4    A    
O19   V4    S    
C43   C51   S    
C48   C50   S    
C22   C32   A    
O1    V2    S    
O2    V1    S    
C31   C33   A    
C13   C23   A    
O12   C56   A    
O4    C2    A    
C43   C45   S    
C8    C10   A    
C9    C11   A    
C10   C12   A    
O11   V4    S    
C29   H15   S    
C5    H1    S    
C30   H16   S    
C42   C58   S    
C9    H3    S    
O3    V1    S    
C6    H2    S    
C10   H4    S    
O12   V3    S    
C57   H41   S    
C14   C24   A    
O11   C55   A    
C44   H30   S    
C44   C46   S    
C4    C33   S    
O3    C1    A    
C38   C46   S    
C57   H39   S    
C51   H33   S    
C37   C45   S    
C13   C15   A    
C41   C57   S    
C14   C16   A    
C54   O17   A    
O17   V3    S    
C24   C26   A    
O7    V1    S    
C23   C25   A    
C17   C19   A    
C37   C39   S    
C18   C20   A    
C38   H20   S    
O14   C54   A    
C37   H19   S    
C52   H36   S    
C16   C30   A    
C21   C23   A    
C22   C24   A    
C11   C13   A    
C12   C18   A    
C1    C48   S    
C31   H9    S    
C47   C51   S    
C1    O8    A    
C39   C47   S    
C50   H38   S    
C25   C27   A    
O9    V2    S    
O10   V1    S    
C3    C34   S    
O8    V2    S    
C19   H7    S    
H28   C50   S    
C20   H8    S    
C41   C45   S    
C20   C22   A    
C7    C9    A    
