data_mof_unit_10521.cif
_audit_creation_date              2012-12-10T17:10:18-0500
_audit_creation_method            fapswitch 2.2
_symmetry_space_group_name_H-M    P1
_symmetry_Int_Tables_number       1
_space_group_crystal_system       triclinic
_cell_length_a                    15.732156
_cell_length_b                    10.673377
_cell_length_c                    10.100132
_cell_angle_alpha                 88.521896
_cell_angle_beta                  89.546236
_cell_angle_gamma                 90.203982
_cell_volume                      1695.33649533

loop_
_atom_site_label
_atom_site_type_symbol
_atom_type_description
_atom_site_fract_x
_atom_site_fract_y
_atom_site_fract_z
_atom_type_partial_charge
C1    C     C_R   0.510132 0.263834 0.501576 0.906786
C2    C     C_3   0.083195 0.497574 0.501609 -0.032580
C3    C     C_3   0.972035 0.606997 0.538444 0.438071
C4    C     C_3   0.916416 0.496046 0.500865 0.071937
C5    C     C_3   0.029087 0.588571 0.415635 -0.371572
C6    C     C_3   0.973332 0.475258 0.380288 0.435178
C7    C     C_1   0.174075 0.498437 0.501795 -0.031671
C8    C     C_1   0.825723 0.497403 0.499269 0.070433
C9    C     C_2   0.541165 0.935051 0.401614 0.396619
C10   C     C_2   0.492217 0.871542 0.490533 0.213579
C11   C     C_2   0.534752 0.070271 0.395848 -0.266815
C12   C     C_R   0.338178 0.499805 0.500439 0.894645
C13   C     C_2   0.542569 0.137360 0.505533 0.050199
C14   C     C_2   0.566590 0.489141 0.927390 0.666779
C15   C     C_2   0.563849 0.532075 0.069099 0.251888
C16   C     C_R   0.498353 0.737578 0.498030 0.850359
C17   C     C_R   0.661783 0.500107 0.499571 0.884785
C18   C     C_3   0.970728 0.405327 0.586591 -0.308326
C19   C     C_3   0.028125 0.384881 0.463406 0.126342
C20   C     C_1   0.249314 0.499148 0.501443 -0.166350
C21   C     C_1   0.750543 0.498746 0.498827 -0.143576
C22   C     C_3   0.026787 0.518747 0.624099 0.125195
H1    H     H_    0.945418 0.331324 0.655549 0.169476
H2    H     H_    0.053587 0.662886 0.346356 0.173981
H3    H     H_    0.511515 0.111263 0.303474 0.164482
N1    N     N_2   0.500900 0.501330 0.852150 0.055669
N2    N     N_2   0.500930 0.501360 0.147810 0.049927
O1    O     O_R   0.499990 0.319060 0.613040 -0.599131
O2    O     O_R   0.500010 0.319100 0.386900 -0.643303
O3    O     O_R   0.376760 0.499970 0.613050 -0.631491
O4    O     O_R   0.376790 0.500010 0.386910 -0.617738
O5    O     O_R   0.499990 0.680900 0.613100 -0.639052
O6    O     O_R   0.500010 0.680940 0.386960 -0.584828
O7    O     O_R   0.623210 0.499990 0.613090 -0.568726
O8    O     O_R   0.623240 0.500030 0.386950 -0.646175
Zn1   Zn    Zn3+2 0.499980 0.499970 0.650990 1.016503
Zn2   Zn    Zn3+2 0.500020 0.500030 0.349010 0.986093
C23   C     C_3   0.063226 0.259197 0.419429 -0.396828
C24   C     C_3   0.992050 0.165307 0.395268 -0.810298
H4    H     H_    0.954413 0.147788 0.487429 0.256354
H5    H     H_    0.949325 0.200931 0.315966 0.283871
H6    H     H_    0.019846 0.075219 0.363893 0.248715
H7    H     H_    0.101045 0.274110 0.326999 0.208585
H8    H     H_    0.105784 0.220773 0.497619 0.215503
C25   C     C_3   0.587727 0.089228 0.630430 -0.336693
C26   C     C_3   0.669967 0.161813 0.653363 -0.868288
H9    H     H_    0.712115 0.157693 0.564800 0.253829
H10   H     H_    0.656481 0.261044 0.674865 0.300638
H11   H     H_    0.703844 0.119727 0.739594 0.259226
H12   H     H_    0.544839 0.098082 0.717608 0.242498
H13   H     H_    0.605780 0.989184 0.625404 0.218632
O9    O     O_3   0.640320 0.441683 0.874022 -0.802604
H14   H     H_    0.682248 0.431161 0.946032 0.306625
O10   O     O_3   0.438232 0.572229 0.901431 -0.678775
H15   H     H_    0.401273 0.593186 0.825579 0.372161
C27   C     C_3   0.633686 0.617382 0.115950 -0.471934
C28   C     C_3   0.647253 0.729998 0.021534 -0.826398
H16   H     H_    0.670690 0.699462 0.923556 0.266254
H17   H     H_    0.586874 0.782407 0.008399 0.276811
H18   H     H_    0.695445 0.793854 0.063260 0.266103
H19   H     H_    0.616990 0.655004 0.213490 0.306985
H20   H     H_    0.693979 0.564353 0.126071 0.210540
O11   O     O_3   0.448177 0.413734 0.101269 -0.668303
H21   H     H_    0.412220 0.387184 0.177674 0.378995
O12   O     O_3   0.942245 0.452071 0.253920 -0.765178
H22   H     H_    0.993321 0.443708 0.196801 0.329570
O13   O     O_3   0.939573 0.722040 0.577987 -0.755710
H23   H     H_    0.990033 0.775389 0.593497 0.330623
C29   C     C_3   0.060393 0.544924 0.762235 -0.403747
C30   C     C_3   0.988250 0.554947 0.863178 -0.791384
H24   H     H_    0.944711 0.632508 0.834623 0.286709
H25   H     H_    0.951731 0.465756 0.870360 0.258198
H26   H     H_    0.015010 0.574303 0.961996 0.246132
H27   H     H_    0.103477 0.467650 0.793579 0.218076
H28   H     H_    0.097358 0.633816 0.758392 0.207999
O14   O     O_3   0.596222 0.874101 0.317683 -0.792728
H29   H     H_    0.626063 0.938147 0.261400 0.340352
O15   O     O_3   0.434907 0.933374 0.570651 -0.806834
H30   H     H_    0.402693 0.870407 0.624980 0.338130

loop_
_geom_bond_atom_site_label_1
_geom_bond_atom_site_label_2
_ccdc_geom_bond_type
C2    C7    S    
C4    C8    S    
C10   O15   S    
C24   H5    S    
C25   C26   S    
C6    C19   S    
C26   H11   S    
O5    Zn1   S    
O8    Zn2   S    
C5    C6    S    
C28   H17   S    
C25   H13   S    
C27   C28   S    
C18   C19   S    
C26   H9    S    
C6    O12   S    
C14   O9    S    
C2    C22   S    
C1    O1    A    
C30   H24   S    
C9    O14   S    
C9    C10   D    
C22   C29   S    
C4    C18   S    
C18   C22   S    
N1    O10   S    
C24   H6    S    
C26   H10   S    
O13   H23   S    
O14   H29   S    
C4    C6    S    
C24   H4    S    
O15   H30   S    
C28   H18   S    
O6    Zn2   S    
C18   H1    S    
C23   H8    S    
C19   C23   S    
C16   O6    A    
C15   N2    D    
C12   C20   S    
C30   H26   S    
C1    O2    A    
C8    C21   T    
C29   H27   S    
C14   N1    D    
C9    C11   S    
N2    O11   S    
N1    Zn1   S    
O12   H22   S    
C12   O4    A    
C27   H20   S    
C2    C5    S    
C1    C13   S    
C17   O7    A    
C3    C4    S    
O9    H14   S    
O10   H15   S    
C12   O3    A    
C2    C19   S    
C14   C15   S    
C3    O13   S    
C3    C5    S    
C16   O5    A    
O3    Zn1   S    
C15   C27   S    
C23   H7    S    
C10   C16   S    
C13   C25   S    
C11   C13   D    
C28   H16   S    
C23   C24   S    
C5    H2    S    
C25   H12   S    
N2    Zn2   S    
C29   H28   S    
O7    Zn1   S    
C29   C30   S    
C17   C21   S    
O11   H21   S    
O4    Zn2   S    
O1    Zn1   S    
C7    C20   T    
O2    Zn2   S    
C11   H3    S    
C27   H19   S    
C3    C22   S    
C30   H25   S    
C17   O8    A    
