data_mof_unit_27862.cif
_audit_creation_date              2012-12-11T16:13:11-0500
_audit_creation_method            fapswitch 2.2
_symmetry_space_group_name_H-M    P1
_symmetry_Int_Tables_number       1
_space_group_crystal_system       triclinic
_cell_length_a                    23.496152
_cell_length_b                    13.636098
_cell_length_c                    28.381371
_cell_angle_alpha                 89.999486
_cell_angle_beta                  90.269662
_cell_angle_gamma                 90.001598
_cell_volume                      9093.17223837

loop_
_atom_site_label
_atom_site_type_symbol
_atom_type_description
_atom_site_fract_x
_atom_site_fract_y
_atom_site_fract_z
_atom_type_partial_charge
C1    C     C_R   0.284497 0.005386 0.816037 0.539501
C2    C     C_3   0.503084 0.723777 0.971973 0.212591
C3    C     C_R   0.204711 0.040421 0.525038 0.295703
C4    C     C_R   0.296399 0.546880 0.524468 -0.142142
C5    C     C_R   0.703594 0.546894 0.475535 -0.142135
C6    C     C_R   0.796400 0.046881 0.524467 -0.142141
C7    C     C_R   0.203596 0.046888 0.475535 -0.142137
C8    C     C_R   0.250466 0.587152 0.549001 0.011495
C9    C     C_R   0.749530 0.587161 0.451001 0.011493
C10   C     C_R   0.750467 0.087154 0.549000 0.011495
C11   C     C_R   0.249531 0.087156 0.451000 0.011494
C12   C     C_R   0.248302 0.579225 0.450739 0.049563
C13   C     C_3   0.996586 0.223819 0.028075 0.212609
C14   C     C_R   0.751695 0.579237 0.549263 0.049562
C15   C     C_R   0.748303 0.079227 0.450738 0.049563
C16   C     C_R   0.251697 0.079232 0.549262 0.049562
C17   C     C_1   0.242061 0.563879 0.401159 0.004323
C18   C     C_1   0.757937 0.563888 0.598843 0.004314
C19   C     C_1   0.742062 0.063880 0.401159 0.004323
C20   C     C_1   0.257938 0.063884 0.598842 0.004317
C21   C     C_1   0.257716 0.605165 0.598306 0.010005
C22   C     C_1   0.742280 0.605170 0.401695 0.010009
C23   C     C_1   0.757717 0.105167 0.598306 0.010004
C24   C     C_3   0.003048 0.223771 0.971981 0.212596
C25   C     C_1   0.242281 0.105167 0.401694 0.010008
C26   C     C_1   0.232435 0.543021 0.360903 0.004651
C27   C     C_1   0.767564 0.543027 0.639098 0.004639
C28   C     C_1   0.732435 0.043022 0.360903 0.004650
C29   C     C_1   0.267565 0.043025 0.639098 0.004642
C30   C     C_R   0.284423 0.007361 0.684092 0.541663
C31   C     C_R   0.715577 0.007359 0.315908 0.541651
C32   C     C_R   0.784423 0.507361 0.684092 0.541663
C33   C     C_R   0.215577 0.507359 0.315908 0.541651
C34   C     C_R   0.446114 0.825172 0.684652 0.536905
C35   C     C_1   0.515976 0.834803 0.097317 0.049853
C36   C     C_R   0.553886 0.825170 0.315348 0.536912
C37   C     C_R   0.946114 0.325172 0.684652 0.536905
C38   C     C_R   0.053886 0.325170 0.315348 0.536911
C39   C     C_R   0.274209 0.673999 0.683087 0.545765
C40   C     C_R   0.725790 0.673998 0.316913 0.545775
C41   C     C_R   0.774209 0.173999 0.683087 0.545764
C42   C     C_R   0.225790 0.173998 0.316913 0.545777
C43   C     C_3   0.438095 0.883990 0.978600 0.512773
C44   C     C_3   0.561913 0.883673 0.021409 0.512750
C45   C     C_3   0.938090 0.384022 0.978603 0.512776
C46   C     C_1   0.483956 0.834811 0.902702 0.049828
C47   C     C_3   0.061906 0.383636 0.021413 0.512754
C48   C     C_3   0.548433 0.898485 0.966161 0.539679
C49   C     C_3   0.451603 0.898772 0.033847 0.539699
C50   C     C_3   0.048431 0.398452 0.966165 0.539686
C51   C     C_3   0.951600 0.398804 0.033850 0.539705
C52   C     C_1   0.528829 0.831724 0.138247 -0.003484
C53   C     C_1   0.471131 0.831728 0.861767 -0.003506
C54   C     C_1   0.028820 0.331725 0.138251 -0.003478
C55   C     C_1   0.971124 0.331727 0.861770 -0.003508
C56   C     C_3   0.461243 0.031765 0.090165 -0.086341
C57   C     C_1   0.015962 0.334805 0.097322 0.049839
C58   C     C_3   0.539040 0.031484 0.909818 -0.086383
C59   C     C_3   0.961266 0.531798 0.090163 -0.086332
C60   C     C_3   0.039065 0.531453 0.909820 -0.086385
C61   C     C_3   0.439157 0.625680 0.549178 -0.090169
C62   C     C_3   0.560831 0.625668 0.450829 -0.090161
C63   C     C_3   0.939160 0.125677 0.549178 -0.090168
C64   C     C_3   0.060836 0.125673 0.450829 -0.090161
C65   C     C_3   0.559609 0.047496 0.448153 -0.091247
C66   C     C_3   0.440396 0.047501 0.551840 -0.091248
C67   C     C_3   0.059604 0.547500 0.448153 -0.091244
C68   C     C_1   0.983944 0.334809 0.902706 0.049824
C69   C     C_3   0.940390 0.547494 0.551841 -0.091248
C70   C     C_2   0.151121 0.663604 0.547926 0.229593
C71   C     C_2   0.848880 0.663606 0.452074 0.229596
C72   C     C_2   0.651122 0.163607 0.547925 0.229589
C73   C     C_2   0.348880 0.163605 0.452073 0.229597
C74   C     C_3   0.361464 0.415462 0.468176 -0.102431
C75   C     C_3   0.638539 0.415464 0.531837 -0.102434
C76   C     C_3   0.861464 0.915462 0.468175 -0.102430
C77   C     C_3   0.138536 0.915462 0.531833 -0.102433
C78   C     C_3   0.380581 0.030958 0.967271 -0.074624
C79   C     C_1   0.266908 0.634637 0.861560 -0.015720
C80   C     C_3   0.619688 0.030356 0.032706 -0.074566
C81   C     C_3   0.880601 0.531020 0.967268 -0.074632
C82   C     C_3   0.119713 0.530283 0.032709 -0.074571
C83   C     C_3   0.645776 0.912592 0.937925 -0.057599
C84   C     C_3   0.354290 0.913423 0.062087 -0.057833
C85   C     C_3   0.145777 0.412502 0.937929 -0.057596
C86   C     C_3   0.854290 0.413517 0.062089 -0.057859
C87   C     C_3   0.640654 0.823204 0.069205 -0.084934
C88   C     C_3   0.359251 0.823905 0.930810 -0.085024
C89   C     C_3   0.140631 0.323116 0.069212 -0.084960
C90   C     C_1   0.733112 0.634581 0.138458 -0.015929
C91   C     C_3   0.859236 0.323973 0.930813 -0.085033
C92   C     C_2   0.461042 0.646468 0.951818 0.278882
C93   C     C_2   0.538521 0.646294 0.048235 0.278837
C94   C     C_2   0.960992 0.146485 0.951825 0.278883
C95   C     C_2   0.038465 0.146274 0.048248 0.278760
C96   C     C_3   0.570674 0.650338 0.917621 -0.056777
C97   C     C_3   0.428900 0.650775 0.082430 -0.056630
C98   C     C_3   0.070627 0.150291 0.917633 -0.056792
C99   C     C_3   0.928840 0.150843 0.082440 -0.056580
C100  C     C_3   0.354509 0.437586 0.931584 -0.104733
C101  C     C_1   0.766909 0.134638 0.861560 -0.015703
C102  C     C_3   0.645271 0.437974 0.068419 -0.104233
C103  C     C_3   0.854500 0.937560 0.931586 -0.104756
C104  C     C_3   0.145283 0.937939 0.068403 -0.104365
C105  C     C_3   0.351388 0.420407 0.065969 -0.126301
C106  C     C_3   0.648487 0.420627 0.934022 -0.126166
C107  C     C_3   0.851389 0.920407 0.065965 -0.126317
C108  C     C_3   0.148485 0.920640 0.934029 -0.126216
C109  C     C_R   0.715506 0.005394 0.183966 0.539545
C110  C     C_1   0.233115 0.134582 0.138458 -0.015905
C111  C     C_R   0.284341 0.511071 0.973695 0.301785
C112  C     C_R   0.715588 0.511071 0.026320 0.301922
C113  C     C_R   0.784337 0.011067 0.973694 0.301769
C114  C     C_R   0.215604 0.011070 0.026322 0.301903
C115  C     C_R   0.284027 0.501759 0.023195 0.304102
C116  C     C_R   0.715922 0.501759 0.976820 0.304200
C117  C     C_R   0.784024 0.001754 0.023193 0.304091
C118  C     C_R   0.215931 0.001758 0.976823 0.304202
C119  C     C_R   0.244591 0.666072 0.030042 -0.166674
C120  C     C_R   0.784498 0.505386 0.816037 0.539500
C121  C     C_R   0.755626 0.665893 0.969998 -0.167020
C122  C     C_R   0.744598 0.166073 0.030042 -0.166650
C123  C     C_R   0.255636 0.165890 0.969998 -0.167047
C124  C     C_R   0.245605 0.675420 0.981238 -0.170890
C125  C     C_R   0.754626 0.675217 0.018801 -0.171431
C126  C     C_R   0.745614 0.175425 0.981239 -0.170858
C127  C     C_R   0.254641 0.175215 0.018801 -0.171476
C128  C     C_R   0.264049 0.598091 0.952858 -0.019661
C129  C     C_R   0.736020 0.597985 0.047168 -0.019819
C130  C     C_R   0.764051 0.098092 0.952858 -0.019667
C131  C     C_R   0.215506 0.505395 0.183966 0.539548
C132  C     C_R   0.236036 0.097984 0.047170 -0.019830
C133  C     C_R   0.262248 0.578768 0.051173 -0.024031
C134  C     C_R   0.737825 0.578687 0.948854 -0.023734
C135  C     C_R   0.762249 0.078764 0.051172 -0.024050
C136  C     C_R   0.237830 0.078685 0.948855 -0.023714
C137  C     C_R   0.446468 0.824220 0.816184 0.533208
C138  C     C_R   0.553525 0.824219 0.183820 0.533172
C139  C     C_R   0.946466 0.324220 0.816185 0.533211
C140  C     C_R   0.053524 0.324219 0.183821 0.533166
C141  C     C_1   0.248783 0.562148 0.099933 -0.058209
C142  C     C_3   0.492810 0.834824 0.954105 0.031311
C143  C     C_1   0.751266 0.562062 0.900091 -0.058173
C144  C     C_1   0.748783 0.062144 0.099932 -0.058230
C145  C     C_1   0.251266 0.062060 0.900092 -0.058162
C146  C     C_1   0.264187 0.612630 0.902594 -0.045337
C147  C     C_1   0.735855 0.612539 0.097430 -0.045732
C148  C     C_1   0.764189 0.112631 0.902594 -0.045319
C149  C     C_1   0.235864 0.112542 0.097431 -0.045693
C150  C     C_1   0.234673 0.541228 0.139390 -0.019395
C151  C     C_1   0.765352 0.541172 0.860626 -0.019530
C152  C     C_1   0.734673 0.041225 0.139389 -0.019408
C153  C     C_3   0.507109 0.834820 0.045915 0.031302
C154  C     C_1   0.265352 0.041171 0.860626 -0.019527
C155  C     C_1   0.471746 0.833081 0.639455 0.016417
C156  C     C_1   0.528253 0.833075 0.360545 0.016420
C157  C     C_1   0.971746 0.333081 0.639455 0.016414
C158  C     C_1   0.028253 0.333075 0.360545 0.016420
C159  C     C_R   0.497238 0.747878 0.524651 0.235234
C160  C     C_R   0.502757 0.747877 0.475350 0.235235
C161  C     C_R   0.997239 0.247879 0.524651 0.235234
C162  C     C_R   0.002759 0.247877 0.475351 0.235235
C163  C     C_R   0.502412 0.926689 0.475297 0.236071
C164  C     C_3   0.992796 0.334822 0.954110 0.031306
C165  C     C_R   0.497589 0.926691 0.524700 0.236073
C166  C     C_R   0.002410 0.426689 0.475297 0.236072
C167  C     C_R   0.997586 0.426691 0.524700 0.236073
C168  C     C_R   0.496483 0.837254 0.549240 -0.033703
C169  C     C_R   0.503515 0.837251 0.450760 -0.033702
C170  C     C_R   0.996483 0.337255 0.549240 -0.033706
C171  C     C_R   0.003515 0.337251 0.450759 -0.033704
C172  C     C_1   0.513639 0.836526 0.400954 0.041848
C173  C     C_1   0.486360 0.836532 0.599046 0.041845
C174  C     C_1   0.013639 0.336526 0.400953 0.041846
C175  C     C_3   0.007092 0.334819 0.045920 0.031289
C176  C     C_1   0.986359 0.336533 0.599046 0.041841
C177  C     C_1   0.264714 0.630407 0.638322 0.029771
C178  C     C_1   0.735283 0.630408 0.361679 0.029779
C179  C     C_1   0.764715 0.130408 0.638321 0.029771
C180  C     C_1   0.235283 0.130406 0.361679 0.029778
C181  C     C_R   0.202322 0.622791 0.524361 0.013647
C182  C     C_R   0.797676 0.622797 0.475639 0.013642
C183  C     C_R   0.702324 0.122794 0.524361 0.013645
C184  C     C_R   0.297677 0.122794 0.475639 0.013645
C185  C     C_R   0.274552 0.674100 0.815247 0.538237
C186  C     C_3   0.496625 0.723816 0.028067 0.212595
C187  C     C_R   0.725451 0.674088 0.184759 0.538249
C188  C     C_R   0.774552 0.174100 0.815246 0.538239
C189  C     C_R   0.225451 0.174089 0.184759 0.538245
C190  C     C_R   0.202503 0.619788 0.475141 -0.207164
C191  C     C_R   0.797496 0.619796 0.524860 -0.207167
C192  C     C_R   0.702505 0.119792 0.475140 -0.207165
C193  C     C_R   0.297497 0.119792 0.524859 -0.207165
C194  C     C_R   0.295285 0.540411 0.474965 0.295707
C195  C     C_R   0.704709 0.540428 0.525038 0.295703
C196  C     C_R   0.795286 0.040413 0.474964 0.295708
Cr1   Cr    Cr6+3 0.250680 0.837130 0.748990 1.050863
Cr2   Cr    Cr6+3 0.623910 0.707720 0.250330 1.043679
Cr3   Cr    Cr6+3 0.876090 0.207720 0.749670 1.043696
Cr4   Cr    Cr6+3 0.123910 0.207720 0.250330 1.043693
Cr5   Cr    Cr6+3 0.749320 0.837130 0.251010 1.050873
Cr6   Cr    Cr6+3 0.750680 0.337130 0.748990 1.050862
Cr7   Cr    Cr6+3 0.249320 0.337130 0.251010 1.050870
Cr8   Cr    Cr6+3 0.378160 0.960100 0.750430 1.028047
Cr9   Cr    Cr6+3 0.621840 0.960100 0.249570 1.028065
Cr10  Cr    Cr6+3 0.878160 0.460100 0.750430 1.028047
Cr11  Cr    Cr6+3 0.121840 0.460100 0.249570 1.028063
Cr12  Cr    Cr6+3 0.376090 0.707720 0.749670 1.043693
H1    H     H_    0.230302 0.742150 0.965309 0.197613
H2    H     H_    0.666574 0.522702 0.455958 0.081874
H3    H     H_    0.185919 0.338647 0.061455 0.142631
H4    H     H_    0.139431 0.250540 0.086516 0.179212
H5    H     H_    0.873761 0.379604 0.905132 0.137038
H6    H     H_    0.813990 0.339883 0.938559 0.142527
H7    H     H_    0.860237 0.251354 0.913543 0.179253
H8    H     H_    0.448223 0.584678 0.973408 0.108468
H9    H     H_    0.551210 0.584409 0.026656 0.108371
H10   H     H_    0.948159 0.084705 0.973417 0.108475
H11   H     H_    0.051159 0.084391 0.026669 0.108417
H12   H     H_    0.617326 0.645957 0.912260 0.145934
H13   H     H_    0.833418 0.022687 0.544047 0.081867
H14   H     H_    0.553130 0.693098 0.887843 0.166688
H15   H     H_    0.554164 0.574087 0.917106 0.095205
H16   H     H_    0.382241 0.646614 0.087788 0.146097
H17   H     H_    0.446514 0.693475 0.112202 0.166633
H18   H     H_    0.445282 0.574445 0.082959 0.095214
H19   H     H_    0.117279 0.145884 0.912273 0.145917
H20   H     H_    0.053093 0.193059 0.887853 0.166698
H21   H     H_    0.054103 0.074049 0.917118 0.095213
H22   H     H_    0.882179 0.146697 0.087791 0.146104
H23   H     H_    0.946449 0.193558 0.112209 0.166638
H24   H     H_    0.166576 0.022695 0.455957 0.081872
H25   H     H_    0.945214 0.074510 0.082984 0.095265
H26   H     H_    0.384192 0.435650 0.962097 0.112893
H27   H     H_    0.362052 0.504428 0.910093 0.163926
H28   H     H_    0.364350 0.373274 0.909125 0.135390
H29   H     H_    0.615590 0.436363 0.037901 0.112914
H30   H     H_    0.637878 0.504784 0.089969 0.163895
H31   H     H_    0.635275 0.373646 0.090821 0.135502
H32   H     H_    0.884180 0.935615 0.962102 0.112893
H33   H     H_    0.862052 0.004399 0.910095 0.163940
H34   H     H_    0.864337 0.873245 0.909128 0.135382
H35   H     H_    0.227307 0.725132 0.051125 0.176890
H36   H     H_    0.115619 0.936018 0.037878 0.113037
H37   H     H_    0.137818 0.004887 0.089837 0.163848
H38   H     H_    0.135337 0.873747 0.090910 0.135564
H39   H     H_    0.347875 0.462887 0.099195 0.121988
H40   H     H_    0.384350 0.453481 0.042906 0.099903
H41   H     H_    0.366102 0.345633 0.075434 0.135925
H42   H     H_    0.633701 0.345902 0.924542 0.136096
H43   H     H_    0.652062 0.463111 0.900802 0.121847
H44   H     H_    0.615549 0.453779 0.957079 0.100105
H45   H     H_    0.847867 0.962837 0.099206 0.122026
H46   H     H_    0.773019 0.724875 0.948924 0.176653
H47   H     H_    0.884343 0.953537 0.042913 0.099876
H48   H     H_    0.866121 0.845630 0.075406 0.135918
H49   H     H_    0.133680 0.845915 0.924571 0.136090
H50   H     H_    0.152069 0.963083 0.900796 0.121885
H51   H     H_    0.115557 0.953848 0.957078 0.100081
H52   H     H_    0.727318 0.225136 0.051126 0.176894
H53   H     H_    0.273027 0.224871 0.948923 0.176645
H54   H     H_    0.442940 0.978634 0.115480 0.126796
H55   H     H_    0.435596 0.099873 0.092522 0.105031
H56   H     H_    0.504868 0.050497 0.102111 0.170923
H57   H     H_    0.770059 0.741848 0.034741 0.197550
H58   H     H_    0.557256 0.978242 0.884515 0.126780
H59   H     H_    0.564805 0.099461 0.907452 0.105130
H60   H     H_    0.495450 0.050427 0.897864 0.170875
H61   H     H_    0.942954 0.478680 0.115480 0.126798
H62   H     H_    0.935632 0.599920 0.092518 0.105024
H63   H     H_    0.004895 0.550509 0.102108 0.170927
H64   H     H_    0.057272 0.478200 0.884518 0.126777
H65   H     H_    0.064841 0.599417 0.907453 0.105138
H66   H     H_    0.995477 0.550416 0.897865 0.170872
H67   H     H_    0.423587 0.610652 0.512814 0.179600
H68   H     H_    0.730317 0.242159 0.965310 0.197617
H69   H     H_    0.410173 0.678149 0.567173 0.102175
H70   H     H_    0.437817 0.555634 0.569008 0.135954
H71   H     H_    0.576395 0.610633 0.487195 0.179619
H72   H     H_    0.589821 0.678134 0.432837 0.102170
H73   H     H_    0.562166 0.555623 0.430999 0.135957
H74   H     H_    0.923591 0.110648 0.512814 0.179599
H75   H     H_    0.910176 0.178145 0.567173 0.102174
H76   H     H_    0.937822 0.055631 0.569008 0.135954
H77   H     H_    0.076402 0.110644 0.487195 0.179612
H78   H     H_    0.089823 0.178140 0.432835 0.102170
H79   H     H_    0.270077 0.241845 0.034739 0.197551
H80   H     H_    0.062173 0.055626 0.431000 0.135956
H81   H     H_    0.586034 0.997081 0.426533 0.108483
H82   H     H_    0.578863 0.056318 0.483742 0.144759
H83   H     H_    0.559883 0.120358 0.430784 0.139973
H84   H     H_    0.413969 0.997089 0.573462 0.108482
H85   H     H_    0.421143 0.056319 0.516251 0.144761
H86   H     H_    0.440124 0.120365 0.569207 0.139968
H87   H     H_    0.086030 0.497087 0.426533 0.108481
H88   H     H_    0.078857 0.556324 0.483741 0.144757
H89   H     H_    0.059876 0.620361 0.430783 0.139975
H90   H     H_    0.166231 0.647499 0.455521 0.078714
H91   H     H_    0.913970 0.497091 0.573472 0.108492
H92   H     H_    0.921129 0.556289 0.516254 0.144747
H93   H     H_    0.940117 0.620368 0.569199 0.139966
H94   H     H_    0.117911 0.697702 0.526863 0.080972
H95   H     H_    0.882093 0.697697 0.473136 0.080978
H96   H     H_    0.617912 0.197705 0.526862 0.080974
H97   H     H_    0.382092 0.197701 0.473135 0.080968
H98   H     H_    0.326536 0.366050 0.479973 0.107391
H99   H     H_    0.391757 0.430160 0.497469 0.102212
H100  H     H_    0.385413 0.376296 0.440346 0.177250
H101  H     H_    0.833770 0.647504 0.544479 0.078712
H102  H     H_    0.673474 0.366057 0.520050 0.107403
H103  H     H_    0.608251 0.430135 0.502537 0.102198
H104  H     H_    0.614588 0.376305 0.559668 0.177255
H105  H     H_    0.826535 0.866050 0.479973 0.107393
H106  H     H_    0.891757 0.930159 0.497469 0.102210
H107  H     H_    0.885413 0.876295 0.440346 0.177252
H108  H     H_    0.173468 0.866053 0.520043 0.107399
H109  H     H_    0.108246 0.930144 0.502536 0.102204
H110  H     H_    0.114586 0.876300 0.559665 0.177253
H111  H     H_    0.390206 0.084748 0.995429 0.165916
H112  H     H_    0.666233 0.147503 0.455521 0.078714
H113  H     H_    0.343266 0.985947 0.976184 0.114594
H114  H     H_    0.368253 0.074854 0.935981 0.124624
H115  H     H_    0.610164 0.084136 0.004521 0.165997
H116  H     H_    0.656936 0.985149 0.023830 0.114693
H117  H     H_    0.632065 0.074267 0.063976 0.124823
H118  H     H_    0.890235 0.584810 0.995424 0.165905
H119  H     H_    0.843279 0.486028 0.976183 0.114588
H120  H     H_    0.868280 0.574914 0.935976 0.124611
H121  H     H_    0.110203 0.584066 0.004522 0.165989
H122  H     H_    0.156952 0.485050 0.023837 0.114725
H123  H     H_    0.333771 0.147500 0.544478 0.078712
H124  H     H_    0.132095 0.574188 0.063980 0.124833
H125  H     H_    0.666781 0.901466 0.903429 0.133864
H126  H     H_    0.674930 0.880589 0.964574 0.191366
H127  H     H_    0.641548 0.992756 0.942184 0.103475
H128  H     H_    0.325072 0.881538 0.035453 0.191129
H129  H     H_    0.358665 0.993558 0.057801 0.103435
H130  H     H_    0.333275 0.902457 0.096591 0.133799
H131  H     H_    0.166779 0.401365 0.903433 0.133850
H132  H     H_    0.174926 0.380484 0.964578 0.191353
H133  H     H_    0.141565 0.492669 0.942189 0.103492
H134  H     H_    0.333417 0.522685 0.544047 0.081867
H135  H     H_    0.825065 0.381644 0.035456 0.191125
H136  H     H_    0.858680 0.493649 0.057800 0.103425
H137  H     H_    0.833273 0.402570 0.096593 0.133789
H138  H     H_    0.626266 0.878978 0.094865 0.136988
H139  H     H_    0.685935 0.838793 0.061446 0.142653
H140  H     H_    0.639486 0.750621 0.086503 0.179230
H141  H     H_    0.373764 0.879548 0.905131 0.137037
H142  H     H_    0.314002 0.839791 0.938559 0.142500
H143  H     H_    0.360264 0.751290 0.913537 0.179252
H144  H     H_    0.126265 0.378919 0.094867 0.136986
O1    O     O_R   0.237900 0.735050 0.799950 -0.509647
O2    O     O_R   0.566580 0.739640 0.301090 -0.503082
O3    O     O_3   0.201644 0.912518 0.956975 -0.584059
O4    O     O_R   0.933420 0.239640 0.698910 -0.503099
O5    O     O_R   0.066580 0.239640 0.301090 -0.503080
O6    O     O_R   0.323550 0.666510 0.701520 -0.508819
O7    O     O_R   0.676450 0.666510 0.298480 -0.508809
O8    O     O_R   0.823550 0.166510 0.701520 -0.508821
O9    O     O_R   0.176450 0.166510 0.298480 -0.508807
O10   O     O_3   0.334980 0.834990 0.749700 -0.260080
O11   O     O_3   0.665020 0.834990 0.250300 -0.260079
O12   O     O_3   0.834980 0.334990 0.749700 -0.260081
O13   O     O_R   0.762100 0.735050 0.200050 -0.509613
O14   O     O_3   0.165020 0.334990 0.250300 -0.260082
O15   O     O_R   0.256160 0.936210 0.796950 -0.496072
O16   O     O_R   0.743840 0.936210 0.203050 -0.496083
O17   O     O_R   0.756160 0.436210 0.796950 -0.496071
O18   O     O_R   0.243840 0.436210 0.203050 -0.496082
O19   O     O_R   0.333710 0.029860 0.801630 -0.508833
O20   O     O_R   0.666290 0.029860 0.198370 -0.508791
O21   O     O_R   0.833710 0.529860 0.801630 -0.508836
O22   O     O_R   0.166290 0.529860 0.198370 -0.508792
O23   O     O_R   0.425340 0.901920 0.798280 -0.507841
O24   O     O_R   0.737900 0.235050 0.799950 -0.509655
O25   O     O_R   0.574660 0.901920 0.201720 -0.507827
O26   O     O_R   0.925340 0.401920 0.798280 -0.507839
O27   O     O_R   0.074660 0.401920 0.201720 -0.507829
O28   O     O_R   0.433530 0.738890 0.801610 -0.478500
O29   O     O_R   0.566470 0.738890 0.198390 -0.478504
O30   O     O_R   0.933530 0.238890 0.801610 -0.478500
O31   O     O_R   0.066470 0.238890 0.198390 -0.478489
O32   O     O_R   0.323650 0.665810 0.796720 -0.487880
O33   O     O_R   0.676350 0.665810 0.203280 -0.487989
O34   O     O_R   0.823650 0.165810 0.796720 -0.487868
O35   O     O_R   0.262100 0.235050 0.200050 -0.509617
O36   O     O_R   0.176350 0.165810 0.203280 -0.487991
O37   O     O_R   0.237790 0.735800 0.697250 -0.478107
O38   O     O_R   0.762210 0.735800 0.302750 -0.478104
O39   O     O_R   0.737790 0.235800 0.697250 -0.478107
O40   O     O_R   0.262210 0.235800 0.302750 -0.478105
O41   O     O_R   0.256050 0.936910 0.701750 -0.483263
O42   O     O_R   0.743950 0.936910 0.298250 -0.483267
O43   O     O_R   0.756050 0.436910 0.701750 -0.483263
O44   O     O_R   0.243950 0.436910 0.298250 -0.483268
O45   O     O_R   0.333600 0.030610 0.698930 -0.512383
O46   O     O_R   0.425240 0.902610 0.703070 -0.493647
O47   O     O_R   0.666400 0.030610 0.301070 -0.512384
O48   O     O_R   0.833600 0.530610 0.698930 -0.512383
O49   O     O_R   0.166400 0.530610 0.301070 -0.512384
O50   O     O_3   0.462140 0.001055 0.042281 -0.525398
O51   O     O_3   0.538083 0.000816 0.957708 -0.525414
O52   O     O_3   0.962157 0.501082 0.042280 -0.525391
O53   O     O_3   0.038100 0.500789 0.957710 -0.525411
O54   O     O_3   0.495691 0.660146 0.549075 -0.535186
O55   O     O_3   0.504299 0.660143 0.450928 -0.535182
O56   O     O_3   0.995694 0.160147 0.549075 -0.535184
O57   O     O_R   0.574760 0.902610 0.296930 -0.493647
O58   O     O_3   0.004303 0.160143 0.450929 -0.535181
O59   O     O_3   0.502931 0.014441 0.450893 -0.531964
O60   O     O_3   0.497072 0.014444 0.549103 -0.531962
O61   O     O_3   0.002927 0.514441 0.450892 -0.531958
O62   O     O_3   0.997068 0.514445 0.549101 -0.531961
O63   O     O_2   0.144452 0.658278 0.590468 -0.474282
O64   O     O_2   0.855546 0.658282 0.409531 -0.474276
O65   O     O_2   0.644453 0.158281 0.590467 -0.474284
O66   O     O_2   0.355547 0.158279 0.409530 -0.474275
O67   O     O_3   0.340714 0.504062 0.449010 -0.547366
O68   O     O_R   0.925240 0.402610 0.703070 -0.493647
O69   O     O_3   0.659279 0.504081 0.550993 -0.547377
O70   O     O_3   0.840714 0.004063 0.449010 -0.547367
O71   O     O_3   0.159281 0.004074 0.550993 -0.547375
O72   O     O_3   0.429597 0.976615 0.955330 -0.557522
O73   O     O_3   0.570580 0.976270 0.044662 -0.557579
O74   O     O_3   0.929609 0.476650 0.955330 -0.557519
O75   O     O_3   0.070592 0.476231 0.044664 -0.557580
O76   O     O_3   0.593552 0.861148 0.937010 -0.544463
O77   O     O_3   0.406419 0.861699 0.063006 -0.544387
O78   O     O_3   0.093543 0.361087 0.937016 -0.544466
O79   O     O_R   0.074760 0.402610 0.296930 -0.493648
O80   O     O_3   0.906408 0.361762 0.063010 -0.544397
O81   O     O_3   0.609942 0.819095 0.026000 -0.542149
O82   O     O_3   0.389948 0.819667 0.974020 -0.542121
O83   O     O_3   0.109923 0.319031 0.026005 -0.542162
O84   O     O_3   0.889930 0.319726 0.974024 -0.542116
O85   O     O_2   0.446015 0.645912 0.910622 -0.570790
O86   O     O_2   0.553552 0.645689 0.089429 -0.570842
O87   O     O_2   0.945969 0.145932 0.910629 -0.570795
O88   O     O_2   0.053477 0.145651 0.089447 -0.570855
O89   O     O_3   0.560803 0.695130 0.961854 -0.559736
O90   O     O_R   0.433420 0.739640 0.698910 -0.503097
O91   O     O_3   0.438853 0.695490 0.038192 -0.559696
O92   O     O_3   0.060762 0.195090 0.961865 -0.559752
O93   O     O_3   0.938807 0.195529 0.038197 -0.559694
O94   O     O_3   0.297405 0.430552 0.946144 -0.579843
O95   O     O_3   0.702363 0.430615 0.053862 -0.579721
O96   O     O_3   0.797394 0.930545 0.946142 -0.579843
O97   O     O_3   0.202385 0.930618 0.053869 -0.579726
O98   O     O_3   0.298207 0.412469 0.043039 -0.584026
O99   O     O_3   0.701645 0.412517 0.956970 -0.584052
O100  O     O_3   0.798208 0.912464 0.043037 -0.584035

loop_
_geom_bond_atom_site_label_1
_geom_bond_atom_site_label_2
_ccdc_geom_bond_type
C101  C148  T    
C61   H70   S    
C100  H26   S    
C193  H123  S    
Cr1   O10   S    
Cr8   O45   S    
C6    C196  A    
C108  H49   S    
C170  C176  S    
C34   C155  S    
C4    C194  A    
C5    H2    S    
C37   O68   A    
C53   C137  S    
C80   H117  S    
C49   C153  S    
C163  C165  A    
C115  O98   S    
C162  O58   S    
C99   H25   S    
C124  H1    S    
C184  C193  A    
Cr11  O79   S    
C41   O39   A    
C55   C139  S    
C59   H61   S    
C39   O6    A    
C93   O86   D    
C106  H44   S    
C113  O96   S    
C34   O46   A    
C91   H7    S    
C9    C182  A    
C134  C143  S    
C75   H102  S    
C158  C174  T    
C76   H105  S    
C42   C180  S    
C86   H137  S    
C63   H76   S    
C95   H11   S    
C88   O82   S    
C85   H133  S    
C112  C129  A    
C79   C146  T    
C101  C188  S    
C23   C179  T    
C41   O8    A    
C24   O92   S    
C44   O81   S    
C64   H80   S    
C81   H120  S    
C21   C177  T    
C97   H18   S    
C65   O59   S    
C91   O84   S    
C40   O7    A    
C66   O60   S    
Cr6   O17   S    
C24   C164  S    
C161  C162  A    
C89   H4    S    
C7    H24   S    
C68   C164  S    
C167  O62   S    
C190  H90   S    
C42   O9    A    
C84   H130  S    
C46   C142  S    
C32   O48   A    
C120  O21   A    
C50   C164  S    
Cr11  O22   S    
C127  H79   S    
C111  O94   S    
C89   H3    S    
Cr4   O5    S    
C96   H12   S    
C37   O4    A    
C82   H121  S    
Cr3   O30   S    
C108  O3    S    
C181  C190  A    
C70   C181  S    
C16   C20   S    
C71   O64   D    
C15   C196  A    
C38   O5    A    
C92   O85   D    
C95   O88   D    
C100  H28   S    
Cr4   O31   S    
C117  C135  A    
C48   O51   S    
C118  C136  A    
Cr5   O38   S    
C50   O53   S    
C13   C175  S    
C126  H68   S    
C98   O92   S    
Cr12  O32   S    
C125  H57   S    
Cr12  O6    S    
C99   H23   S    
Cr10  O68   S    
C61   O54   S    
C185  O1    A    
C59   O52   S    
C106  H42   S    
C91   H5    S    
C30   O41   A    
C87   H140  S    
C76   H107  S    
C80   O73   S    
C77   H110  S    
C46   C53   T    
C1    C154  S    
C129  C147  S    
C139  O26   A    
C62   O55   S    
C125  C129  A    
C153  C186  S    
C109  O16   A    
C43   C142  S    
C44   C48   S    
C131  O18   A    
C8    C181  A    
C73   O66   D    
C191  H101  S    
C118  O3    S    
Cr6   O24   S    
C62   H73   S    
C73   H97   S    
C83   O76   S    
C69   O62   S    
C25   C180  T    
C81   O74   S    
C31   O42   A    
C5    C9    A    
C102  H31   S    
C90   C147  T    
C140  O27   A    
C60   H66   S    
C187  O13   A    
Cr7   O35   S    
Cr4   O36   S    
Cr1   O41   S    
Cr9   O25   S    
C11   C25   S    
C138  O29   A    
C93   H9    S    
C39   O37   A    
C188  O34   A    
C57   C175  S    
C103  H32   S    
C69   H92   S    
Cr1   O1    S    
C58   H59   S    
C106  O99   S    
C16   C193  A    
C50   O78   S    
C75   H103  S    
C93   C186  S    
C117  O100  S    
C38   O79   A    
C141  C150  T    
C47   C50   S    
C86   O80   S    
C60   O53   S    
C56   O50   S    
C113  C130  A    
C162  C171  A    
C59   H63   S    
C56   H55   S    
C87   H138  S    
Cr1   O37   S    
C103  O96   S    
C156  C172  T    
C78   H111  S    
C166  O61   S    
C161  O56   S    
C121  C125  A    
C29   C30   S    
C114  O97   S    
C26   C33   S    
C123  C127  A    
C1    O15   A    
C96   H15   S    
C45   O74   S    
C107  H47   S    
C43   O72   S    
Cr3   O34   S    
C82   H124  S    
C19   C28   T    
C113  C117  A    
C145  C154  T    
C104  H38   S    
C120  O17   A    
C69   H91   S    
C74   O67   S    
C2    C142  S    
C86   H136  S    
C62   H71   S    
C161  C170  A    
C67   H87   S    
C64   O58   S    
C112  C116  A    
C13   O93   S    
C42   O40   A    
C70   O63   D    
C34   O90   A    
Cr12  O90   S    
C102  H29   S    
C47   O83   S    
C48   O76   S    
C61   H69   S    
C41   C179  S    
C11   C184  A    
C35   C153  S    
C131  C150  S    
Cr8   O46   S    
C76   O70   S    
C144  C152  T    
C128  C146  S    
C185  O32   A    
Cr2   O29   S    
C143  C151  T    
C36   O57   A    
C83   H126  S    
Cr7   O44   S    
Cr5   O42   S    
C157  C176  T    
C67   H88   S    
C76   H106  S    
Cr5   O16   S    
Cr12  O28   S    
C111  C128  A    
C99   O93   S    
C80   H115  S    
C108  H51   S    
Cr8   O10   S    
C189  O36   A    
C47   C175  S    
C3    C16   A    
C63   H74   S    
C54   C57   T    
C64   H77   S    
C81   H119  S    
C97   H17   S    
C14   C195  A    
C10   C183  A    
Cr3   O4    S    
C183  C192  A    
C99   H22   S    
C55   C68   T    
C74   H100  S    
C75   O69   S    
C15   C19   S    
C165  O60   S    
C85   H131  S    
C71   H95   S    
C188  O24   A    
C3    C7    A    
C72   H96   S    
C116  C134  A    
C90   C187  S    
C126  C130  A    
C84   O77   S    
C103  H34   S    
Cr4   O9    S    
C107  H45   S    
C82   H122  S    
Cr7   O40   S    
C105  H39   S    
C44   O73   S    
Cr2   O33   S    
C100  O94   S    
C120  C151  S    
C12   C17   S    
C52   C138  S    
C160  C169  A    
C121  C134  A    
C74   H98   S    
C65   H82   S    
C4    C8    A    
C124  C128  A    
C138  O25   A    
C140  O31   A    
C67   H89   S    
C132  C149  S    
C70   H94   S    
C114  C132  A    
C39   C177  S    
C89   O83   S    
C51   O80   S    
C171  C174  S    
Cr5   O11   S    
Cr8   O19   S    
C38   C158  S    
C67   O61   S    
C187  O33   A    
C115  C133  A    
C59   H62   S    
C106  H43   S    
C56   H54   S    
C85   H132  S    
C43   O82   S    
Cr12  O10   S    
Cr9   O20   S    
Cr6   O43   S    
C33   O49   A    
C159  C160  A    
C77   H109  S    
C109  C152  S    
C49   O77   S    
C3    O71   S    
C51   C175  S    
C160  O55   S    
C69   H93   S    
C122  H52   S    
C194  O67   S    
C96   H14   S    
Cr4   O14   S    
C182  C191  A    
C17   C26   T    
Cr9   O11   S    
Cr10  O21   S    
C36   C156  S    
C65   H81   S    
C77   H108  S    
C84   H129  S    
C27   C32   S    
C116  O99   S    
Cr11  O27   S    
C28   C31   S    
C72   C183  S    
C196  O70   S    
C6    C10   A    
C104  O97   S    
C1    O19   A    
C110  C189  S    
C133  C141  S    
C102  O95   S    
C97   H16   S    
C88   H143  S    
C105  H41   S    
C163  O59   S    
C92   H8    S    
C163  C169  A    
C122  C135  A    
C32   O43   A    
C78   H114  S    
C58   H60   S    
C35   C52   T    
C66   H86   S    
C58   O51   S    
C14   C191  A    
C100  H27   S    
C83   H127  S    
Cr9   O57   S    
Cr6   O12   S    
C15   C192  A    
Cr5   O13   S    
C87   O81   S    
C14   C18   S    
C108  H50   S    
C22   C178  T    
C110  C149  T    
C195  O69   S    
C85   O78   S    
C63   H75   S    
C121  H46   S    
C105  H40   S    
C119  C124  A    
C7    C11   A    
Cr1   O15   S    
C119  C133  A    
C20   C29   T    
C13   C95   S    
C44   C153  S    
C56   H56   S    
C45   C164  S    
C91   H6    S    
C87   H139  S    
Cr10  O26   S    
C9    C22   S    
C45   C51   S    
C37   C157  S    
C94   H10   S    
C159  C168  A    
C97   O91   S    
C159  O54   S    
C127  C132  A    
C103  H33   S    
C82   O75   S    
C96   O89   S    
C54   C140  S    
Cr2   O2    S    
C47   O75   S    
Cr3   O8    S    
Cr9   O47   S    
Cr10  O48   S    
C77   O71   S    
C78   O72   S    
C136  C145  S    
C5    C195  A    
C6    H13   S    
C65   H83   S    
C89   H144  S    
C2    O89   S    
C66   H84   S    
C166  C171  A    
C72   O65   D    
C71   C182  S    
C62   H72   S    
C51   O52   S    
C49   O50   S    
C167  C170  A    
C98   H20   S    
Cr2   O11   S    
C31   O47   A    
C168  C173  S    
C63   O56   S    
C102  H30   S    
C60   H65   S    
C130  C148  S    
C137  O28   A    
Cr10  O12   S    
C98   H19   S    
C73   C184  S    
C43   C49   S    
C36   O2    A    
C66   H85   S    
C186  O91   S    
C104  H36   S    
C78   H113  S    
C13   C24   S    
C122  C126  A    
C2    C186  S    
C94   O87   D    
C24   C94   S    
C98   H21   S    
C58   H58   S    
C8    C21   S    
C61   H67   S    
C48   C142  S    
C83   H125  S    
Cr3   O12   S    
C60   H64   S    
C2    C92   S    
C114  C118  A    
C30   O45   A    
C40   C178  S    
C75   H104  S    
C135  C144  S    
C165  C168  A    
C166  C167  A    
C80   H116  S    
C169  C172  S    
Cr8   O23   S    
C4    H134  S    
C189  O35   A    
C88   H141  S    
C139  O30   A    
C64   H78   S    
C81   H118  S    
Cr2   O7    S    
C79   C185  S    
C45   O84   S    
C12   C194  A    
C18   C27   T    
Cr7   O14   S    
C131  O22   A    
C10   C23   S    
C12   C190  A    
C84   H128  S    
Cr11  O14   S    
C123  C136  A    
Cr11  O49   S    
Cr7   O18   S    
Cr6   O39   S    
C155  C173  T    
C119  H35   S    
C123  H53   S    
C107  O100  S    
C192  H112  S    
C107  H48   S    
C105  O98   S    
C137  O23   A    
C88   H142  S    
C104  H37   S    
C109  O20   A    
C86   H135  S    
C111  C115  A    
C33   O44   A    
C40   O38   A    
C74   H99   S    
C112  O95   S    
