data_mof_unit_58634.cif
_audit_creation_date              2013-03-05T17:03:53-0500
_audit_creation_method            fapswitch 2.2
_symmetry_space_group_name_H-M    P1
_symmetry_Int_Tables_number       1
_space_group_crystal_system       triclinic
_cell_length_a                    10.796469
_cell_length_b                    16.175818
_cell_length_c                    16.579276
_cell_angle_alpha                 89.119279
_cell_angle_beta                  93.447171
_cell_angle_gamma                 94.746975
_cell_volume                      2880.12343

loop_
_atom_site_label
_atom_site_type_symbol
_atom_site_description
_atom_site_fract_x
_atom_site_fract_y
_atom_site_fract_z
_atom_type_partial_charge
O1    O     O_R   0.494530 0.422540 0.612660 -0.596282
O2    O     O_R   0.505470 0.577460 0.387340 -0.617527
O3    O     O_R   0.504350 0.561840 0.618900 -0.617754
O4    O     O_R   0.495650 0.438160 0.381100 -0.604285
C1    C     C_R   0.494241 0.490297 0.653694 0.906340
C2    C     C_R   0.511544 0.510118 0.346417 0.911127
O5    O     O_R   0.678330 0.430350 0.496870 -0.611484
O6    O     O_R   0.321670 0.569650 0.503130 -0.618267
O7    O     O_R   0.688150 0.569660 0.503110 -0.619615
O8    O     O_R   0.311850 0.430340 0.496890 -0.616687
C3    C     C_R   0.740627 0.501688 0.499906 0.914447
C4    C     C_R   0.260108 0.498059 0.501453 0.907462
Zn1   Zn    Zn3+2 0.493440 0.406980 0.495830 0.940767
Zn2   Zn    Zn3+2 0.506560 0.593020 0.504170 0.923396
H1    H     H_    0.894717 0.859251 0.667970 0.165943
H2    H     H_    0.133218 0.155836 0.314101 0.164278
C5    C     C_R   0.879462 0.786474 0.560104 0.133783
C6    C     C_R   0.125823 0.213673 0.428840 0.152482
C7    C     C_R   0.884461 0.706651 0.527727 0.225972
C8    C     C_R   0.111472 0.288078 0.468659 0.227287
C9    C     C_R   0.907441 0.638684 0.580141 0.048496
C10   C     C_R   0.100198 0.362302 0.422999 0.026332
C11   C     C_R   0.919569 0.650318 0.665308 0.194362
C12   C     C_R   0.119154 0.363664 0.339110 0.174831
C13   C     C_R   0.914747 0.730829 0.696509 0.189831
C14   C     C_R   0.132797 0.288219 0.299911 0.202345
C15   C     C_R   0.895435 0.797511 0.643686 -0.231572
C16   C     C_R   0.130331 0.213982 0.344741 -0.246199
C17   C     C_R   0.079405 0.555438 0.550865 0.152466
C18   C     C_R   0.923354 0.441276 0.455356 0.164463
C19   C     C_R   0.128146 0.493836 0.506618 -0.244661
C20   C     C_R   0.873916 0.504175 0.498382 -0.185109
C21   C     C_R   0.051133 0.434218 0.461942 -0.043705
C22   C     C_R   0.951736 0.563285 0.544164 -0.015675
C23   C     C_R   0.466991 0.491051 0.739709 -0.198252
C24   C     C_R   0.529652 0.516170 0.258113 -0.260200
C25   C     C_R   0.518054 0.560087 0.785275 0.130572
C26   C     C_R   0.521165 0.444938 0.208088 0.144221
C27   C     C_R   0.457522 0.584529 0.851937 0.186366
C28   C     C_R   0.494116 0.454212 0.124340 0.161248
C29   C     C_R   0.374661 0.526242 0.889337 0.143205
C30   C     C_R   0.482797 0.534397 0.091705 0.150801
C31   C     C_R   0.322194 0.456864 0.845504 0.118216
C32   C     C_R   0.513342 0.604927 0.139657 0.155813
C33   C     C_R   0.365506 0.440702 0.768973 0.094723
C34   C     C_R   0.550935 0.595603 0.221909 0.129211
N1    N     N_2   0.368878 0.525306 0.974721 -0.173669
N2    N     N_2   0.473949 0.545227 0.007508 -0.164160
N3    N     N_R   0.515300 0.716920 0.509720 -0.132694
N4    N     N_R   0.484700 0.283080 0.490280 -0.111505
C35   C     C_R   0.467869 0.761451 0.444722 0.291194
C36   C     C_R   0.523818 0.235989 0.555553 0.293573
C37   C     C_R   0.494026 0.848729 0.439158 0.068981
C38   C     C_R   0.505057 0.148079 0.553998 0.043205
C39   C     C_R   0.539324 0.893035 0.509157 0.176515
C40   C     C_R   0.480809 0.108213 0.478573 0.230384
C41   C     C_R   0.575988 0.846851 0.578234 0.119363
C42   C     C_R   0.459481 0.158751 0.409587 0.098291
C43   C     C_R   0.569479 0.758757 0.575094 -0.142200
C44   C     C_R   0.451759 0.244911 0.418675 -0.167532
N5    N     N_2   0.550704 0.982521 0.513350 -0.159840
N6    N     N_2   0.471973 0.019260 0.470624 -0.137066
H3    H     H_    0.606944 0.723494 0.624955 0.174016
H4    H     H_    0.426494 0.282136 0.366953 0.175117
N7    N     N_2   0.303428 0.377035 0.719797 -0.280664
H5    H     H_    0.211462 0.386520 0.705796 0.220872
C45   C     C_3   0.320145 0.292865 0.746589 -0.728853
H6    H     H_    0.313966 0.251830 0.693198 0.241757
H7    H     H_    0.245783 0.270471 0.786965 0.244020
H8    H     H_    0.412208 0.288479 0.779466 0.227927
N8    N     N_2   0.617377 0.661799 0.268211 -0.281258
H9    H     H_    0.671761 0.640787 0.316217 0.248232
C46   C     C_3   0.683533 0.731064 0.228383 -0.776730
H10   H     H_    0.749859 0.764910 0.272587 0.219093
H11   H     H_    0.617910 0.776453 0.205676 0.270118
H12   H     H_    0.737513 0.709035 0.179098 0.241268
C47   C     C_3   0.604243 0.275083 0.624462 -0.838849
H13   H     H_    0.659249 0.331405 0.604797 0.263352
H14   H     H_    0.547265 0.288773 0.674968 0.249169
H15   H     H_    0.674849 0.232894 0.647313 0.208798
C48   C     C_3   0.377858 0.721237 0.380794 -0.814805
H16   H     H_    0.335553 0.660569 0.398485 0.276921
H17   H     H_    0.297962 0.759750 0.369290 0.199212
H18   H     H_    0.423375 0.715377 0.323453 0.252414
C49   C     C_3   0.510706 0.098589 0.632183 -0.869860
H19   H     H_    0.437037 0.046385 0.630414 0.260417
H20   H     H_    0.603698 0.074519 0.642532 0.249388
H21   H     H_    0.493218 0.136880 0.684658 0.233814
C50   C     C_3   0.476570 0.892175 0.358317 -0.872987
H22   H     H_    0.544020 0.947342 0.353271 0.269410
H23   H     H_    0.495622 0.851648 0.307958 0.236759
H24   H     H_    0.379544 0.909802 0.349837 0.248003
N9    N     N_2   0.621561 0.890768 0.649357 -0.288328
H25   H     H_    0.695805 0.934307 0.643356 0.226449
C51   C     C_3   0.610126 0.851665 0.727769 -0.824056
H26   H     H_    0.616217 0.900191 0.774768 0.246139
H27   H     H_    0.686986 0.811283 0.740736 0.246526
H28   H     H_    0.518556 0.815340 0.730440 0.246699
N10   N     N_2   0.465984 0.126257 0.330757 -0.293380
H29   H     H_    0.506882 0.167170 0.289942 0.222991
C52   C     C_3   0.356685 0.079021 0.296402 -0.791933
H30   H     H_    0.386180 0.028895 0.258810 0.243838
H31   H     H_    0.302216 0.119487 0.255895 0.226100
H32   H     H_    0.297908 0.050684 0.343798 0.247209
C53   C     C_3   0.864664 0.861368 0.506058 -0.905056
H33   H     H_    0.861806 0.918861 0.541417 0.233295
H34   H     H_    0.944349 0.870786 0.466842 0.244352
H35   H     H_    0.777060 0.853226 0.467650 0.238125
C54   C     C_3   0.136390 0.133794 0.475767 -0.846799
H36   H     H_    0.150432 0.081365 0.435880 0.220351
H37   H     H_    0.216667 0.140870 0.520923 0.252281
H38   H     H_    0.050025 0.117247 0.507373 0.239566
N11   N     N_2   0.863398 0.693715 0.442764 -0.283218
H39   H     H_    0.792424 0.725501 0.416448 0.237056
C55   C     C_3   0.972659 0.699284 0.395813 -0.837325
H40   H     H_    0.943695 0.691155 0.330834 0.241566
H41   H     H_    0.033607 0.649428 0.413277 0.254974
H42   H     H_    0.025871 0.760599 0.403547 0.236472
N12   N     N_2   0.115415 0.288527 0.554760 -0.287185
H43   H     H_    0.167142 0.338769 0.579931 0.248614
C56   C     C_3   0.998009 0.271308 0.591778 -0.835682
H44   H     H_    0.016288 0.252789 0.655914 0.247805
H45   H     H_    0.940393 0.219792 0.560887 0.249055
H46   H     H_    0.946243 0.327906 0.590651 0.238601
C57   C     C_3   0.950232 0.579425 0.722247 -0.925315
H47   H     H_    0.935636 0.518110 0.692596 0.229130
H48   H     H_    0.048564 0.588990 0.746054 0.257250
H49   H     H_    0.891320 0.576194 0.774580 0.244237
C58   C     C_3   0.123468 0.444159 0.291018 -0.912988
H50   H     H_    0.115576 0.499292 0.328658 0.232274
H51   H     H_    0.213696 0.453953 0.262061 0.248938
H52   H     H_    0.046230 0.441730 0.243607 0.238663
C59   C     C_3   0.937886 0.747930 0.785596 -0.924835
H53   H     H_    0.935831 0.814851 0.799017 0.233924
H54   H     H_    0.865427 0.713465 0.820301 0.242731
H55   H     H_    0.030875 0.728881 0.806855 0.253881
C60   C     C_3   0.147725 0.285614 0.210161 -0.918142
H56   H     H_    0.233037 0.324170 0.194696 0.248491
H57   H     H_    0.156270 0.221552 0.189261 0.227536
H58   H     H_    0.065487 0.309443 0.176919 0.247672
N13   N     N_2   0.157626 0.604934 0.607789 -0.293627
H59   H     H_    0.224411 0.574752 0.641084 0.219572
C61   C     C_3   0.194792 0.690306 0.586247 -0.680219
H60   H     H_    0.297792 0.700736 0.589473 0.245105
H61   H     H_    0.159423 0.732451 0.629999 0.229740
H62   H     H_    0.159357 0.706501 0.524409 0.236290
N14   N     N_2   0.845270 0.392528 0.397853 -0.294372
H63   H     H_    0.870324 0.399429 0.338989 0.226893
C62   C     C_3   0.808193 0.307327 0.419920 -0.710540
H64   H     H_    0.719678 0.286628 0.386328 0.225991
H65   H     H_    0.792483 0.301049 0.485186 0.253514
H66   H     H_    0.878342 0.265483 0.403291 0.222479
C63   C     C_3   0.553467 0.360697 0.240000 -0.878391
H67   H     H_    0.604064 0.363379 0.299614 0.262477
H68   H     H_    0.468108 0.317699 0.240195 0.232137
H69   H     H_    0.620575 0.334359 0.201560 0.229546
C64   C     C_3   0.639823 0.606391 0.766274 -0.872114
H70   H     H_    0.625198 0.671183 0.749455 0.243738
H71   H     H_    0.703673 0.606082 0.821180 0.229280
H72   H     H_    0.685940 0.577353 0.717357 0.243198
C65   C     C_3   0.482446 0.378529 0.070138 -0.877714
H73   H     H_    0.456692 0.391804 0.006099 0.247603
H74   H     H_    0.572833 0.350589 0.070221 0.234129
H75   H     H_    0.410230 0.332006 0.091860 0.235375
C66   C     C_3   0.483832 0.671202 0.884809 -0.892837
H76   H     H_    0.417257 0.684120 0.930533 0.250303
H77   H     H_    0.580649 0.680293 0.911533 0.241022
H78   H     H_    0.470825 0.717028 0.835286 0.233358
N15   N     N_2   0.227581 0.402312 0.878575 -0.292029
H79   H     H_    0.246391 0.386218 0.938189 0.240282
C67   C     C_3   0.103451 0.429026 0.864776 -0.803394
H80   H     H_    0.034915 0.381412 0.888911 0.240166
H81   H     H_    0.080238 0.436861 0.799139 0.242677
H82   H     H_    0.095875 0.488648 0.895860 0.245205
N16   N     N_2   0.504448 0.685297 0.105160 -0.294562
H83   H     H_    0.543048 0.694262 0.050193 0.236063
C68   C     C_3   0.383039 0.716258 0.108216 -0.798348
H84   H     H_    0.386333 0.780856 0.084355 0.234054
H85   H     H_    0.355033 0.716526 0.171613 0.249904
H86   H     H_    0.312761 0.677143 0.070889 0.247073

loop_
_geom_bond_atom_site_label_1
_geom_bond_atom_site_label_2
_geom_bond_distance
_ccdc_geom_bond_type
H2    C16   1.079421 S    
C61   H62   1.107807 S    
C18   C20   1.409588 A    
C67   H80   1.110246 S    
C66   H76   1.109147 S    
C29   C31   1.406683 A    
N15   H79   1.030811 S    
C53   H33   1.110504 S    
C51   H26   1.109841 S    
C32   N16   1.420444 S    
C67   H82   1.111671 S    
C14   C60   1.507902 S    
C48   H18   1.104966 S    
C48   H16   1.091240 S    
C31   N15   1.423380 S    
C51   H28   1.110376 S    
C18   N14   1.434509 S    
N16   C68   1.445335 S    
C47   H13   1.101647 S    
O5    C3    1.286768 A    
C60   H57   1.110468 S    
N9    H25   1.030742 S    
O1    C1    1.299171 A    
C23   C25   1.412674 A    
C12   C14   1.413869 A    
N11   H39   1.029552 S    
C62   H65   1.107155 S    
C47   H15   1.110752 S    
Zn2   N3    2.001859 S    
C7    N11   1.429132 S    
C42   C44   1.413957 A    
C55   H40   1.110272 S    
C1    C23   1.473759 S    
C46   H10   1.110830 S    
C25   C64   1.506053 S    
O4    Zn1   1.961394 S    
N9    C51   1.444451 S    
C56   H46   1.110763 S    
C50   H24   1.108552 S    
C48   H17   1.110871 S    
N13   H59   1.032035 S    
C12   C58   1.515196 S    
C64   H70   1.101918 S    
N14   H63   1.030256 S    
C2    C24   1.489289 S    
N7    C45   1.447769 S    
C59   H55   1.110133 S    
N4    C36   1.379363 A    
C6    C54   1.506889 S    
C24   C34   1.417058 A    
C40   C42   1.414277 A    
C50   H23   1.108587 S    
C13   C59   1.509030 S    
C35   C48   1.511146 S    
C6    C8    1.405693 A    
C11   C57   1.519136 S    
C58   H52   1.109729 S    
C55   H42   1.109471 S    
C37   C39   1.413849 A    
C66   H77   1.109691 S    
C41   N9    1.426645 S    
C17   C19   1.401303 A    
C46   H11   1.108288 S    
O7    C3    1.281105 A    
O2    C2    1.300435 A    
C30   C32   1.405874 A    
C65   H74   1.108782 S    
C32   C34   1.408673 A    
C65   H73   1.103656 S    
N12   C56   1.445968 S    
C9    C11   1.424137 A    
C37   C50   1.512724 S    
C60   H58   1.109910 S    
C38   C40   1.416184 A    
C34   N8    1.443034 S    
C49   H20   1.109491 S    
C45   H6    1.110059 S    
C5    C15   1.398433 A    
C52   H30   1.108793 S    
C6    C16   1.397980 A    
C27   C29   1.408146 A    
C62   H66   1.106094 S    
N8    C46   1.450183 S    
C9    C22   1.491713 S    
N3    C35   1.383192 A    
C49   H19   1.110563 S    
C17   C22   1.392292 A    
N15   C67   1.446045 S    
N11   C55   1.447846 S    
C35   C37   1.419350 A    
N13   C61   1.451197 S    
C20   C22   1.417364 A    
C27   C66   1.510727 S    
O7    Zn2   2.028235 S    
C7    C9    1.419602 A    
C5    C53   1.509146 S    
C57   H49   1.104339 S    
C53   H34   1.108425 S    
H1    C15   1.083318 S    
N16   H83   1.028016 S    
O6    C4    1.286456 A    
C68   H86   1.111369 S    
C17   N13   1.435401 S    
C19   C21   1.408959 A    
C29   N1    1.420522 S    
C47   H14   1.104004 S    
C36   C38   1.420104 A    
C30   N2    1.402733 S    
C53   H35   1.107667 S    
C63   H69   1.107957 S    
C31   C33   1.413774 A    
C56   H44   1.110906 S    
O3    Zn2   1.961391 S    
O8    C4    1.275398 A    
O4    C2    1.293504 A    
N10   C52   1.443631 S    
C8    C10   1.419359 A    
C3    C20   1.438018 S    
C68   H84   1.110167 S    
C66   H78   1.108156 S    
C39   C41   1.412270 A    
C4    C19   1.428364 S    
C33   N7    1.421402 S    
C57   H47   1.109061 S    
C46   H12   1.111248 S    
C40   N6    1.441696 S    
C54   H38   1.108508 S    
C63   H68   1.107820 S    
C36   C47   1.507015 S    
C23   C33   1.415379 A    
O3    C1    1.284562 A    
C65   H75   1.110069 S    
C57   H48   1.109557 S    
C58   H50   1.108209 S    
C52   H31   1.108170 S    
C49   H21   1.109885 S    
C61   H61   1.108312 S    
C10   C21   1.488946 S    
C55   H41   1.106777 S    
O6    Zn2   1.999755 S    
C18   C21   1.391302 A    
N14   C62   1.450626 S    
C14   C16   1.401705 A    
C42   N10   1.423918 S    
C28   C30   1.409521 A    
N1    N2    1.247748 D    
O8    Zn1   2.028234 S    
C38   C49   1.513774 S    
N12   H43   1.026556 S    
C51   H27   1.106998 S    
C64   H72   1.106904 S    
C52   H32   1.109512 S    
C60   H56   1.109728 S    
C43   H3    1.075081 S    
N3    C43   1.362237 A    
N10   H29   1.031817 S    
C44   H4    1.074944 S    
C45   H8    1.111495 S    
N4    C44   1.361041 A    
N8    H9    1.030651 S    
C54   H37   1.110395 S    
C50   H22   1.109555 S    
C28   C65   1.522116 S    
C25   C27   1.395695 A    
C62   H64   1.106491 S    
C26   C28   1.409872 A    
C59   H53   1.110762 S    
C39   N5    1.444937 S    
C24   C26   1.423606 A    
C5    C7    1.412295 A    
C68   H85   1.111206 S    
C10   C12   1.417486 A    
C11   C13   1.414763 A    
N5    N6    1.255279 D    
O2    Zn2   1.956286 S    
C56   H45   1.110246 S    
C41   C43   1.422515 A    
Zn1   N4    2.001861 S    
C67   H81   1.109628 S    
O5    Zn1   1.999755 S    
O1    Zn1   1.956282 S    
C64   H71   1.108538 S    
N7    H5    1.029412 S    
C59   H54   1.107219 S    
C26   C63   1.514172 S    
C45   H7    1.110385 S    
C63   H67   1.099827 S    
C54   H36   1.109094 S    
C8    N12   1.425680 S    
C61   H60   1.109061 S    
C58   H51   1.110356 S    
C13   C15   1.400047 A    
