data_mof_unit_50480.cif
_audit_creation_date              2012-12-10T18:52:12-0500
_audit_creation_method            fapswitch 2.2
_symmetry_space_group_name_H-M    P1
_symmetry_Int_Tables_number       1
_space_group_crystal_system       triclinic
_cell_length_a                    15.715238
_cell_length_b                    10.719989
_cell_length_c                    9.851632
_cell_angle_alpha                 90.33604
_cell_angle_beta                  89.070959
_cell_angle_gamma                 89.390208
_cell_volume                      1659.33423152

loop_
_atom_site_label
_atom_site_type_symbol
_atom_type_description
_atom_site_fract_x
_atom_site_fract_y
_atom_site_fract_z
_atom_type_partial_charge
C1    C     C_R   0.508600 0.260169 0.499206 0.931411
C2    C     C_R   0.506041 0.739975 0.500944 0.922001
C3    C     C_R   0.548130 0.931647 0.382147 0.488622
C4    C     C_R   0.529324 0.065976 0.624486 0.480882
C5    C     C_R   0.524346 0.871230 0.503950 -0.341433
C6    C     C_R   0.527008 0.127875 0.499113 -0.333236
C7    C     C_R   0.571355 0.465089 0.068976 0.159807
C8    C     C_R   0.430229 0.541431 0.930877 0.186300
C9    C     C_R   0.570453 0.463098 0.925289 -0.150448
C10   C     C_R   0.430090 0.539296 0.074688 -0.136493
C11   C     C_R   0.337944 0.499840 0.500824 0.912980
C12   C     C_R   0.661939 0.501642 0.499015 0.854412
C13   C     C_3   0.970159 0.400243 0.536635 0.426425
C14   C     C_3   0.029933 0.620746 0.448993 0.365347
C15   C     C_3   0.028105 0.416527 0.410255 0.335053
C16   C     C_3   0.971615 0.602321 0.575935 0.389169
C17   C     C_1   0.249155 0.500996 0.501789 -0.184918
C18   C     C_1   0.750357 0.508491 0.496529 -0.196687
C19   C     C_3   0.024932 0.489227 0.618625 -0.034079
C20   C     C_3   0.974036 0.530743 0.365309 -0.191346
C21   C     C_3   0.083285 0.506355 0.494555 -0.082871
C22   C     C_3   0.916038 0.513401 0.492957 -0.124706
C23   C     C_1   0.173984 0.502850 0.499339 0.094730
C24   C     C_1   0.825366 0.513233 0.494565 0.057256
C25   C     C_R   0.544168 0.060384 0.377600 -0.017235
C26   C     C_R   0.521736 0.938781 0.627854 -0.039326
H1    H     H_    0.626927 0.434206 0.868853 0.146264
H2    H     H_    0.374417 0.571473 0.131231 0.146889
N1    N     N_R   0.499980 0.499970 0.857200 -0.079302
N2    N     N_R   0.500020 0.500030 0.142800 -0.083430
O1    O     O_R   0.499990 0.316750 0.614620 -0.562257
O2    O     O_R   0.500010 0.683250 0.385380 -0.581959
O3    O     O_R   0.500000 0.316780 0.385290 -0.629173
O4    O     O_R   0.500000 0.683220 0.614710 -0.632766
O5    O     O_R   0.376780 0.499970 0.614640 -0.584351
O6    O     O_R   0.623220 0.500030 0.385360 -0.613524
O7    O     O_R   0.376780 0.500000 0.385310 -0.623976
O8    O     O_R   0.623220 0.500000 0.614690 -0.634703
Zn1   Zn    Zn3+2 0.500000 0.499980 0.653120 0.972274
Zn2   Zn    Zn3+2 0.500000 0.500020 0.346880 0.958364
O9    O     O_3   0.068498 0.316498 0.339240 -0.627982
C27   C     C_3   0.026621 0.288830 0.217469 0.080288
H3    H     H_    0.047294 0.355235 0.137669 0.151292
H4    H     H_    0.956262 0.292487 0.230011 0.113679
C28   C     C_3   0.051781 0.156935 0.171212 -0.325454
H5    H     H_    0.121713 0.151815 0.152825 0.235228
H6    H     H_    0.035068 0.089580 0.252418 0.205125
C29   C     C_3   0.006324 0.119896 0.041429 -0.974185
H7    H     H_    0.936262 0.121193 0.058600 0.268830
H8    H     H_    0.026315 0.024042 0.010625 0.263717
H9    H     H_    0.022807 0.184955 0.957893 0.285639
O10   O     O_3   0.934394 0.683823 0.674331 -0.647995
C30   C     C_3   0.948203 0.810144 0.642829 0.128125
H10   H     H_    0.894922 0.865109 0.689427 0.146678
H11   H     H_    0.945398 0.829325 0.532064 0.155654
C31   C     C_3   0.031216 0.854553 0.706078 -0.359764
H12   H     H_    0.025525 0.848117 0.818354 0.211215
H13   H     H_    0.085204 0.793569 0.672604 0.255979
C32   C     C_3   0.050635 0.989011 0.667607 -0.870926
H14   H     H_    0.055307 0.998422 0.555493 0.273617
H15   H     H_    0.112212 0.016621 0.711904 0.267450
H16   H     H_    0.000171 0.052761 0.708224 0.274602
O11   O     O_3   0.937312 0.290345 0.594768 -0.629598
C33   C     C_3   0.896690 0.217696 0.495566 0.118675
H17   H     H_    0.944227 0.152939 0.448033 0.165565
H18   H     H_    0.866474 0.274746 0.415008 0.114830
C34   C     C_3   0.826461 0.142080 0.563712 -0.347541
H19   H     H_    0.853405 0.084418 0.646081 0.220584
H20   H     H_    0.778570 0.207371 0.609255 0.215818
C35   C     C_3   0.783058 0.057460 0.461539 -1.025962
H21   H     H_    0.751454 0.114529 0.382860 0.266192
H22   H     H_    0.734235 0.000250 0.513766 0.257655
H23   H     H_    0.830537 0.993765 0.412247 0.269351
O12   O     O_3   0.072429 0.733881 0.420439 -0.664997
C36   C     C_3   0.069541 0.766075 0.282175 0.096953
H24   H     H_    0.085299 0.866567 0.275063 0.154711
H25   H     H_    0.004526 0.758973 0.240904 0.163887
C37   C     C_3   0.136631 0.692986 0.198142 -0.330572
H26   H     H_    0.201076 0.715710 0.235364 0.228382
H27   H     H_    0.127609 0.591062 0.209766 0.225354
C38   C     C_3   0.131601 0.725579 0.047922 -1.009587
H28   H     H_    0.068229 0.700765 0.008093 0.266258
H29   H     H_    0.181094 0.672309 0.989778 0.262747
H30   H     H_    0.142399 0.826840 0.032860 0.272448
N3    N     N_3   0.936626 0.554196 0.233047 -0.465422
H31   H     H_    0.983989 0.544908 0.158313 0.186776
H32   H     H_    0.891214 0.485935 0.214873 0.182260
N4    N     N_3   0.055034 0.465566 0.755266 -0.417897
H33   H     H_    0.001517 0.460760 0.819307 0.215070
H34   H     H_    0.089162 0.543797 0.785622 0.185957
N5    N     N_3   0.561093 0.118675 0.249420 -0.417588
H35   H     H_    0.608704 0.184995 0.261186 0.189919
H36   H     H_    0.505348 0.159942 0.213606 0.229238
N6    N     N_3   0.512606 0.883267 0.759701 -0.398865
H37   H     H_    0.562744 0.820535 0.776062 0.207013
H38   H     H_    0.453298 0.840708 0.769148 0.222041
O13   O     O_3   0.568249 0.866977 0.263104 -0.606723
C39   C     C_3   0.648912 0.806966 0.272954 0.130853
H39   H     H_    0.641237 0.707637 0.243729 0.194837
H40   H     H_    0.676340 0.808082 0.376942 0.095542
C40   C     C_3   0.711958 0.865215 0.172926 -0.370661
H41   H     H_    0.686112 0.860020 0.068784 0.233958
H42   H     H_    0.720712 0.964616 0.200275 0.235842
C41   C     C_3   0.798039 0.797836 0.174248 -0.947758
H43   H     H_    0.824765 0.798607 0.277933 0.266385
H44   H     H_    0.843238 0.845245 0.104311 0.267272
H45   H     H_    0.791025 0.699664 0.139943 0.272834
O14   O     O_3   0.538285 0.128432 0.746629 -0.590658
C42   C     C_3   0.626245 0.140917 0.771955 0.095353
H46   H     H_    0.647004 0.234113 0.736378 0.148369
H47   H     H_    0.667072 0.068105 0.720825 0.119933
C43   C     C_3   0.641156 0.130001 0.923774 -0.306610
H48   H     H_    0.601471 0.200677 0.978408 0.226439
H49   H     H_    0.620903 0.036470 0.958765 0.244337
C44   C     C_3   0.735060 0.148000 0.956042 -1.039523
H50   H     H_    0.757335 0.239509 0.917755 0.271274
H51   H     H_    0.774387 0.072321 0.908558 0.276005
H52   H     H_    0.743949 0.145685 0.067464 0.261391
N7    N     N_3   0.648473 0.435254 0.136617 -0.418293
H53   H     H_    0.695511 0.496281 0.102330 0.160841
H54   H     H_    0.667566 0.345118 0.109633 0.165430
N8    N     N_3   0.357679 0.590106 0.862870 -0.403633
H55   H     H_    0.347025 0.681644 0.896746 0.156833
H56   H     H_    0.304929 0.537268 0.891752 0.169694

loop_
_geom_bond_atom_site_label_1
_geom_bond_atom_site_label_2
_ccdc_geom_bond_type
C26   N6    S    
C40   H41   S    
C5    C26   A    
O9    C27   S    
C43   H49   S    
O13   C39   S    
C1    O3    A    
C28   H5    S    
O14   C42   S    
C4    O14   S    
C17   C23   T    
C18   C24   T    
C8    N1    A    
C14   O12   S    
C14   C21   S    
C19   C21   S    
O7    Zn2   S    
C42   H47   S    
O8    Zn1   S    
C37   H27   S    
C28   C29   S    
C6    C25   A    
C44   H50   S    
C1    O1    A    
C31   H12   S    
C2    O2    A    
C11   O7    A    
C10   N2    A    
C43   H48   S    
C11   O5    A    
C29   H9    S    
O1    Zn1   S    
C44   H51   S    
C35   H21   S    
C12   O6    A    
C9    N1    A    
C2    O4    A    
C28   H6    S    
C32   H14   S    
C40   H42   S    
C7    N2    A    
C27   H4    S    
C34   H19   S    
C41   H44   S    
C41   H43   S    
C38   H29   S    
C38   H28   S    
C30   H11   S    
C15   C20   S    
C25   N5    S    
O3    Zn2   S    
C32   H15   S    
O12   C36   S    
C13   C19   S    
N3    H32   S    
C1    C6    S    
C33   C34   S    
C14   C20   S    
C3    C25   A    
C15   O9    S    
C4    C6    A    
C19   N4    S    
C42   C43   S    
N5    H35   S    
C37   H26   S    
N3    H31   S    
O4    Zn1   S    
C34   H20   S    
C27   C28   S    
C33   H18   S    
O5    Zn1   S    
C36   H24   S    
C7    N7    S    
N5    H36   S    
C3    O13   S    
C13   O11   S    
O6    Zn2   S    
C44   H52   S    
C20   N3    S    
N1    Zn1   S    
C35   H23   S    
N2    Zn2   S    
C41   H45   S    
N6    H38   S    
C36   H25   S    
N7    H54   S    
C29   H7    S    
C20   C22   S    
C40   C41   S    
C39   H40   S    
C13   C15   S    
C14   C16   S    
C2    C5    S    
C27   H3    S    
N8    H56   S    
C38   H30   S    
O10   C30   S    
C9    H1    S    
C30   C31   S    
C10   H2    S    
C7    C9    A    
C11   C17   S    
C32   H16   S    
C16   C22   S    
C16   O10   S    
N4    H34   S    
C3    C5    A    
C4    C26   A    
N7    H53   S    
C30   H10   S    
C39   C40   S    
C31   C32   S    
C34   C35   S    
C33   H17   S    
C21   C23   S    
C42   H46   S    
C37   C38   S    
C8    N8    S    
C16   C19   S    
C29   H8    S    
C31   H13   S    
C13   C22   S    
C22   C24   S    
O2    Zn2   S    
C12   O8    A    
N6    H37   S    
C36   C37   S    
O11   C33   S    
C15   C21   S    
N4    H33   S    
C8    C10   A    
C39   H39   S    
C12   C18   S    
C35   H22   S    
N8    H55   S    
C43   C44   S    
