data_mof_unit_14614.cif
_audit_creation_date              2012-12-10T17:48:47-0500
_audit_creation_method            fapswitch 2.2
_symmetry_space_group_name_H-M    P1
_symmetry_Int_Tables_number       1
_space_group_crystal_system       triclinic
_cell_length_a                    15.725093
_cell_length_b                    10.738312
_cell_length_c                    9.919606
_cell_angle_alpha                 86.935399
_cell_angle_beta                  90.135542
_cell_angle_gamma                 92.965223
_cell_volume                      1670.39905872

loop_
_atom_site_label
_atom_site_type_symbol
_atom_type_description
_atom_site_fract_x
_atom_site_fract_y
_atom_site_fract_z
_atom_type_partial_charge
C1    C     C_R   0.500101 0.259429 0.504223 0.888535
C2    C     C_R   0.374805 0.012752 0.819973 -0.151146
C3    C     C_R   0.345301 0.896836 0.778910 -0.158074
C4    C     C_R   0.338395 0.499525 0.499981 0.875465
C5    C     C_R   0.378274 0.851559 0.662363 -0.129848
C6    C     C_R   0.440998 0.923306 0.585415 0.058837
C7    C     C_R   0.457357 0.048658 0.611611 0.088149
C8    C     C_R   0.502676 0.125557 0.512411 -0.216945
C9    C     C_R   0.544695 0.073468 0.406917 -0.204226
C10   C     C_R   0.545352 0.946328 0.400194 0.426153
C11   C     C_R   0.492040 0.871057 0.488954 -0.233762
C12   C     C_3   0.948504 0.427241 0.623440 -0.410147
C13   C     C_R   0.379699 0.346341 0.148298 -0.133752
C14   C     C_R   0.317192 0.276801 0.081927 -0.216984
C15   C     C_R   0.314443 0.282230 0.942435 -0.219540
C16   C     C_R   0.498420 0.739294 0.496256 0.856879
C17   C     C_R   0.376508 0.352737 0.868635 -0.171632
C18   C     C_R   0.439363 0.427039 0.931904 0.158288
C19   C     C_R   0.440085 0.425621 0.076406 0.173447
C20   C     C_R   0.557391 0.571338 0.067511 -0.101497
C21   C     C_R   0.557615 0.570867 0.924451 -0.097144
C22   C     C_R   0.661675 0.501564 0.500091 0.901561
C23   C     C_3   0.917844 0.509261 0.501578 0.232312
C24   C     C_3   0.046536 0.427109 0.623865 -0.469919
C25   C     C_3   0.046307 0.451744 0.368033 0.395268
C26   C     C_3   0.948101 0.455690 0.369364 -0.434017
C27   C     C_1   0.750801 0.505815 0.500783 -0.187941
C28   C     C_3   0.082870 0.506436 0.499870 0.202126
C29   C     C_3   0.106688 0.303460 0.235618 0.064261
C30   C     C_3   0.039697 0.291852 0.123505 -0.367310
C31   C     C_3   0.080196 0.261571 0.990329 -0.968637
C32   C     C_3   0.151599 0.808847 0.434992 0.087958
C33   C     C_3   0.111733 0.929160 0.473885 -0.353719
C34   C     C_3   0.956949 0.643887 0.510547 -0.439805
C35   C     C_3   0.179851 0.030249 0.504549 -0.947768
C36   C     C_3   0.055611 0.643441 0.509959 0.284296
C37   C     C_1   0.826287 0.508851 0.501710 -0.068561
C38   C     C_1   0.174316 0.503452 0.500086 -0.069327
C39   C     C_1   0.249564 0.501185 0.499882 -0.198227
C40   C     C_R   0.429765 0.088750 0.736749 -0.165199
H1    H     H_    0.921410 0.329774 0.617943 0.194307
H2    H     H_    0.604196 0.629779 0.117990 0.157239
H3    H     H_    0.066797 0.329365 0.622605 0.226341
H4    H     H_    0.379413 0.333609 0.255433 0.198979
H5    H     H_    0.271950 0.215987 0.139066 0.137152
H6    H     H_    0.266627 0.226316 0.890847 0.157352
H7    H     H_    0.376458 0.340514 0.762953 0.199495
H8    H     H_    0.604656 0.628856 0.867565 0.150909
H9    H     H_    0.070680 0.513635 0.280827 0.096551
H10   H     H_    0.918209 0.360329 0.359034 0.200292
H11   H     H_    0.927002 0.514555 0.280915 0.134830
H12   H     H_    0.071526 0.465851 0.718925 0.166919
H13   H     H_    0.077851 0.677798 0.609230 0.072959
H14   H     H_    0.935113 0.684419 0.604701 0.142416
H15   H     H_    0.621938 0.821912 0.346123 0.330686
H16   H     H_    0.137851 0.213193 0.248611 0.170563
H17   H     H_    0.157882 0.375645 0.207079 0.141706
H18   H     H_    0.991221 0.216641 0.153841 0.233365
H19   H     H_    0.007097 0.380739 0.107584 0.206797
H20   H     H_    0.126992 0.337745 0.956330 0.269981
H21   H     H_    0.030132 0.252428 0.911816 0.266762
H22   H     H_    0.112705 0.172223 0.002080 0.262054
H23   H     H_    0.926132 0.463432 0.719581 0.178138
H24   H     H_    0.193232 0.830935 0.345668 0.168093
H25   H     H_    0.193869 0.772630 0.516868 0.117924
H26   H     H_    0.071363 0.964191 0.389363 0.237968
H27   H     H_    0.070675 0.909558 0.564327 0.210432
H28   H     H_    0.219273 0.998921 0.591628 0.272083
H29   H     H_    0.148947 0.116608 0.530213 0.283399
H30   H     H_    0.221576 0.052184 0.415292 0.254319
H31   H     H_    0.934182 0.704230 0.424474 0.205286
H32   H     H_    0.581740 0.131898 0.333606 0.190058
H33   H     H_    0.456090 0.172294 0.777736 0.175255
H34   H     H_    0.355660 0.042813 0.917068 0.154770
H35   H     H_    0.300290 0.839507 0.840654 0.138274
H36   H     H_    0.356419 0.759033 0.635170 0.142192
N1    N     N_R   0.499210 0.498800 0.142780 -0.125238
N2    N     N_R   0.499180 0.498720 0.857170 -0.124431
O1    O     O_R   0.500000 0.316780 0.614690 -0.643814
O2    O     O_3   0.068825 0.325562 0.360765 -0.650366
O3    O     O_3   0.087574 0.719591 0.397493 -0.656016
O4    O     O_R   0.499990 0.316750 0.385360 -0.636113
O5    O     O_R   0.377150 0.500020 0.614720 -0.640781
O6    O     O_R   0.377140 0.499990 0.385380 -0.629583
O7    O     O_R   0.500010 0.683250 0.614640 -0.608986
O8    O     O_R   0.500000 0.683220 0.385310 -0.598852
O9    O     O_R   0.622860 0.500010 0.614620 -0.611158
O10   O     O_R   0.622850 0.499980 0.385280 -0.616043
O11   O     O_3   0.599362 0.900372 0.307461 -0.760822
Zn1   Zn    Zn3+2 0.500010 0.500020 0.653130 0.933106
Zn2   Zn    Zn3+2 0.499990 0.499980 0.346870 0.944846

loop_
_geom_bond_atom_site_label_1
_geom_bond_atom_site_label_2
_ccdc_geom_bond_type
C24   H12   S    
C25   O2    S    
C31   H21   S    
C9    H32   S    
C7    C8    A    
N2    Zn1   S    
C25   C28   S    
C32   O3    S    
C4    O5    A    
C12   C23   S    
C29   C30   S    
C20   N1    A    
O8    Zn2   S    
C26   H10   S    
C38   C39   T    
C1    C8    S    
C40   H33   S    
C18   C19   A    
C23   C26   S    
C19   N1    A    
O1    Zn1   S    
C36   H13   S    
C10   O11   S    
C8    C9    A    
C21   N2    A    
C7    C40   A    
C4    C39   S    
O6    Zn2   S    
C22   O10   A    
C3    H35   S    
C9    C10   A    
C2    H34   S    
C21   H8    S    
C13   C14   A    
C16   O8    A    
C31   H22   S    
C33   H26   S    
C14   H5    S    
C13   C19   A    
C17   H7    S    
C32   H24   S    
C6    C11   A    
C12   H23   S    
C1    O4    A    
C23   C37   S    
O4    Zn2   S    
C31   H20   S    
C12   H1    S    
C11   C16   S    
C4    O6    A    
O10   Zn2   S    
C28   C38   S    
C36   O3    S    
C18   N2    A    
C23   C34   S    
C30   H19   S    
C17   C18   A    
C22   O9    A    
C28   C36   S    
C29   H17   S    
C34   H14   S    
C22   C27   S    
C35   H30   S    
C16   O7    A    
C1    O1    A    
C33   H27   S    
C15   C17   A    
O5    Zn1   S    
N1    Zn2   S    
C24   C28   S    
C3    C5    A    
C20   H2    S    
O7    Zn1   S    
C6    C7    A    
C29   H16   S    
C12   C24   S    
C32   C33   S    
C5    H36   S    
C2    C3    A    
C25   C26   S    
H15   O11   S    
C26   H11   S    
C30   C31   S    
C5    C6    A    
C29   O2    S    
C35   H28   S    
C27   C37   T    
C30   H18   S    
C33   C35   S    
C34   C36   S    
C25   H9    S    
C10   C11   A    
C2    C40   A    
C20   C21   A    
C35   H29   S    
O9    Zn1   S    
C24   H3    S    
C14   C15   A    
C15   H6    S    
C34   H31   S    
C13   H4    S    
C32   H25   S    
