data_mof_unit_34063.cif
_audit_creation_date              2012-12-10T18:45:03-0500
_audit_creation_method            fapswitch 2.2
_symmetry_space_group_name_H-M    P1
_symmetry_Int_Tables_number       1
_space_group_crystal_system       triclinic
_cell_length_a                    10.667893
_cell_length_b                    9.855671
_cell_length_c                    10.640405
_cell_angle_alpha                 89.906664
_cell_angle_beta                  89.679261
_cell_angle_gamma                 90.159994
_cell_volume                      1118.70073068

loop_
_atom_site_label
_atom_site_type_symbol
_atom_type_description
_atom_site_fract_x
_atom_site_fract_y
_atom_site_fract_z
_atom_type_partial_charge
C1    C     C_R   0.260284 0.499708 0.497561 0.873462
C2    C     C_R   0.739844 0.500342 0.496458 0.870951
C3    C     C_R   0.937107 0.591281 0.410289 0.048732
C4    C     C_R   0.066951 0.589359 0.410174 0.104511
C5    C     C_R   0.578287 0.072001 0.577168 -0.062757
C6    C     C_R   0.421747 0.071821 0.422772 -0.068534
C7    C     C_R   0.578301 0.928203 0.577152 -0.076052
C8    C     C_R   0.421770 0.928016 0.422759 -0.065690
C9    C     C_R   0.496423 0.500193 0.260466 0.863757
C10   C     C_R   0.496188 0.499918 0.739584 0.866456
C11   C     C_R   0.285926 0.374966 0.132792 -0.192031
C12   C     C_R   0.286895 0.372801 0.870811 -0.180465
C13   C     C_R   0.187838 0.313484 0.067921 -0.140744
C14   C     C_R   0.188372 0.312284 0.937132 -0.136912
C15   C     C_R   0.387577 0.434757 0.935091 0.096686
C16   C     C_R   0.387259 0.435530 0.066867 0.097791
C17   C     C_R   0.487253 0.501057 0.128350 -0.092756
C18   C     C_R   0.487532 0.500138 0.871884 -0.097371
C19   C     C_R   0.581083 0.570456 0.063459 -0.211661
C20   C     C_R   0.581361 0.569816 0.935117 -0.210526
C21   C     C_R   0.063155 0.406361 0.565894 -0.245040
C22   C     C_R   0.934935 0.407633 0.566102 -0.216206
C23   C     C_R   0.872386 0.500990 0.490764 -0.070290
C24   C     C_R   0.128136 0.498922 0.490839 -0.053134
H1    H     H_    0.655646 0.622834 0.112362 0.145271
H2    H     H_    0.656335 0.621378 0.884764 0.149116
H3    H     H_    0.280248 0.376507 0.234231 0.146991
H4    H     H_    0.282346 0.372407 0.769479 0.142050
H5    H     H_    0.110649 0.267770 0.119295 0.138694
H6    H     H_    0.111629 0.265568 0.886865 0.131418
H7    H     H_    0.111544 0.335192 0.626114 0.152252
H8    H     H_    0.884452 0.337648 0.626853 0.153760
H9    H     H_    0.640930 0.126474 0.638902 0.126976
H10   H     H_    0.359167 0.126149 0.360961 0.129488
H11   H     H_    0.640951 0.873884 0.638872 0.128730
H12   H     H_    0.359253 0.873563 0.360905 0.138887
N1    N     N_R   0.500000 0.857200 0.500000 -0.082411
N2    N     N_R   0.500000 0.142810 0.500000 -0.080663
O1    O     O_R   0.316770 0.614620 0.499990 -0.596773
O2    O     O_R   0.683230 0.614620 0.500010 -0.633508
O3    O     O_R   0.316800 0.385290 0.500000 -0.643273
O4    O     O_R   0.683200 0.385290 0.500000 -0.616237
O5    O     O_R   0.500010 0.614690 0.316770 -0.616112
O6    O     O_R   0.499990 0.614690 0.683230 -0.612768
O7    O     O_R   0.500040 0.385360 0.316770 -0.620367
O8    O     O_R   0.499960 0.385360 0.683230 -0.623422
Zn1   Zn    Zn3+2 0.500000 0.653120 0.500000 0.948398
Zn2   Zn    Zn3+2 0.500000 0.346880 0.500000 0.941229
N3    N     N_3   0.873756 0.681190 0.325627 -0.477976
H13   H     H_    0.808968 0.625234 0.273641 0.176525
H14   H     H_    0.826838 0.755410 0.377544 0.215187
N4    N     N_3   0.137167 0.675980 0.326818 -0.455245
H15   H     H_    0.111427 0.653609 0.234445 0.197007
H16   H     H_    0.112885 0.776664 0.345633 0.194599

loop_
_geom_bond_atom_site_label_1
_geom_bond_atom_site_label_2
_ccdc_geom_bond_type
C10   O8    A    
C15   C18   A    
C6    N2    A    
C9    O7    A    
C13   C14   A    
N1    Zn1   S    
O6    Zn1   S    
C11   C13   A    
C11   C16   A    
C3    C23   A    
C19   C20   A    
C12   C15   A    
C11   H3    S    
C6    H10   S    
N4    H16   S    
C3    N3    S    
O4    Zn2   S    
C21   C22   A    
C21   H7    S    
C22   H8    S    
C2    O4    A    
C19   H1    S    
C10   C18   S    
C9    C17   S    
C17   C19   A    
O3    Zn2   S    
C14   H6    S    
C4    N4    S    
C18   C20   A    
C7    N1    A    
C4    C24   A    
O8    Zn2   S    
C9    O5    A    
C8    N1    A    
C1    O1    A    
C10   O6    A    
C15   C16   A    
C2    O2    A    
C7    H11   S    
N2    Zn2   S    
N4    H15   S    
C12   H4    S    
C1    C24   S    
O1    Zn1   S    
N3    H13   S    
C8    H12   S    
C21   C24   A    
C13   H5    S    
C2    C23   S    
C5    C7    A    
C22   C23   A    
C6    C8    A    
O7    Zn2   S    
N3    H14   S    
C5    N2    A    
O2    Zn1   S    
O5    Zn1   S    
C3    C4    A    
C1    O3    A    
C12   C14   A    
C16   C17   A    
C20   H2    S    
C5    H9    S    
