data_mof_unit_49129.cif
_audit_creation_date              2012-12-10T19:11:06-0500
_audit_creation_method            fapswitch 2.2
_symmetry_space_group_name_H-M    P1
_symmetry_Int_Tables_number       1
_space_group_crystal_system       triclinic
_cell_length_a                    10.834502
_cell_length_b                    9.066832
_cell_length_c                    7.770884
_cell_angle_alpha                 90.001232
_cell_angle_beta                  89.788691
_cell_angle_gamma                 90.000679
_cell_volume                      763.364562968

loop_
_atom_site_label
_atom_site_type_symbol
_atom_type_description
_atom_site_fract_x
_atom_site_fract_y
_atom_site_fract_z
_atom_type_partial_charge
C1    C     C_R   0.499996 0.220017 0.499999 0.830189
C2    C     C_R   0.259797 0.492441 0.500536 0.827544
C3    C     C_R   0.740206 0.492464 0.499456 0.827761
C4    C     C_R   0.499991 0.779985 0.500001 0.828186
C5    C     C_1   0.499993 0.065421 0.499999 -0.184675
C6    C     C_3   0.068890 0.419257 0.672847 -0.004800
C7    C     C_3   0.074207 0.402267 0.340387 -0.013268
C8    C     C_3   0.925798 0.401848 0.659252 -0.013360
C9    C     C_3   0.931130 0.419784 0.326819 -0.004962
C10   C     C_1   0.499991 0.934592 0.500002 -0.188013
C11   C     C_3   0.074124 0.660875 0.486343 0.264601
C12   C     C_3   0.925903 0.660850 0.514282 0.264694
C13   C     C_3   0.122260 0.492281 0.501113 -0.010335
C14   C     C_3   0.877746 0.492303 0.498861 -0.010345
Cu1   Cu    Cu3+1 0.500000 0.500010 0.669080 0.968958
Cu2   Cu    Cu3+1 0.500000 0.500010 0.330920 0.969020
H1    H     H_    0.084398 0.499664 0.777637 0.138216
H2    H     H_    0.113599 0.453243 0.222474 0.161566
H3    H     H_    0.886436 0.452527 0.777356 0.161594
H4    H     H_    0.915689 0.500532 0.222378 0.138127
N1    N     N_1   0.500000 0.499970 0.076820 -0.056247
N2    N     N_1   0.500000 0.499970 0.923180 -0.056217
O1    O     O_R   0.500000 0.288400 0.642760 -0.581598
O2    O     O_R   0.500000 0.288400 0.357240 -0.581483
O3    O     O_R   0.317700 0.499990 0.642790 -0.592231
O4    O     O_R   0.317700 0.499990 0.357210 -0.597529
O5    O     O_R   0.682300 0.499990 0.642790 -0.597631
O6    O     O_R   0.682300 0.499990 0.357210 -0.592175
O7    O     O_R   0.500000 0.711620 0.642810 -0.576800
O8    O     O_R   0.500000 0.711620 0.357190 -0.576765
C15   C     C_3   0.135387 0.280497 0.746058 -0.828967
H5    H     H_    0.141467 0.187841 0.654996 0.235318
H6    H     H_    0.229748 0.304610 0.791598 0.253251
H7    H     H_    0.086156 0.241090 0.862768 0.219050
C16   C     C_3   0.123891 0.241903 0.325043 -0.812462
H8    H     H_    0.220712 0.232352 0.369157 0.225849
H9    H     H_    0.067576 0.160781 0.395637 0.234236
H10   H     H_    0.123940 0.206859 0.188071 0.216752
C17   C     C_3   0.876057 0.241479 0.674069 -0.812847
H11   H     H_    0.932101 0.160562 0.602742 0.234246
H12   H     H_    0.876381 0.205932 0.810859 0.216897
H13   H     H_    0.779101 0.232201 0.630450 0.225786
C18   C     C_3   0.864608 0.281315 0.252888 -0.828339
H14   H     H_    0.857971 0.188562 0.343795 0.235255
H15   H     H_    0.770467 0.305831 0.206629 0.253234
H16   H     H_    0.914169 0.241908 0.136409 0.219045
C19   C     C_3   0.142397 0.763815 0.617950 -0.805894
H17   H     H_    0.136346 0.726810 0.753154 0.212997
H18   H     H_    0.242155 0.772969 0.587324 0.227454
H19   H     H_    0.106178 0.878270 0.610957 0.223732
C20   C     C_3   0.111518 0.730629 0.307966 -0.856432
H20   H     H_    0.211963 0.723180 0.283183 0.249434
H21   H     H_    0.063678 0.681638 0.196425 0.196826
H22   H     H_    0.091090 0.850638 0.304755 0.237797
C21   C     C_3   0.888537 0.730136 0.692925 -0.856291
H23   H     H_    0.936374 0.680822 0.804279 0.196737
H24   H     H_    0.909004 0.850125 0.696579 0.237821
H25   H     H_    0.788093 0.722706 0.717698 0.249565
C22   C     C_3   0.857640 0.764155 0.383066 -0.806067
H26   H     H_    0.757876 0.773199 0.413715 0.227312
H27   H     H_    0.893863 0.878591 0.390506 0.223708
H28   H     H_    0.863698 0.727545 0.247712 0.212976

loop_
_geom_bond_atom_site_label_1
_geom_bond_atom_site_label_2
_ccdc_geom_bond_type
C2    O4    A    
Cu2   O6    S    
C4    O7    A    
C6    C8    S    
C18   H14   S    
C15   H6    S    
Cu1   O7    S    
Cu2   N1    S    
C8    C17   S    
C6    H1    S    
C2    O3    A    
C18   H15   S    
C9    H4    S    
C11   C19   S    
C15   H5    S    
C22   H27   S    
C9    C14   S    
C20   H22   S    
C7    H2    S    
C21   H23   S    
Cu1   O1    S    
C6    C15   S    
C15   H7    S    
C22   H26   S    
Cu2   O2    S    
N1    N2    T    
C6    C13   S    
C11   C13   S    
C3    C14   S    
C7    C16   S    
C1    C5    S    
C3    O5    A    
C3    O6    A    
C16   H9    S    
C12   C14   S    
C1    O1    A    
C19   H19   S    
C21   H24   S    
Cu2   O4    S    
C18   H16   S    
Cu1   O3    S    
C8    H3    S    
C9    C18   S    
Cu2   O8    S    
C20   H20   S    
C12   C21   S    
C19   H17   S    
C7    C13   S    
C16   H10   S    
C11   C20   S    
C17   H12   S    
C1    O2    A    
C19   H18   S    
C21   H25   S    
C17   H11   S    
C7    C9    S    
C2    C13   S    
C17   H13   S    
C22   H28   S    
C8    C14   S    
C5    C10   T    
C11   C12   S    
C12   C22   S    
Cu1   O5    S    
Cu1   N2    S    
C4    O8    A    
Cu1   Cu2   S    
C4    C10   S    
C20   H21   S    
C16   H8    S    
