data_mof_unit_66476.cif
_audit_creation_date              2012-12-10T17:00:09-0500
_audit_creation_method            fapswitch 2.2
_symmetry_space_group_name_H-M    P1
_symmetry_Int_Tables_number       1
_space_group_crystal_system       triclinic
_cell_length_a                    12.947217
_cell_length_b                    13.037376
_cell_length_c                    16.08926
_cell_angle_alpha                 80.75633
_cell_angle_beta                  99.857484
_cell_angle_gamma                 90.641677
_cell_volume                      2640.61799533

loop_
_atom_site_label
_atom_site_type_symbol
_atom_type_description
_atom_site_fract_x
_atom_site_fract_y
_atom_site_fract_z
_atom_type_partial_charge
C1    C     C_R   0.466192 0.778335 0.466812 0.549388
C2    C     C_2   0.067621 0.438088 0.549423 -0.042913
C3    C     C_2   0.896066 0.533139 0.539708 0.012563
C4    C     C_R   0.536065 0.221827 0.530696 0.507245
C5    C     C_2   0.953242 0.441991 0.552351 -0.047870
C6    C     C_R   0.779189 0.530688 0.525754 0.497986
C7    C     C_R   0.221375 0.469542 0.477464 0.513337
C8    C     C_R   0.515811 0.487635 0.727107 0.511734
C9    C     C_R   0.484599 0.512023 0.272857 0.515472
C10   C     C_1   0.522603 0.482279 0.817605 0.037532
C11   C     C_2   0.535153 0.472382 0.984569 -0.110506
C12   C     C_1   0.473816 0.520519 0.106586 -0.028663
C13   C     C_2   0.467221 0.525721 0.015726 -0.111839
C14   C     C_2   0.655541 0.914076 0.477499 0.647016
C15   C     C_2   0.565136 0.045669 0.626781 0.615507
C16   C     C_2   0.904599 0.339466 0.575503 0.263090
C17   C     C_2   0.946466 0.636731 0.536595 0.574439
C18   C     C_1   0.528361 0.477739 0.893674 -0.024711
C19   C     C_1   0.478991 0.516438 0.182559 0.029959
C20   C     C_2   0.545217 0.107916 0.539036 0.079955
C21   C     C_2   0.530132 0.065042 0.466740 -0.162075
C22   C     C_2   0.460009 0.892964 0.450931 -0.085521
C23   C     C_2   0.545300 0.953182 0.465611 0.047990
C24   C     C_2   0.107239 0.473015 0.478213 -0.064107
H1    H     H_    0.405963 0.573841 0.973034 0.147505
H2    H     H_    0.075341 0.720375 0.568004 0.349248
H3    H     H_    0.055762 0.512081 0.421747 0.121647
H4    H     H_    0.596429 0.424247 0.027221 0.148053
H5    H     H_    0.509260 0.114714 0.405089 0.112737
H6    H     H_    0.382475 0.929109 0.432822 0.096103
H7    H     H_    0.118725 0.397868 0.605610 0.175065
H8    H     H_    0.808045 0.934936 0.523571 0.369385
H9    H     H_    0.564617 0.906357 0.702639 0.351449
H10   H     H_    0.827976 0.334519 0.594422 0.124087
O1    O     O_3   0.500000 0.500000 0.500000 -0.453955
O2    O     O_R   0.564890 0.556920 0.685230 -0.536239
O3    O     O_R   0.419250 0.562810 0.301190 -0.529547
O4    O     O_R   0.461010 0.422870 0.688230 -0.525416
O5    O     O_R   0.554850 0.457400 0.325340 -0.531702
O6    O     O_2   0.676362 0.838582 0.446665 -0.470608
O7    O     O_R   0.736528 0.967665 0.520453 -0.652374
O8    O     O_2   0.595472 0.089246 0.688212 -0.486420
O9    O     O_R   0.548144 0.938595 0.640079 -0.681824
O10   O     O_2   0.950956 0.258568 0.574927 -0.463704
O11   O     O_2   0.895116 0.715021 0.502409 -0.462825
O12   O     O_R   0.732880 0.470090 0.478000 -0.551141
O13   O     O_R   0.051102 0.645740 0.574404 -0.703601
O14   O     O_R   0.260330 0.535210 0.424090 -0.530231
O15   O     O_R   0.533020 0.732860 0.528350 -0.480501
O16   O     O_R   0.473780 0.261850 0.569570 -0.515393
O17   O     O_R   0.406490 0.723840 0.419860 -0.535940
O18   O     O_R   0.586720 0.281460 0.482230 -0.538385
O19   O     O_R   0.723810 0.584530 0.562340 -0.487936
O20   O     O_R   0.282980 0.410180 0.535580 -0.534237
Zn1   Zn    Zn3+2 0.592010 0.428480 0.447310 0.972695
Zn2   Zn    Zn3+2 0.579060 0.591980 0.567800 1.021184
Zn3   Zn    Zn3+2 0.430650 0.400450 0.572090 0.980249
Zn4   Zn    Zn3+2 0.398290 0.579090 0.412800 0.977565

loop_
_geom_bond_atom_site_label_1
_geom_bond_atom_site_label_2
_ccdc_geom_bond_type
O12   Zn1   S    
C14   C23   S    
H8    O7    S    
C24   H3    S    
C11   C18   S    
O14   Zn4   S    
O2    Zn2   S    
O15   Zn2   S    
C1    O17   A    
C16   O10   D    
O3    Zn4   S    
O18   Zn1   S    
C6    O12   A    
O1    Zn3   S    
C3    C6    S    
C7    O14   A    
C9    O3    A    
C15   O9    S    
C1    C22   S    
O17   Zn4   S    
C20   C21   D    
C11   C13   D    
C13   H1    S    
C8    O4    A    
H2    O13   S    
C4    O18   A    
O1    Zn4   S    
C11   H4    S    
C12   C19   T    
C1    O15   A    
C10   C18   T    
C3    C17   S    
C14   O7    S    
C21   C23   S    
C2    C24   D    
C15   C20   S    
C2    C5    S    
C6    O19   A    
C14   O6    D    
C7    C24   S    
O4    Zn3   S    
C9    O5    A    
C12   C13   S    
C8    C10   S    
C8    O2    A    
O19   Zn2   S    
C4    O16   A    
C22   C23   D    
C5    C16   S    
C22   H6    S    
C7    O20   A    
C16   H10   S    
O1    Zn2   S    
H9    O9    S    
O16   Zn3   S    
C21   H5    S    
C9    C19   S    
O1    Zn1   S    
O5    Zn1   S    
C17   O13   S    
C15   O8    D    
C17   O11   D    
C2    H7    S    
C3    C5    D    
O20   Zn3   S    
C4    C20   S    
