data_mof_unit_27341.cif
_audit_creation_date              2013-03-05T16:04:39-0500
_audit_creation_method            fapswitch 2.2
_symmetry_space_group_name_H-M    P1
_symmetry_Int_Tables_number       1
_space_group_crystal_system       triclinic
_cell_length_a                    9.506804
_cell_length_b                    10.799751
_cell_length_c                    15.416476
_cell_angle_alpha                 89.778989
_cell_angle_beta                  74.133842
_cell_angle_gamma                 89.921463
_cell_volume                      1522.51436597

loop_
_atom_site_label
_atom_site_type_symbol
_atom_site_description
_atom_site_fract_x
_atom_site_fract_y
_atom_site_fract_z
_atom_type_partial_charge
O1    O     O_R   0.118740 0.319660 0.500000 -0.575768
O2    O     O_R   0.881260 0.680340 0.500000 -0.572493
O3    O     O_R   0.881170 0.319630 0.500010 -0.561282
O4    O     O_R   0.118830 0.680370 0.499990 -0.558541
C1    C     C_R   0.001256 0.262280 0.497313 0.889517
C2    C     C_R   0.998818 0.737726 0.502528 0.864980
O5    O     O_R   0.055570 0.500030 0.629830 -0.577426
O6    O     O_R   0.944430 0.499970 0.370170 -0.587396
O7    O     O_R   0.818000 0.500000 0.629840 -0.569022
O8    O     O_R   0.182000 0.500000 0.370160 -0.576544
C3    C     C_R   0.917055 0.506071 0.672816 0.834289
C4    C     C_R   0.082037 0.502284 0.327721 0.884892
Cu1   Cu    Cu3+1 0.140660 0.500020 0.500000 1.021583
Cu2   Cu    Cu3+1 0.859340 0.499980 0.500000 1.025189
C5    C     C_R   0.870541 0.519120 0.772597 -0.061396
C6    C     C_R   0.127268 0.528995 0.230887 -0.018811
C7    C     C_R   0.931427 0.489898 0.914240 -0.145670
C8    C     C_R   0.105222 0.669762 0.113227 -0.184319
C9    C     C_R   0.973313 0.495973 0.820634 -0.181833
C10   C     C_R   0.046579 0.615537 0.196983 -0.229627
C11   C     C_R   0.725077 0.551809 0.820884 -0.063004
C12   C     C_R   0.264129 0.488997 0.176902 -0.072482
C13   C     C_R   0.684580 0.554029 0.917093 0.000074
C14   C     C_R   0.336031 0.561732 0.100565 0.011835
C15   C     C_R   0.784849 0.508487 0.963440 0.128426
C16   C     C_R   0.252469 0.649277 0.065780 0.074184
C17   C     C_R   0.543758 0.593750 0.968858 0.012537
C18   C     C_R   0.488024 0.549638 0.057339 0.062516
C19   C     C_R   0.587863 0.505106 0.102644 -0.315173
C20   C     C_R   0.462669 0.684456 0.937760 -0.185626
C21   C     C_R   0.735263 0.485463 0.057749 -0.025806
C22   C     C_R   0.319106 0.714380 0.985150 -0.055723
H1    H     H_    0.939055 0.644366 0.236651 0.140150
H2    H     H_    0.086299 0.476297 0.785576 0.169265
H3    H     H_    0.015999 0.469768 0.946748 0.194096
H4    H     H_    0.035283 0.731897 0.089037 0.133756
H5    H     H_    0.551875 0.487747 0.174590 0.136378
H6    H     H_    0.515013 0.739419 0.879140 0.221970
C23   C     C_R   0.922521 0.061866 0.446230 0.361238
C24   C     C_R   0.077677 0.938117 0.553426 0.348727
C25   C     C_R   0.919088 0.933446 0.452720 -0.264915
C26   C     C_R   0.081265 0.066510 0.546851 -0.270773
H7    H     H_    0.860334 0.881147 0.413877 0.187440
H8    H     H_    0.140089 0.118766 0.585669 0.190590
C27   C     C_R   0.997179 0.871571 0.504641 -0.186639
C28   C     C_R   0.003031 0.128417 0.495024 -0.186682
C29   C     C_R   0.547816 0.428772 0.560078 0.052169
C30   C     C_R   0.452211 0.571160 0.439864 0.025450
H9    H     H_    0.582674 0.371537 0.608095 0.113796
H10   H     H_    0.417374 0.628350 0.391809 0.121395
C31   C     C_R   0.398900 0.428911 0.560123 0.017671
C32   C     C_R   0.601124 0.571070 0.439853 0.016652
H11   H     H_    0.321398 0.371885 0.608178 0.115081
H12   H     H_    0.678647 0.628074 0.391783 0.107172
N1    N     N_R   0.352080 0.500030 0.499980 -0.163084
N2    N     N_R   0.647920 0.499970 0.500020 -0.156425
C33   C     C_2   0.827110 0.432225 0.112731 0.387802
H13   H     H_    0.800487 0.452615 0.184305 0.090061
O9    O     O_2   0.925799 0.359209 0.081365 -0.517862
C34   C     C_2   0.243746 0.815079 0.948912 0.401830
H14   H     H_    0.151846 0.864468 0.991844 0.074575
O10   O     O_2   0.285600 0.845854 0.869677 -0.468154
C35   C     C_2   0.317590 0.361780 0.190407 0.390685
H15   H     H_    0.407187 0.320765 0.139430 0.094931
O11   O     O_2   0.257991 0.298167 0.255725 -0.500029
C36   C     C_2   0.610435 0.568122 0.772720 0.372035
H16   H     H_    0.513997 0.509569 0.789933 0.063474
O12   O     O_2   0.618852 0.651901 0.718033 -0.476536
N3    N     N_R   0.850062 0.122085 0.386973 0.131895
O13   O     O_R   0.915115 0.210668 0.333516 -0.318372
O14   O     O_R   0.729264 0.076399 0.376379 -0.341459
N4    N     N_R   0.149703 0.877915 0.612914 0.140740
O15   O     O_R   0.083930 0.789932 0.666712 -0.335676
O16   O     O_R   0.270695 0.923254 0.623464 -0.306502

loop_
_geom_bond_atom_site_label_1
_geom_bond_atom_site_label_2
_geom_bond_distance
_ccdc_geom_bond_type
C15   C21   1.421508 A    
C30   N1    1.367228 A    
Cu2   N2    2.009844 S    
C35   O11   1.220974 D    
C16   C22   1.415869 A    
C2    C27   1.445958 S    
C11   C36   1.487002 S    
C36   O12   1.221995 D    
C8    C16   1.408578 A    
O5    Cu1   1.942979 S    
C23   C25   1.389909 A    
C5    C9    1.399664 A    
O1    C1    1.288638 A    
C18   C19   1.406644 A    
C14   C16   1.428123 A    
C33   O9    1.220140 D    
C20   H6    1.080495 S    
C34   O10   1.221632 D    
C26   C28   1.399281 A    
O4    Cu1   1.958481 S    
N3    O14   1.301422 A    
C12   C35   1.497671 S    
C3    C5    1.487026 S    
C4    C6    1.463801 S    
O6    Cu2   1.942979 S    
C13   C17   1.424811 A    
C8    C10   1.386540 A    
C6    C10   1.395935 A    
C24   C26   1.389702 A    
C36   H16   1.085410 S    
Cu1   Cu2   2.674456 S    
C17   C20   1.407167 A    
C25   H7    1.084415 S    
O2    C2    1.288619 A    
C26   H8    1.084356 S    
C32   H12   1.081861 S    
C24   C27   1.410034 A    
C29   H9    1.081630 S    
C29   C31   1.415518 A    
C9    H2    1.083447 S    
C34   H14   1.082187 S    
C31   H11   1.081786 S    
O5    C3    1.304000 A    
O7    Cu2   1.931585 S    
C5    C11   1.424429 A    
O6    C4    1.293108 A    
C23   N3    1.438848 S    
O7    C3    1.292940 A    
O3    Cu2   1.958481 S    
O8    C4    1.292894 A    
C23   C28   1.410225 A    
C10   H1    1.083802 S    
N4    O16   1.301427 A    
C11   C13   1.427125 A    
C12   C14   1.422588 A    
O4    C2    1.288715 A    
O1    Cu1   1.959243 S    
C22   C34   1.490002 S    
C6    C12   1.407586 A    
C24   N4    1.438809 S    
C14   C18   1.422222 A    
N4    O15   1.301435 A    
O3    C1    1.288786 A    
O8    Cu1   1.931587 S    
C1    C28   1.446214 S    
C7    C15   1.407093 A    
C21   C33   1.486958 S    
C19   C21   1.399179 A    
C20   C22   1.398698 A    
C33   H13   1.085856 S    
C30   H10   1.081702 S    
C7    C9    1.389415 A    
C31   N1    1.366374 A    
C13   C15   1.424609 A    
N3    O13   1.301437 A    
O2    Cu2   1.959243 S    
C35   H15   1.083968 S    
C30   C32   1.415639 A    
C19   H5    1.083274 S    
C17   C18   1.403157 A    
C25   C27   1.399224 A    
C7    H3    1.078820 S    
C8    H4    1.078834 S    
C32   N2    1.366425 A    
C29   N2    1.367077 A    
Cu1   N1    2.009843 S    
