data_mof_unit_47138.cif
_audit_creation_date              2012-12-10T19:11:32-0500
_audit_creation_method            fapswitch 2.2
_symmetry_space_group_name_H-M    P1
_symmetry_Int_Tables_number       1
_space_group_crystal_system       triclinic
_cell_length_a                    7.775598
_cell_length_b                    9.095375
_cell_length_c                    17.322297
_cell_angle_alpha                 89.968343
_cell_angle_beta                  87.160588
_cell_angle_gamma                 90.016611
_cell_volume                      1223.56287118

loop_
_atom_site_label
_atom_site_type_symbol
_atom_type_description
_atom_site_fract_x
_atom_site_fract_y
_atom_site_fract_z
_atom_type_partial_charge
C1    C     C_R   0.500014 0.780008 0.499998 0.846745
C2    C     C_R   0.499991 0.219993 0.499977 0.849119
C3    C     C_1   0.500024 0.934639 0.499984 -0.151052
C4    C     C_1   0.499992 0.065363 0.499971 -0.150035
C5    C     C_R   0.479651 0.504570 0.650492 0.824524
C6    C     C_R   0.520447 0.495622 0.349681 0.828657
C7    C     C_R   0.477042 0.518950 0.734952 -0.145480
C8    C     C_R   0.525309 0.487942 0.265314 -0.128752
C9    C     C_R   0.628890 0.482546 0.771570 -0.214175
C10   C     C_R   0.386030 0.548015 0.227492 -0.225766
C11   C     C_R   0.644520 0.506409 0.850336 0.312752
C12   C     C_R   0.377622 0.538712 0.147718 0.291965
C13   C     C_R   0.503466 0.567009 0.893420 0.051968
C14   C     C_R   0.514191 0.470617 0.104502 0.083259
C15   C     C_R   0.352032 0.603786 0.857725 -0.217163
C16   C     C_R   0.650127 0.406045 0.142123 -0.240830
C17   C     C_R   0.337064 0.580746 0.778836 0.159995
C18   C     C_R   0.657450 0.414111 0.222173 0.158408
C19   C     C_2   0.505347 0.581844 0.977047 -0.235746
C20   C     C_2   0.517961 0.461528 0.020428 -0.205224
Cu1   Cu    Cu3+1 0.330920 0.500000 0.500000 1.044767
Cu2   Cu    Cu3+1 0.669080 0.500000 0.500000 1.045041
H1    H     H_    0.244198 0.649578 0.891748 0.172384
H2    H     H_    0.751309 0.349137 0.108871 0.159969
H3    H     H_    0.738948 0.439578 0.738112 0.192833
H4    H     H_    0.281502 0.601750 0.260222 0.189388
H5    H     H_    0.538547 0.354633 0.993557 0.164514
H6    H     H_    0.489034 0.690061 0.002689 0.157773
N1    N     N_1   0.923170 0.500000 0.500010 -0.024850
N2    N     N_1   0.076830 0.500000 0.499990 -0.025036
O1    O     O_R   0.357240 0.711600 0.500000 -0.573658
O2    O     O_R   0.642760 0.288400 0.500000 -0.571574
O3    O     O_R   0.642760 0.711600 0.500000 -0.575399
O4    O     O_R   0.357240 0.288400 0.500000 -0.576229
O5    O     O_R   0.340660 0.500000 0.613590 -0.556569
O6    O     O_R   0.659340 0.500000 0.386410 -0.556378
O7    O     O_R   0.626230 0.500000 0.613600 -0.589241
O8    O     O_R   0.373770 0.500000 0.386400 -0.586873
N3    N     N_2   0.228327 0.594911 0.113499 -0.424271
H7    H     H_    0.248708 0.685472 0.078608 0.246351
C21   C     C_3   0.114341 0.486549 0.082500 -0.647233
H8    H     H_    0.989806 0.539464 0.070571 0.224856
H9    H     H_    0.089471 0.396185 0.124670 0.255835
H10   H     H_    0.170368 0.440407 0.027569 0.223335
N4    N     N_2   0.806151 0.480789 0.883897 -0.416005
H11   H     H_    0.824374 0.532453 0.935799 0.260608
C22   C     C_3   0.868927 0.330977 0.881194 -0.674266
H12   H     H_    0.995589 0.325558 0.908017 0.228024
H13   H     H_    0.887394 0.292293 0.820627 0.244360
H14   H     H_    0.777491 0.256990 0.913575 0.213940
I1    I     I_    0.864173 0.300883 0.272086 -0.365252
I2    I     I_    0.102883 0.652749 0.732697 -0.354313

loop_
_geom_bond_atom_site_label_1
_geom_bond_atom_site_label_2
_ccdc_geom_bond_type
C2    C4    S    
C6    O8    A    
N1    N2    T    
Cu1   O5    S    
C20   H5    S    
C5    O7    A    
Cu1   O1    S    
C21   H8    S    
Cu2   O2    S    
C19   C20   D    
C2    O4    A    
C12   N3    S    
C15   H1    S    
C1    O3    A    
C22   H13   S    
C16   C18   A    
N4    H11   S    
C19   H6    S    
C9    C11   A    
C10   H4    S    
C10   C12   A    
C5    O5    A    
C17   I2    S    
C2    O2    A    
Cu2   N1    S    
C12   C14   A    
C18   I1    S    
C22   H14   S    
C5    C7    S    
C13   C15   A    
C21   H10   S    
C14   C16   A    
C11   N4    S    
C11   C13   A    
C13   C19   S    
C9    H3    S    
C3    C4    T    
C7    C9    A    
C1    O1    A    
Cu2   O6    S    
N3    C21   S    
C14   C20   S    
C16   H2    S    
Cu1   N2    S    
N4    C22   S    
N3    H7    S    
C15   C17   A    
Cu2   O3    S    
Cu1   O8    S    
C6    C8    S    
Cu1   O4    S    
C7    C17   A    
Cu1   Cu2   S    
Cu2   O7    S    
C8    C10   A    
C8    C18   A    
C21   H9    S    
C22   H12   S    
C6    O6    A    
C1    C3    S    
