data_mof_unit_39627.cif
_audit_creation_date              2012-10-26T19:21:06-0400
_audit_creation_method            fapswitch 2.2
_symmetry_space_group_name_H-M    P1
_symmetry_Int_Tables_number       1
_space_group_crystal_system       triclinic
_cell_length_a                    9.944797
_cell_length_b                    11.054732
_cell_length_c                    13.415958
_cell_angle_alpha                 95.895538
_cell_angle_beta                  82.0355
_cell_angle_gamma                 111.456121
_cell_volume                      1357.28805844

loop_
_atom_site_label
_atom_site_type_symbol
_atom_type_description
_atom_site_fract_x
_atom_site_fract_y
_atom_site_fract_z
_atom_type_partial_charge
C1    C     C_R   0.556656 0.745440 0.507574 0.562647
C2    C     C_R   0.369130 0.424866 0.793010 -0.023670
C3    C     C_2   0.588115 0.885266 0.512157 -0.113076
C4    C     C_R   0.420010 0.469807 0.688033 0.555970
C5    C     C_2   0.484339 0.930385 0.499373 -0.149908
C6    C     C_2   0.411391 0.114778 0.488968 -0.112339
C7    C     C_2   0.514273 0.069606 0.503781 -0.154616
C8    C     C_2   0.919999 0.487796 0.488923 0.102733
C9    C     C_2   0.073966 0.509159 0.506508 0.062832
C10   C     C_R   0.443199 0.254554 0.492740 0.552378
C11   C     C_R   0.576454 0.511331 0.309786 0.543823
C12   C     C_R   0.431439 0.430104 0.964857 0.005255
C13   C     C_R   0.795285 0.513893 0.056752 -0.097230
C14   C     C_R   0.618347 0.509198 0.200620 -0.000244
C15   C     C_R   0.218415 0.376893 0.829835 0.098618
C16   C     C_R   0.177479 0.355290 0.932989 0.108654
C17   C     C_R   0.282338 0.389112 0.999550 -0.119708
C18   C     C_3   0.856837 0.389722 0.405378 -0.255724
C19   C     C_R   0.472269 0.429995 0.859562 0.001320
C20   C     C_R   0.540894 0.463531 0.031488 0.039636
C21   C     C_R   0.685879 0.479706 0.992346 0.062088
C22   C     C_R   0.718844 0.456761 0.889768 -0.112462
C23   C     C_R   0.612944 0.428556 0.824867 -0.095304
C24   C     C_R   0.510920 0.483111 0.135874 -0.117674
C25   C     C_R   0.761368 0.526501 0.160512 -0.119704
Cu1   Cu    Cu3+1 0.362000 0.479240 0.482530 1.038175
Cu2   Cu    Cu3+1 0.638000 0.520760 0.517470 0.936913
H1    H     H_    0.846592 0.548653 0.209136 0.138216
H2    H     H_    0.243069 0.371716 0.077682 0.151878
H3    H     H_    0.642151 0.398415 0.748543 0.169493
H4    H     H_    0.622043 0.135599 0.519232 0.164172
H5    H     H_    0.923378 0.423065 0.333262 0.128535
H6    H     H_    0.850137 0.292717 0.425149 0.133988
H7    H     H_    0.749014 0.369713 0.386966 0.190837
H8    H     H_    0.375954 0.864312 0.485268 0.158163
H9    H     H_    0.303616 0.048460 0.473866 0.124239
H10   H     H_    0.696385 0.951661 0.526075 0.126998
H11   H     H_    0.121143 0.580855 0.565537 0.112460
H12   H     H_    0.896031 0.617847 0.599203 0.200025
H13   H     H_    0.826674 0.459340 0.859566 0.151545
H14   H     H_    0.906711 0.528554 0.026912 0.144448
H15   H     H_    0.404396 0.479527 0.168435 0.144513
I1    I     I_    0.117657 0.301789 0.338136 -0.305073
I2    I     I_    0.046725 0.319508 0.734058 -0.338819
I3    I     I_    0.958653 0.265711 0.996936 -0.358534
N1    N     N_2   0.845330 0.551960 0.543750 -0.349473
N2    N     N_2   0.154690 0.448120 0.456210 -0.148152
O1    O     O_R   0.426290 0.668220 0.490680 -0.507829
O2    O     O_R   0.659360 0.703290 0.520190 -0.477272
O3    O     O_R   0.326580 0.473880 0.629020 -0.468365
O4    O     O_R   0.559660 0.508940 0.658530 -0.508548
O5    O     O_R   0.340640 0.296710 0.479810 -0.447005
O6    O     O_R   0.573710 0.331780 0.509320 -0.531732
O7    O     O_R   0.440340 0.491060 0.341470 -0.474923
O8    O     O_R   0.673420 0.526120 0.370980 -0.523171

loop_
_geom_bond_atom_site_label_1
_geom_bond_atom_site_label_2
_ccdc_geom_bond_type
C12   C17   A    
C6    C10   S    
C2    C4    S    
Cu2   O6    S    
C1    O1    A    
C6    C7    D    
Cu1   O5    S    
C24   H15   S    
C4    O3    A    
C19   C23   A    
Cu1   O1    S    
C10   O5    A    
C12   C20   A    
C13   H14   S    
C22   H13   S    
C21   C22   A    
C25   H1    S    
C2    C15   A    
C18   H7    S    
C13   C25   A    
Cu1   Cu2   S    
C11   O7    A    
I1    N2    S    
Cu1   N2    S    
H12   N1    S    
C5    H8    S    
C12   C19   A    
C9    H11   S    
C18   H6    S    
C7    H4    S    
C6    H9    S    
C15   I2    S    
C9    N2    D    
C8    N1    D    
Cu1   O3    S    
C14   C25   A    
C17   H2    S    
C11   C14   S    
Cu2   O8    S    
C18   H5    S    
C16   I3    S    
C13   C21   A    
C15   C16   A    
C23   H3    S    
Cu1   O7    S    
C11   O8    A    
C20   C21   A    
Cu2   N1    S    
C14   C24   A    
C5    C7    S    
C10   O6    A    
C20   C24   A    
C22   C23   A    
C16   C17   A    
C4    O4    A    
C3    C5    D    
C2    C19   A    
C1    O2    A    
C8    C18   S    
Cu2   O2    S    
C3    H10   S    
Cu2   O4    S    
C8    C9    S    
C1    C3    S    
