data_mof_unit_52753.cif
_audit_creation_date              2012-12-10T16:37:59-0500
_audit_creation_method            fapswitch 2.2
_symmetry_space_group_name_H-M    P1
_symmetry_Int_Tables_number       1
_space_group_crystal_system       triclinic
_cell_length_a                    28.138027
_cell_length_b                    18.498637
_cell_length_c                    16.848186
_cell_angle_alpha                 90.249207
_cell_angle_beta                  60.974188
_cell_angle_gamma                 90.36574
_cell_volume                      7668.10368768

loop_
_atom_site_label
_atom_site_type_symbol
_atom_type_description
_atom_site_fract_x
_atom_site_fract_y
_atom_site_fract_z
_atom_type_partial_charge
C1    C     C_R   0.700904 0.265850 0.677249 0.883000
C2    C     C_R   0.094586 0.501255 0.517067 0.068816
C3    C     C_R   0.177227 0.238873 0.920625 -0.002424
C4    C     C_R   0.665534 0.407369 0.989946 0.539233
C5    C     C_R   0.391367 0.682049 0.942384 0.570010
C6    C     C_R   0.334166 0.408338 0.012234 0.539775
C7    C     C_R   0.606815 0.684668 0.058472 0.571540
C8    C     C_R   0.165534 0.907369 0.989946 0.539233
C9    C     C_R   0.891367 0.182049 0.942384 0.570011
C10   C     C_R   0.834166 0.908339 0.012234 0.539773
C11   C     C_R   0.106815 0.184668 0.058472 0.571542
C12   C     C_R   0.691482 0.389307 0.039936 -0.310352
C13   C     C_R   0.406013 0.998545 0.480956 0.069749
C14   C     C_R   0.358457 0.689772 0.901881 -0.288621
C15   C     C_R   0.308360 0.390445 0.961841 -0.312192
C16   C     C_R   0.639317 0.692733 0.099705 -0.294268
C17   C     C_R   0.191482 0.889307 0.039936 -0.310351
C18   C     C_R   0.858457 0.189772 0.901881 -0.288623
C19   C     C_R   0.808359 0.890445 0.961841 -0.312185
C20   C     C_R   0.139317 0.192732 0.099705 -0.294269
C21   C     C_R   0.745460 0.200412 0.795862 -0.182371
C22   C     C_R   0.264116 0.816971 0.202345 -0.193188
C23   C     C_R   0.252585 0.201450 0.205310 -0.192654
C24   C     C_R   0.594586 0.001254 0.517067 0.068816
C25   C     C_R   0.736640 0.817164 0.797760 -0.202074
C26   C     C_R   0.245461 0.700412 0.795862 -0.182371
C27   C     C_R   0.764116 0.316971 0.202345 -0.193188
C28   C     C_R   0.752584 0.701450 0.205310 -0.192655
C29   C     C_R   0.236640 0.317164 0.797760 -0.202075
C30   C     C_R   0.778165 0.189092 0.836002 -0.224034
C31   C     C_R   0.238227 0.838957 0.153800 -0.224232
C32   C     C_R   0.219472 0.190802 0.165632 -0.239270
C33   C     C_R   0.762420 0.839338 0.846699 -0.233471
C34   C     C_R   0.278165 0.689092 0.836002 -0.224034
C35   C     C_R   0.119538 0.384199 0.442370 -0.244867
C36   C     C_R   0.738227 0.338956 0.153800 -0.224232
C37   C     C_R   0.719472 0.690803 0.165632 -0.239270
C38   C     C_R   0.262420 0.339338 0.846699 -0.233472
C39   C     C_R   0.070431 0.104389 0.937945 0.921876
C40   C     C_R   0.919832 0.909690 0.071866 0.962370
C41   C     C_R   0.929066 0.103900 0.062648 0.920704
C42   C     C_R   0.080290 0.909928 0.928024 0.960435
C43   C     C_R   0.570431 0.604389 0.937945 0.921875
C44   C     C_R   0.419832 0.409690 0.071866 0.962376
C45   C     C_R   0.429066 0.603900 0.062648 0.920708
C46   C     C_R   0.881080 0.615487 0.555891 -0.245938
C47   C     C_R   0.580290 0.409928 0.928024 0.960436
C48   C     C_R   0.523170 0.119305 0.579961 0.113254
C49   C     C_R   0.477555 0.880579 0.417556 0.112762
C50   C     C_R   0.427536 0.116254 0.565855 0.108832
C51   C     C_R   0.573238 0.883581 0.431804 0.108701
C52   C     C_R   0.023170 0.619305 0.579961 0.113254
C53   C     C_R   0.977555 0.380579 0.417556 0.112762
C54   C     C_R   0.927536 0.616254 0.565855 0.108832
C55   C     C_R   0.073238 0.383581 0.431804 0.108701
C56   C     C_R   0.485881 0.176256 0.615113 -0.205862
C57   C     C_R   0.928994 0.378676 0.413257 -0.246505
C58   C     C_R   0.515019 0.823806 0.381951 -0.211169
C59   C     C_R   0.438192 0.174482 0.608739 -0.203729
C60   C     C_R   0.562710 0.825543 0.388433 -0.201061
C61   C     C_R   0.985881 0.676256 0.615113 -0.205862
C62   C     C_R   0.015019 0.323806 0.381951 -0.211169
C63   C     C_R   0.938193 0.674482 0.608739 -0.203729
C64   C     C_R   0.062710 0.325543 0.388433 -0.201061
C65   C     C_R   0.464319 0.058495 0.531271 0.030744
C66   C     C_R   0.536440 0.941341 0.466325 0.030321
C67   C     C_R   0.511853 0.059668 0.539201 0.028114
C68   C     C_R   0.071523 0.621101 0.584765 -0.243547
C69   C     C_R   0.488893 0.940179 0.458361 0.029372
C70   C     C_R   0.964318 0.558495 0.531271 0.030744
C71   C     C_R   0.036440 0.441341 0.466325 0.030320
C72   C     C_R   0.011853 0.559668 0.539201 0.028114
C73   C     C_R   0.988893 0.440179 0.458361 0.029372
C74   C     C_R   0.953013 0.498956 0.490430 -0.052605
C75   C     C_R   0.047694 0.500858 0.507281 -0.052891
C76   C     C_R   0.453012 0.998956 0.490430 -0.052605
C77   C     C_R   0.547694 0.000858 0.507281 -0.052891
C78   C     C_R   0.892093 0.436743 0.447030 0.063467
C79   C     C_R   0.619538 0.884199 0.442370 -0.244867
C80   C     C_R   0.108380 0.563039 0.551240 0.062260
C81   C     C_R   0.128449 0.440242 0.491304 0.046303
C82   C     C_R   0.872086 0.559527 0.507039 0.047418
C83   C     C_R   0.392093 0.936743 0.447030 0.063467
C84   C     C_R   0.608379 0.063039 0.551240 0.062260
C85   C     C_R   0.628449 0.940242 0.491304 0.046303
C86   C     C_R   0.372086 0.059527 0.507039 0.047418
C87   C     C_R   0.841141 0.435807 0.448695 -0.123657
C88   C     C_R   0.159151 0.564013 0.550141 -0.123204
C89   C     C_R   0.169964 0.438071 0.516216 -0.109046
C90   C     C_R   0.381080 0.115487 0.555891 -0.245938
C91   C     C_R   0.830395 0.561794 0.482601 -0.109756
C92   C     C_R   0.341141 0.935807 0.448695 -0.123656
C93   C     C_R   0.659151 0.064013 0.550141 -0.123203
C94   C     C_R   0.669964 0.938071 0.516216 -0.109046
C95   C     C_R   0.330395 0.061794 0.482601 -0.109756
C96   C     C_R   0.814850 0.499807 0.455497 -0.300158
C97   C     C_R   0.185446 0.500075 0.543375 -0.301178
C98   C     C_R   0.314850 0.999807 0.455497 -0.300158
C99   C     C_R   0.685446 0.000075 0.543375 -0.301178
C100  C     C_3   0.691108 0.515427 0.918968 -0.310587
C101  C     C_R   0.428994 0.878676 0.413257 -0.246505
C102  C     C_3   0.477453 0.727325 0.880856 -0.314067
C103  C     C_3   0.308293 0.514636 0.087891 -0.308098
C104  C     C_3   0.521409 0.730705 0.120695 -0.343997
C105  C     C_3   0.191107 0.015427 0.918968 -0.310587
C106  C     C_3   0.977452 0.227325 0.880856 -0.314071
C107  C     C_3   0.808296 0.014637 0.087892 -0.308085
C108  C     C_3   0.021410 0.230705 0.120696 -0.343996
C109  C     C_R   0.299758 0.735083 0.322552 0.880297
C110  C     C_R   0.571523 0.121101 0.584765 -0.243547
C111  C     C_R   0.732352 0.285934 0.942784 0.017272
C112  C     C_R   0.293484 0.756569 0.032425 0.012267
C113  C     C_R   0.266636 0.287029 0.058575 0.017614
C114  C     C_R   0.705611 0.758128 0.968645 0.011989
C115  C     C_R   0.232353 0.785934 0.942783 0.017272
C116  C     C_R   0.793484 0.256569 0.032426 0.012267
C117  C     C_R   0.766635 0.787030 0.058575 0.017614
C118  C     C_R   0.205611 0.258128 0.968645 0.011988
C119  C     C_R   0.773487 0.232870 0.908022 0.103916
C120  C     C_R   0.299104 0.265723 0.322635 0.893494
C121  C     C_R   0.251083 0.807855 0.069300 0.108045
C122  C     C_R   0.224793 0.234538 0.093539 0.105820
C123  C     C_R   0.748665 0.808872 0.931671 0.110157
C124  C     C_R   0.273488 0.732871 0.908022 0.103915
C125  C     C_R   0.751082 0.307855 0.069301 0.108045
C126  C     C_R   0.724792 0.734538 0.093539 0.105820
C127  C     C_R   0.248665 0.308872 0.931670 0.110157
C128  C     C_R   0.807848 0.224346 0.947572 -0.050558
C129  C     C_R   0.223923 0.827214 0.019562 -0.035799
C130  C     C_R   0.190453 0.226468 0.053929 -0.049707
C131  C     C_R   0.700176 0.735220 0.677615 0.889561
C132  C     C_R   0.775652 0.828260 0.981748 -0.038526
C133  C     C_R   0.307849 0.724346 0.947572 -0.050557
C134  C     C_R   0.723923 0.327214 0.019562 -0.035799
C135  C     C_R   0.690453 0.726468 0.053930 -0.049707
C136  C     C_R   0.275652 0.328259 0.981748 -0.038524
C137  C     C_R   0.663538 0.357279 0.927499 -0.066304
C138  C     C_R   0.369086 0.694038 0.037642 -0.087580
C139  C     C_R   0.336038 0.357756 0.073748 -0.070646
C140  C     C_R   0.629805 0.695841 0.963050 -0.088405
C141  C     C_R   0.163538 0.857279 0.927499 -0.066304
C142  C     C_R   0.200904 0.765850 0.677249 0.883001
C143  C     C_R   0.869085 0.194038 0.037642 -0.087577
C144  C     C_R   0.836038 0.857757 0.073748 -0.070647
C145  C     C_R   0.129805 0.195841 0.963050 -0.088405
C146  C     C_R   0.628083 0.364396 0.889034 -0.124759
C147  C     C_R   0.390793 0.664332 0.092242 -0.139058
C148  C     C_R   0.371858 0.364346 0.111338 -0.127729
C149  C     C_R   0.608453 0.665321 0.908276 -0.141492
C150  C     C_R   0.128083 0.864396 0.889034 -0.124759
C151  C     C_R   0.890792 0.164332 0.092242 -0.139055
C152  C     C_R   0.871858 0.864347 0.111338 -0.127729
C153  C     C_R   0.799758 0.235082 0.322552 0.880297
C154  C     C_R   0.108453 0.165321 0.908276 -0.141492
C155  C     C_R   0.636983 0.325348 0.813687 -0.313574
C156  C     C_R   0.369658 0.684357 0.181986 -0.330048
C157  C     C_R   0.363094 0.325098 0.186185 -0.312158
C158  C     C_R   0.629879 0.684768 0.818302 -0.327324
C159  C     C_R   0.136983 0.825349 0.813687 -0.313574
C160  C     C_R   0.869658 0.184357 0.181986 -0.330052
C161  C     C_R   0.863094 0.825098 0.186185 -0.312157
C162  C     C_R   0.129879 0.184768 0.818302 -0.327325
C163  C     C_R   0.680005 0.278793 0.774334 -0.122782
C164  C     C_R   0.799104 0.765723 0.322635 0.893494
C165  C     C_R   0.325794 0.730271 0.222806 -0.123365
C166  C     C_R   0.319629 0.278821 0.225839 -0.123147
C167  C     C_R   0.674093 0.730626 0.777391 -0.121676
C168  C     C_R   0.180005 0.778793 0.774334 -0.122782
C169  C     C_R   0.825794 0.230271 0.222806 -0.123364
C170  C     C_R   0.819629 0.778822 0.225840 -0.123147
C171  C     C_R   0.174093 0.230626 0.777391 -0.121676
C172  C     C_R   0.708646 0.258619 0.822252 0.111766
C173  C     C_R   0.303585 0.761748 0.169933 0.111529
C174  C     C_R   0.290301 0.259141 0.178581 0.108335
C175  C     C_R   0.200176 0.235220 0.677615 0.889561
C176  C     C_R   0.696398 0.762424 0.830376 0.109507
C177  C     C_R   0.208646 0.758620 0.822252 0.111766
C178  C     C_R   0.803585 0.261748 0.169933 0.111529
C179  C     C_R   0.790301 0.759141 0.178581 0.108336
C180  C     C_R   0.196398 0.262424 0.830376 0.109507
C181  C     C_R   0.691132 0.129577 0.535898 0.892209
C182  C     C_R   0.308954 0.870328 0.463727 0.890907
C183  C     C_R   0.303270 0.127714 0.482679 0.910138
C184  C     C_R   0.696900 0.872234 0.516801 0.909267
C185  C     C_R   0.191132 0.629577 0.535898 0.892209
C186  C     C_R   0.906013 0.498545 0.480956 0.069749
C187  C     C_R   0.808954 0.370328 0.463727 0.890908
C188  C     C_R   0.803270 0.627714 0.482679 0.910138
C189  C     C_R   0.196900 0.372234 0.516801 0.909267
C190  C     C_R   0.700813 0.299665 0.898641 0.005307
C191  C     C_R   0.322061 0.737436 0.080082 -0.004341
C192  C     C_R   0.298341 0.300327 0.102516 0.005906
C193  C     C_R   0.677227 0.738873 0.920626 -0.002424
C194  C     C_R   0.200814 0.799665 0.898641 0.005307
C195  C     C_R   0.822061 0.237435 0.080082 -0.004343
C196  C     C_R   0.798341 0.800327 0.102517 0.005906
H1    H     H_    0.090896 0.280878 0.360939 0.144737
H2    H     H_    0.220605 0.499610 0.553719 0.193860
H3    H     H_    0.279563 0.000300 0.445508 0.193643
H4    H     H_    0.720605 0.999610 0.553719 0.193860
H5    H     H_    0.148706 0.341368 0.410216 0.176982
H6    H     H_    0.851841 0.658143 0.588549 0.175808
H7    H     H_    0.921205 0.333096 0.380563 0.157832
H8    H     H_    0.079132 0.666603 0.617775 0.159853
H9    H     H_    0.648706 0.841368 0.410216 0.176982
H10   H     H_    0.351841 0.158143 0.588549 0.175808
H11   H     H_    0.421205 0.833096 0.380563 0.157832
H12   H     H_    0.910097 0.719256 0.635954 0.144043
H13   H     H_    0.579132 0.166603 0.617775 0.159853
H14   H     H_    0.612277 0.335089 0.781499 0.187949
H15   H     H_    0.385523 0.659790 0.222608 0.194491
H16   H     H_    0.388237 0.334498 0.217817 0.191389
H17   H     H_    0.614022 0.659733 0.777579 0.195185
H18   H     H_    0.112277 0.835089 0.781499 0.187949
H19   H     H_    0.885523 0.159790 0.222608 0.194491
H20   H     H_    0.888237 0.834498 0.217817 0.191389
H21   H     H_    0.114022 0.159733 0.777579 0.195185
H22   H     H_    0.690266 0.428993 0.088066 0.166427
H23   H     H_    0.007348 0.277949 0.349438 0.148866
H24   H     H_    0.375499 0.674878 0.831154 0.169158
H25   H     H_    0.309642 0.430328 0.914202 0.167252
H26   H     H_    0.621805 0.678489 0.170653 0.163471
H27   H     H_    0.190266 0.928993 0.088066 0.166426
H28   H     H_    0.875498 0.174878 0.831154 0.169158
H29   H     H_    0.809642 0.930328 0.914202 0.167252
H30   H     H_    0.121805 0.178489 0.170652 0.163471
H31   H     H_    0.748771 0.161640 0.745313 0.164540
H32   H     H_    0.253581 0.846383 0.264019 0.170984
H33   H     H_    0.248850 0.162544 0.255664 0.170604
H34   H     H_    0.993671 0.722258 0.647250 0.142307
H35   H     H_    0.747946 0.846035 0.735646 0.176312
H36   H     H_    0.248772 0.661640 0.745313 0.164540
H37   H     H_    0.753581 0.346382 0.264019 0.170984
H38   H     H_    0.748850 0.662544 0.255664 0.170604
H39   H     H_    0.247946 0.346034 0.735646 0.176312
H40   H     H_    0.805725 0.143747 0.812056 0.144760
H41   H     H_    0.206773 0.879028 0.185677 0.141341
H42   H     H_    0.191167 0.145905 0.189793 0.146572
H43   H     H_    0.794535 0.878930 0.814804 0.140691
H44   H     H_    0.305725 0.643747 0.812056 0.144759
H45   H     H_    0.590896 0.780878 0.360939 0.144737
H46   H     H_    0.706773 0.379028 0.185677 0.141341
H47   H     H_    0.691167 0.645905 0.189793 0.146571
H48   H     H_    0.294535 0.378929 0.814804 0.140691
H49   H     H_    0.689004 0.503034 0.856120 0.157936
H50   H     H_    0.732510 0.503466 0.908771 0.155598
H51   H     H_    0.685219 0.574098 0.931627 0.195088
H52   H     H_    0.478068 0.735381 0.945755 0.139074
H53   H     H_    0.463265 0.777268 0.862167 0.158685
H54   H     H_    0.519890 0.717639 0.827184 0.195776
H55   H     H_    0.313409 0.504011 0.148182 0.159045
H56   H     H_    0.410097 0.219255 0.635954 0.144043
H57   H     H_    0.266433 0.499152 0.102457 0.154082
H58   H     H_    0.311681 0.573445 0.075648 0.195449
H59   H     H_    0.521921 0.741238 0.055373 0.147699
H60   H     H_    0.535568 0.779352 0.142683 0.160042
H61   H     H_    0.478608 0.720484 0.172758 0.192475
H62   H     H_    0.189002 0.003035 0.856121 0.157937
H63   H     H_    0.232510 0.003464 0.908768 0.155596
H64   H     H_    0.185219 0.074098 0.931627 0.195088
H65   H     H_    0.978067 0.235384 0.945755 0.139075
H66   H     H_    0.963265 0.277268 0.862163 0.158687
H67   H     H_    0.507348 0.777949 0.349438 0.148866
H68   H     H_    0.019890 0.217639 0.827185 0.195776
H69   H     H_    0.813422 0.004023 0.148175 0.159046
H70   H     H_    0.766434 0.999144 0.102475 0.154072
H71   H     H_    0.811678 0.073445 0.075643 0.195446
H72   H     H_    0.021922 0.241240 0.055372 0.147699
H73   H     H_    0.035568 0.279352 0.142686 0.160042
H74   H     H_    0.978608 0.220483 0.172757 0.192476
H75   H     H_    0.493671 0.222258 0.647250 0.142307
H76   H     H_    0.779563 0.500300 0.445508 0.193643
O1    O     O_R   0.746490 0.236330 0.638080 -0.633694
O2    O     O_R   0.325830 0.813840 0.483730 -0.623058
O3    O     O_R   0.325830 0.186160 0.483730 -0.634764
O4    O     O_R   0.674170 0.813840 0.516270 -0.635701
O5    O     O_R   0.174170 0.686160 0.516270 -0.624095
O6    O     O_R   0.825830 0.313840 0.483730 -0.623057
O7    O     O_R   0.825830 0.686160 0.483730 -0.634764
O8    O     O_R   0.174170 0.313840 0.516270 -0.635701
O9    O     O_R   0.739960 0.127620 0.525000 -0.628242
O10   O     O_R   0.260040 0.872380 0.475000 -0.629455
O11   O     O_R   0.260040 0.127620 0.475000 -0.634676
O12   O     O_R   0.253510 0.763670 0.361920 -0.634342
O13   O     O_R   0.739960 0.872380 0.525000 -0.636235
O14   O     O_R   0.239960 0.627620 0.525000 -0.628242
O15   O     O_R   0.760040 0.372380 0.475000 -0.629455
O16   O     O_R   0.760040 0.627620 0.475000 -0.634676
O17   O     O_R   0.239960 0.372380 0.525000 -0.636235
O18   O     O_R   0.680700 0.294870 0.629350 -0.622291
O19   O     O_R   0.319300 0.705130 0.370650 -0.624820
O20   O     O_R   0.319300 0.294870 0.370650 -0.616004
O21   O     O_R   0.680700 0.705130 0.629350 -0.618813
O22   O     O_R   0.180700 0.794870 0.629350 -0.622290
O23   O     O_R   0.253510 0.236330 0.361920 -0.650156
O24   O     O_R   0.819300 0.205130 0.370650 -0.624820
O25   O     O_R   0.819300 0.794870 0.370650 -0.616004
O26   O     O_R   0.180700 0.205130 0.629350 -0.618813
O27   O     O_R   0.062020 0.072840 0.007170 -0.530362
O28   O     O_R   0.937980 0.927160 0.992830 -0.582044
O29   O     O_R   0.937980 0.072840 0.992830 -0.528509
O30   O     O_R   0.062020 0.927160 0.007170 -0.578149
O31   O     O_R   0.562020 0.572840 0.007170 -0.530363
O32   O     O_R   0.437980 0.427160 0.992830 -0.582045
O33   O     O_R   0.437980 0.572840 0.992830 -0.528510
O34   O     O_R   0.746490 0.763670 0.638080 -0.651053
O35   O     O_R   0.562020 0.427160 0.007170 -0.578149
O36   O     O_R   0.947860 0.073950 0.109290 -0.630872
O37   O     O_R   0.052140 0.926050 0.890710 -0.641261
O38   O     O_R   0.052140 0.073950 0.890710 -0.632975
O39   O     O_R   0.947860 0.926050 0.109290 -0.640001
O40   O     O_R   0.447860 0.573950 0.109290 -0.630870
O41   O     O_R   0.552140 0.426050 0.890710 -0.641261
O42   O     O_R   0.552140 0.573950 0.890710 -0.632975
O43   O     O_R   0.447860 0.426050 0.109290 -0.640002
O44   O     O_3   0.649586 0.478341 0.993960 -0.584542
O45   O     O_R   0.246490 0.736330 0.638080 -0.633694
O46   O     O_3   0.445640 0.666626 0.885266 -0.586447
O47   O     O_3   0.349487 0.479636 0.010464 -0.585458
O48   O     O_3   0.552354 0.669165 0.114613 -0.586913
O49   O     O_3   0.149585 0.978341 0.993960 -0.584542
O50   O     O_3   0.945640 0.166626 0.885267 -0.586446
O51   O     O_3   0.849487 0.979636 0.010462 -0.585459
O52   O     O_3   0.052354 0.169164 0.114613 -0.586913
O53   O     O_R   0.753510 0.263670 0.361920 -0.634343
O54   O     O_R   0.753510 0.736330 0.361920 -0.650156
O55   O     O_R   0.246490 0.263670 0.638080 -0.651053
O56   O     O_R   0.674170 0.186160 0.516270 -0.624095
Zn1   Zn    Zn3+2 0.792340 0.208750 0.507670 0.945519
Zn2   Zn    Zn3+2 0.494040 0.500000 0.919480 1.029068
Zn3   Zn    Zn3+2 0.005960 0.000000 0.080520 1.033412
Zn4   Zn    Zn3+2 0.994040 0.000000 0.919480 1.029069
Zn5   Zn    Zn3+2 0.207660 0.791250 0.492330 0.942807
Zn6   Zn    Zn3+2 0.207660 0.208750 0.492330 0.935813
Zn7   Zn    Zn3+2 0.792340 0.791250 0.507670 0.933987
Zn8   Zn    Zn3+2 0.292340 0.708750 0.507670 0.945519
Zn9   Zn    Zn3+2 0.707660 0.291250 0.492330 0.942807
Zn10  Zn    Zn3+2 0.707660 0.708750 0.492330 0.935813
Zn11  Zn    Zn3+2 0.292340 0.291250 0.507670 0.933987
Zn12  Zn    Zn3+2 0.505960 0.500000 0.080520 1.033413

loop_
_geom_bond_atom_site_label_1
_geom_bond_atom_site_label_2
_ccdc_geom_bond_type
C91   C188  S    
C58   H67   S    
C108  O52   S    
C16   H26   S    
C45   O33   A    
O11   Zn6   S    
C4    O44   S    
C9    C143  A    
C120  C166  S    
C158  H17   S    
C60   H45   S    
C124  C133  A    
O29   Zn4   S    
C50   C59   A    
C108  H73   S    
C52   C61   A    
C47   O41   A    
C54   C63   A    
O20   Zn11  S    
C58   C60   A    
C131  O21   A    
C61   C63   A    
C117  C132  A    
C62   C64   A    
C100  H49   S    
C101  H11   S    
C91   C96   A    
C116  C195  A    
C93   C181  S    
C50   C90   A    
C113  C122  A    
C70   C74   A    
C78   C186  A    
C4    C12   A    
C34   H44   S    
C24   C85   A    
C88   C97   A    
O14   Zn8   S    
C119  C128  A    
C143  C151  A    
C162  H21   S    
C106  O50   S    
C159  H18   S    
C49   C69   A    
C14   H24   S    
C12   H22   S    
C158  C167  A    
C21   H31   S    
C11   C20   A    
C166  C174  A    
C150  C159  A    
C39   C154  S    
C137  C146  A    
C40   O28   A    
C127  C136  A    
C31   C121  A    
C139  C192  A    
C86   C90   A    
C71   C73   A    
C35   H5    S    
C172  C190  A    
C160  H19   S    
C17   C129  A    
C173  C191  A    
C82   C91   A    
C51   C66   A    
O41   Zn2   S    
O25   Zn7   S    
C52   C72   A    
C3    C118  A    
C54   C70   A    
C106  H68   S    
C61   H34   S    
C10   O51   S    
C163  C172  A    
C65   C76   A    
O38   Zn4   S    
O8    Zn6   S    
C131  O34   A    
C164  O54   A    
C63   H12   S    
O37   Zn4   S    
C79   C85   A    
C38   H48   S    
C66   C77   A    
C9    O50   S    
C34   C124  A    
C57   C78   A    
C185  O5    A    
C182  O10   A    
C41   C151  S    
C142  O22   A    
C21   C172  A    
C8    C17   A    
O15   Zn9   S    
C56   C59   A    
C103  H55   S    
C62   H23   S    
C107  O51   S    
C80   C88   A    
C100  H51   S    
C92   C182  S    
C112  C191  A    
C175  O55   A    
C84   C93   A    
C48   C67   A    
O53   Zn9   S    
C86   C95   A    
C142  C168  S    
C24   C77   A    
O5    Zn5   S    
C103  H58   S    
C2    C81   A    
C47   O35   A    
O6    Zn1   S    
O7    Zn7   S    
O35   Zn12  S    
C55   C71   A    
C2    C75   A    
C28   H38   S    
C78   C87   A    
C48   C110  A    
C105  H62   S    
C123  C132  A    
C68   H8    S    
C164  C170  S    
C138  C191  A    
C67   C77   A    
C27   C178  A    
C3    C180  A    
C95   C183  S    
C23   C174  A    
C183  O11   A    
C98   H3    S    
C22   H32   S    
C106  H66   S    
C20   H30   S    
C40   C152  S    
C69   C76   A    
C111  C119  A    
C85   C94   A    
C6    C139  A    
C108  H72   S    
C29   H39   S    
C18   C128  A    
C4    C137  A    
C46   C82   A    
C99   H4    S    
C8    C141  A    
C176  C193  A    
C149  C158  A    
C152  C161  A    
C131  C167  S    
C12   C134  A    
C55   C64   A    
C156  H15   S    
C72   C75   A    
C141  C150  A    
C139  C148  A    
O10   Zn5   S    
C162  C171  A    
O32   Zn2   S    
C153  O53   A    
C87   C187  S    
C15   C136  A    
C155  C163  A    
C79   H9    S    
C140  C193  A    
C185  O14   A    
C107  H69   S    
C17   H27   S    
C10   C144  A    
C164  O25   A    
C23   H33   S    
C189  O17   A    
C145  C154  A    
C88   C185  S    
C115  C194  A    
C3    C145  A    
C105  H64   S    
C116  C125  A    
C118  C127  A    
C114  C123  A    
C22   C173  A    
C37   C126  A    
C117  C126  A    
C26   C177  A    
C19   C132  A    
C113  C192  A    
C83   C101  A    
C43   O42   A    
C45   C147  S    
C154  C162  A    
C45   O40   A    
C111  C134  A    
O26   Zn6   S    
C144  C196  A    
C14   C133  A    
C41   O36   A    
C170  C179  A    
C36   H46   S    
C108  H74   S    
C19   H29   S    
O39   Zn3   S    
C112  C121  A    
C144  C152  A    
C28   C37   A    
C148  C157  A    
C171  C180  A    
C50   C65   A    
C51   C79   A    
C47   C146  S    
C100  H50   S    
C137  C190  A    
C9    C18   A    
O2    Zn8   S    
C39   O27   A    
C51   C60   A    
C30   H40   S    
C140  C149  A    
C25   C33   A    
C125  C134  A    
C6    O47   S    
C184  O4    A    
C37   H47   S    
O4    Zn10  S    
C102  H53   S    
C73   C74   A    
O36   Zn3   S    
O34   Zn7   S    
C184  O13   A    
C104  H59   S    
C82   C186  A    
C49   C101  A    
C7    C140  A    
O45   Zn8   S    
C168  C177  A    
O19   Zn8   S    
C90   H10   S    
C181  O56   A    
C146  C155  A    
C188  O16   A    
C65   C67   A    
C160  C169  A    
O18   Zn9   S    
C18   H28   S    
C93   C99   A    
C182  O2    A    
C81   C89   A    
C64   H1    S    
C105  O49   S    
C94   C184  S    
O30   Zn3   S    
C100  O44   S    
C5    O46   S    
O55   Zn11  S    
C179  C196  A    
C153  O24   A    
O27   Zn3   S    
C189  O8    A    
C7    O48   S    
C103  O47   S    
C177  C194  A    
O23   Zn6   S    
C32   C122  A    
O43   Zn12  S    
C53   C57   A    
C43   O31   A    
C44   O32   A    
C42   O30   A    
C118  C130  A    
C10   C19   A    
C143  C195  A    
C57   H7    S    
C107  H70   S    
C147  C156  A    
O17   Zn11  S    
C5    C14   A    
C109  C165  S    
C7    C16   A    
C161  H20   S    
C126  C135  A    
C42   O37   A    
C103  H57   S    
C120  O20   A    
C44   O43   A    
C109  O19   A    
C25   H35   S    
C115  C124  A    
C155  H14   S    
C121  C129  A    
C27   C36   A    
O16   Zn10  S    
C21   C30   A    
C13   C83   A    
C23   C32   A    
C8    O49   S    
C32   H42   S    
C156  C165  A    
C1    O18   A    
O54   Zn10  S    
C28   C179  A    
C46   H6    S    
C1    C163  S    
C111  C190  A    
C153  C169  S    
C89   C189  S    
C56   H75   S    
C74   C186  A    
C188  O7    A    
C11   O52   S    
C68   C80   A    
C114  C193  A    
C36   C125  A    
C112  C133  A    
C40   O39   A    
C38   C127  A    
C35   C81   A    
C95   C98   A    
C92   C98   A    
C5    C138  A    
C159  C168  A    
C83   C92   A    
C66   C69   A    
C30   C119  A    
C165  C173  A    
C175  O26   A    
O24   Zn1   S    
O28   Zn4   S    
C6    C15   A    
C187  O15   A    
C26   C34   A    
C113  C136  A    
C13   C86   A    
C114  C135  A    
C1    O1    A    
O56   Zn9   S    
C52   C68   A    
C104  H61   S    
C31   H41   S    
C105  H63   S    
O1    Zn1   S    
C46   C54   A    
O3    Zn11  S    
O40   Zn12  S    
C22   C31   A    
C35   C55   A    
C104  O48   S    
C29   C38   A    
C102  H52   S    
C109  O12   A    
C41   O29   A    
C11   C145  A    
C26   H36   S    
C171  C175  S    
C29   C180  A    
C106  H65   S    
C84   C110  A    
C49   C58   A    
C89   C97   A    
C15   H25   S    
C181  O9    A    
C33   H43   S    
C53   C62   A    
C183  O3    A    
O13   Zn7   S    
C13   C76   A    
C138  C147  A    
C87   C96   A    
O31   Zn12  S    
O12   Zn5   S    
C161  C170  A    
C102  O46   S    
C107  H71   S    
O21   Zn10  S    
C39   O38   A    
C169  C178  A    
O42   Zn2   S    
C115  C129  A    
C187  O6    A    
C48   C56   A    
C102  H54   S    
C142  O45   A    
C97   H2    S    
C53   C73   A    
C120  O23   A    
C20   C130  A    
C43   C149  S    
C157  C166  A    
O22   Zn5   S    
C96   H76   S    
C178  C195  A    
C104  H60   S    
C151  C160  A    
C24   C84   A    
C117  C196  A    
C71   C75   A    
C25   C176  A    
C94   C99   A    
C44   C148  S    
O9    Zn1   S    
C141  C194  A    
C42   C150  S    
C2    C80   A    
C27   H37   S    
C110  H13   S    
C157  H16   S    
C116  C128  A    
C174  C192  A    
C59   H56   S    
C33   C123  A    
O33   Zn2   S    
C70   C72   A    
C16   C135  A    
C122  C130  A    
C167  C176  A    
