data_mof_unit_46271.cif
_audit_creation_date              2012-12-10T17:01:34-0500
_audit_creation_method            fapswitch 2.2
_symmetry_space_group_name_H-M    P1
_symmetry_Int_Tables_number       1
_space_group_crystal_system       triclinic
_cell_length_a                    9.912089
_cell_length_b                    11.034407
_cell_length_c                    12.95896
_cell_angle_alpha                 89.09069
_cell_angle_beta                  75.751697
_cell_angle_gamma                 110.747195
_cell_volume                      1276.35560414

loop_
_atom_site_label
_atom_site_type_symbol
_atom_type_description
_atom_site_fract_x
_atom_site_fract_y
_atom_site_fract_z
_atom_type_partial_charge
C1    C     C_R   0.439859 0.254220 0.507893 0.865536
C2    C     C_R   0.560141 0.745780 0.492107 0.865531
C3    C     C_2   0.083267 0.515339 0.493419 0.263624
C4    C     C_2   0.916732 0.484671 0.506592 0.263616
C5    C     C_R   0.473179 0.495407 0.702548 0.797669
C6    C     C_R   0.526821 0.504595 0.297452 0.797664
C7    C     C_R   0.543023 0.510871 0.182832 -0.053499
C8    C     C_R   0.456977 0.489138 0.817168 -0.053500
C9    C     C_R   0.301881 0.413703 0.998868 -0.218456
C10   C     C_R   0.698119 0.586312 0.001131 -0.218454
C11   C     C_R   0.315821 0.424887 0.889515 -0.192385
C12   C     C_R   0.684179 0.575123 0.110485 -0.192389
C13   C     C_R   0.583713 0.544690 0.854532 -0.283015
C14   C     C_R   0.416286 0.455326 0.145468 -0.283004
C15   C     C_R   0.571012 0.533143 0.963638 0.180282
C16   C     C_R   0.428988 0.466875 0.036362 0.180283
C17   C     C_2   0.406053 0.114724 0.513510 -0.358333
C18   C     C_2   0.593947 0.885276 0.486492 -0.358336
C19   C     C_2   0.516809 0.069634 0.495979 -0.148889
C20   C     C_2   0.483191 0.930365 0.504030 -0.148885
Cu1   Cu    Cu3+1 0.647370 0.522180 0.481340 0.951384
Cu2   Cu    Cu3+1 0.352630 0.477820 0.518660 0.951382
H1    H     H_    0.307850 0.403097 0.201210 0.148009
H2    H     H_    0.692150 0.596919 0.798790 0.148016
H3    H     H_    0.783227 0.618623 0.138512 0.156136
H4    H     H_    0.216774 0.381383 0.861487 0.156137
H5    H     H_    0.192389 0.363068 0.053853 0.134956
H6    H     H_    0.807611 0.636948 0.946147 0.134957
H7    H     H_    0.366690 0.864408 0.524653 0.175910
H8    H     H_    0.633311 0.135592 0.475360 0.175902
H9    H     H_    0.710295 0.951671 0.467156 0.143531
H10   H     H_    0.289705 0.048329 0.532842 0.143530
H11   H     H_    0.945308 0.639945 0.407743 0.175705
H12   H     H_    0.054693 0.360036 0.592232 0.175697
N1    N     N_2   0.131210 0.444490 0.546730 -0.296713
N2    N     N_2   0.868790 0.555510 0.453270 -0.296724
O1    O     O_R   0.578710 0.332530 0.490040 -0.546841
O2    O     O_R   0.421290 0.667470 0.509960 -0.546826
O3    O     O_R   0.329810 0.295070 0.521560 -0.588672
O4    O     O_R   0.670190 0.704930 0.478440 -0.588670
O5    O     O_R   0.604230 0.515670 0.637800 -0.556304
O6    O     O_R   0.395770 0.484330 0.362200 -0.556322
O7    O     O_R   0.355330 0.478200 0.669330 -0.584427
O8    O     O_R   0.644670 0.521800 0.330670 -0.584429
N3    N     N_2   0.810015 0.372310 0.575823 -0.370098
H13   H     H_    0.818251 0.285910 0.552052 0.211919
C21   C     C_3   0.790467 0.379220 0.689980 -0.645380
H14   H     H_    0.669100 0.341668 0.731463 0.243247
H15   H     H_    0.843111 0.480736 0.707999 0.213729
H16   H     H_    0.839587 0.316500 0.723105 0.181393
N4    N     N_2   0.189982 0.627715 0.424206 -0.370111
H17   H     H_    0.181716 0.714103 0.447983 0.211917
C22   C     C_3   0.209571 0.620827 0.310045 -0.645367
H18   H     H_    0.330944 0.658394 0.268582 0.243247
H19   H     H_    0.160458 0.683547 0.276912 0.181382
H20   H     H_    0.156951 0.519315 0.292009 0.213736

loop_
_geom_bond_atom_site_label_1
_geom_bond_atom_site_label_2
_ccdc_geom_bond_type
C14   H1    S    
C5    C8    S    
C4    N2    D    
C22   H18   S    
C8    C13   A    
C1    O1    A    
C2    C18   S    
Cu1   O8    S    
C2    O2    A    
C1    C17   S    
C19   C20   S    
C3    N1    D    
C12   H3    S    
C20   H7    S    
C13   C15   A    
C5    O7    A    
C21   H15   S    
Cu1   N2    S    
C6    O8    A    
N3    H13   S    
Cu2   N1    S    
C9    C11   A    
Cu2   O6    S    
Cu1   O4    S    
C10   C12   A    
C8    C11   A    
Cu1   O5    S    
Cu2   O3    S    
C17   C19   D    
C9    C16   A    
Cu2   O7    S    
C6    C7    S    
C18   C20   D    
C4    N3    S    
C22   H19   S    
C7    C12   A    
C14   C16   A    
C22   H20   S    
C1    O3    A    
N4    H17   S    
Cu2   O2    S    
C21   H14   S    
C2    O4    A    
H11   N2    S    
Cu1   O1    S    
C9    H5    S    
H12   N1    S    
C6    O6    A    
N3    C21   S    
C10   H6    S    
C17   H10   S    
C21   H16   S    
C5    O5    A    
C3    N4    S    
C18   H9    S    
C11   H4    S    
C10   C15   A    
Cu1   Cu2   S    
C19   H8    S    
C7    C14   A    
C3    C4    S    
C15   C16   A    
C13   H2    S    
N4    C22   S    
