data_mof_unit_27748.cif
_audit_creation_date              2012-10-26T20:17:37-0400
_audit_creation_method            fapswitch 2.2
_symmetry_space_group_name_H-M    P1
_symmetry_Int_Tables_number       1
_space_group_crystal_system       triclinic
_cell_length_a                    27.803027
_cell_length_b                    8.67131
_cell_length_c                    7.429585
_cell_angle_alpha                 103.030575
_cell_angle_beta                  93.967579
_cell_angle_gamma                 92.414499
_cell_volume                      1737.80944973

loop_
_atom_site_label
_atom_site_type_symbol
_atom_type_description
_atom_site_fract_x
_atom_site_fract_y
_atom_site_fract_z
_atom_type_partial_charge
C1    C     C_R   0.498541 0.199614 0.453145 0.554834
C2    C     C_R   0.868654 0.367525 0.410955 0.024991
C3    C     C_R   0.354696 0.497775 0.509049 0.006703
C4    C     C_R   0.645304 0.502227 0.490951 0.006702
C5    C     C_R   0.970663 0.358465 0.424436 0.023968
C6    C     C_R   0.029337 0.641560 0.575518 0.023970
C7    C     C_R   0.978087 0.645569 0.566259 -0.001782
C8    C     C_R   0.021914 0.354451 0.433719 -0.001782
C9    C     C_R   0.949030 0.504045 0.491887 0.027962
C10   C     C_R   0.050970 0.495976 0.508083 0.027964
C11   C     C_R   0.939960 0.221361 0.348510 -0.157078
C12   C     C_R   0.501459 0.800386 0.546855 0.554834
C13   C     C_R   0.060040 0.778672 0.651401 -0.157087
C14   C     C_R   0.890180 0.226209 0.342344 -0.116506
C15   C     C_R   0.109820 0.773822 0.657573 -0.116509
C16   C     C_R   0.407507 0.499499 0.502813 0.553194
C17   C     C_R   0.592493 0.500501 0.497187 0.553195
C18   C     C_R   0.045262 0.212646 0.371532 -0.145418
C19   C     C_R   0.954738 0.787366 0.628483 -0.145415
C20   C     C_2   0.497841 0.031666 0.426725 -0.147446
C21   C     C_2   0.502159 0.968333 0.573275 -0.147446
C22   C     C_R   0.175586 0.352102 0.453778 0.420006
C23   C     C_R   0.102256 0.492254 0.515062 -0.056884
C24   C     C_R   0.824414 0.647907 0.546238 0.420008
C25   C     C_R   0.181692 0.629144 0.591641 0.402673
C26   C     C_R   0.818309 0.370874 0.408324 0.402671
C27   C     C_R   0.283690 0.510087 0.683509 -0.049717
C28   C     C_R   0.716310 0.489906 0.316486 -0.049717
C29   C     C_R   0.333771 0.512698 0.678699 -0.139838
C30   C     C_R   0.666228 0.487291 0.321297 -0.139841
C31   C     C_R   0.324653 0.480094 0.344640 -0.134898
C32   C     C_R   0.675347 0.519924 0.655361 -0.134901
C33   C     C_R   0.274663 0.477268 0.349857 -0.051411
C34   C     C_R   0.897744 0.507765 0.484916 -0.056885
C35   C     C_R   0.725338 0.522752 0.650143 -0.051410
C36   C     C_R   0.254053 0.492216 0.519068 0.241216
C37   C     C_R   0.745947 0.507792 0.480929 0.241210
C38   C     C_R   0.124594 0.349118 0.447856 0.057174
C39   C     C_R   0.875406 0.650894 0.552151 0.057177
C40   C     C_R   0.095410 0.208772 0.376854 0.097173
C41   C     C_R   0.904590 0.791237 0.623172 0.097177
C42   C     C_R   0.131347 0.632497 0.589000 0.024994
Cu1   Cu    Cu3+1 0.505380 0.517380 0.684380 0.965532
Cu2   Cu    Cu3+1 0.494620 0.482620 0.315620 0.965532
H1    H     H_    0.339694 0.468382 0.211913 0.131014
H2    H     H_    0.267869 0.521633 0.814728 0.128362
H3    H     H_    0.868527 0.117275 0.283695 0.177258
H4    H     H_    0.131473 0.882762 0.716192 0.177263
H5    H     H_    0.952790 0.106801 0.291355 0.105011
H6    H     H_    0.047211 0.893244 0.708504 0.105009
H7    H     H_    0.025864 0.100049 0.317118 0.102526
H8    H     H_    0.974136 0.899957 0.682935 0.102526
H9    H     H_    0.493773 0.959840 0.285589 0.136005
H10   H     H_    0.506227 0.040160 0.714410 0.136005
H11   H     H_    0.104114 0.979676 0.384055 0.231904
H12   H     H_    0.660307 0.531646 0.788090 0.131015
H13   H     H_    0.103132 0.017037 0.170030 0.228641
H14   H     H_    0.895877 0.020331 0.615985 0.231920
H15   H     H_    0.896876 0.982969 0.830014 0.228622
H16   H     H_    0.462183 0.378223 0.948457 0.239534
H17   H     H_    0.537817 0.621777 0.051543 0.239534
H18   H     H_    0.251852 0.464085 0.222472 0.130064
H19   H     H_    0.748149 0.535947 0.777529 0.130074
H20   H     H_    0.643986 0.473721 0.192509 0.131022
H21   H     H_    0.356013 0.526256 0.807486 0.131019
H22   H     H_    0.732129 0.478350 0.185264 0.128371
N1    N     N_R   0.202601 0.490798 0.523339 -0.412894
N2    N     N_R   0.797399 0.509214 0.476656 -0.412890
N3    N     N_2   0.486510 0.456430 0.038510 -0.258355
N4    N     N_2   0.513490 0.543570 0.961490 -0.258356
N5    N     N_3   0.116096 0.060068 0.308660 -0.537920
N6    N     N_3   0.883904 0.939936 0.691392 -0.537916
O1    O     O_R   0.503500 0.286120 0.619780 -0.504956
O2    O     O_2   0.801703 0.781646 0.609072 -0.426498
O3    O     O_2   0.790361 0.236362 0.340303 -0.469946
O4    O     O_2   0.209640 0.763659 0.659641 -0.469934
O5    O     O_R   0.496500 0.713880 0.380220 -0.504956
O6    O     O_R   0.494410 0.256780 0.308360 -0.494808
O7    O     O_R   0.505590 0.743220 0.691640 -0.494808
O8    O     O_R   0.434810 0.514700 0.655690 -0.507872
O9    O     O_R   0.565190 0.485300 0.344310 -0.507872
O10   O     O_R   0.425720 0.485350 0.344280 -0.502559
O11   O     O_R   0.574280 0.514650 0.655720 -0.502559
O12   O     O_2   0.198297 0.218356 0.390971 -0.426490

loop_
_geom_bond_atom_site_label_1
_geom_bond_atom_site_label_2
_ccdc_geom_bond_type
H17   N4    S    
Cu1   O1    S    
C12   O7    A    
C40   N5    S    
C30   H20   S    
C27   C29   A    
Cu1   O11   S    
C25   N1    A    
C24   O2    S    
C33   C36   A    
C36   N1    S    
C39   C41   A    
C23   C42   A    
H16   N3    S    
Cu2   O5    S    
C35   C37   A    
C5    C11   A    
Cu2   O10   S    
C21   H10   S    
C11   C14   A    
Cu1   O7    S    
C22   C38   A    
C37   N2    S    
C24   C39   A    
C3    C29   A    
C18   C40   A    
C19   H8    S    
C33   H18   S    
C31   C33   A    
H15   N6    S    
C2    C34   A    
C1    O6    A    
C15   H4    S    
C18   H7    S    
C34   C39   A    
C32   C35   A    
Cu2   O9    S    
Cu1   O8    S    
C12   C21   S    
C8    C18   A    
C16   O8    A    
C22   O12   S    
C28   H22   S    
Cu1   Cu2   S    
C5    C9    A    
C11   H5    S    
C12   O5    A    
C16   O10   A    
C26   O3    S    
Cu2   N3    S    
C2    C26   A    
C4    C32   A    
H13   N5    S    
C3    C31   A    
C6    C7    A    
C41   N6    S    
C29   H21   S    
C4    C17   S    
C27   H2    S    
Cu1   N4    S    
C7    C19   A    
C13   C15   A    
C9    C34   A    
C10   C23   A    
C7    C9    A    
C1    C20   S    
C15   C42   A    
C20   H9    S    
C25   C42   A    
C6    C10   A    
C5    C8    A    
C14   H3    S    
C27   C36   A    
C23   C38   A    
C25   O4    S    
C1    O1    A    
C28   C30   A    
C26   N2    A    
C6    C13   A    
C38   C40   A    
H14   N6    S    
C28   C37   A    
Cu2   O6    S    
C17   O9    A    
N3    N4    D    
C2    C14   A    
H11   N5    S    
C22   N1    A    
C24   N2    A    
C13   H6    S    
C20   C21   D    
C8    C10   A    
C31   H1    S    
C35   H19   S    
C17   O11   A    
C32   H12   S    
C4    C30   A    
C3    C16   S    
C19   C41   A    
