data_mof_unit_19562.cif
_audit_creation_date              2012-12-10T16:49:29-0500
_audit_creation_method            fapswitch 2.2
_symmetry_space_group_name_H-M    P1
_symmetry_Int_Tables_number       1
_space_group_crystal_system       triclinic
_cell_length_a                    19.301922
_cell_length_b                    8.686096
_cell_length_c                    7.442004
_cell_angle_alpha                 103.024204
_cell_angle_beta                  94.031546
_cell_angle_gamma                 92.279227
_cell_volume                      1210.62151919

loop_
_atom_site_label
_atom_site_type_symbol
_atom_type_description
_atom_site_fract_x
_atom_site_fract_y
_atom_site_fract_z
_atom_type_partial_charge
C1    C     C_R   0.497918 0.199683 0.453212 0.888921
C2    C     C_R   0.502082 0.800317 0.546788 0.888921
C3    C     C_2   0.496912 0.031770 0.426890 -0.373163
C4    C     C_2   0.503088 0.968230 0.573110 -0.373163
C5    C     C_R   0.367471 0.500321 0.502838 0.790335
C6    C     C_R   0.632529 0.499678 0.497162 0.790334
C7    C     C_R   0.261969 0.537519 0.679664 -0.215468
C8    C     C_R   0.738031 0.462479 0.320335 -0.215468
C9    C     C_R   0.189618 0.542487 0.687487 0.112400
C10   C     C_R   0.810382 0.457510 0.312512 0.112400
C11   C     C_R   0.146509 0.508512 0.519143 0.049330
C12   C     C_R   0.853491 0.491484 0.480856 0.049330
C13   C     C_R   0.176691 0.475016 0.349789 -0.207944
C14   C     C_R   0.823309 0.524981 0.650210 -0.207943
C15   C     C_R   0.248357 0.472125 0.344623 -0.195950
C16   C     C_R   0.751643 0.527874 0.655377 -0.195951
C17   C     C_R   0.291583 0.502693 0.509260 -0.050042
C18   C     C_R   0.708417 0.497307 0.490740 -0.050043
C19   C     C_R   0.929667 0.493668 0.487579 0.401756
C20   C     C_R   0.070333 0.506328 0.512419 0.401756
Cu1   Cu    Cu3+1 0.507710 0.517380 0.684380 0.945237
Cu2   Cu    Cu3+1 0.492290 0.482620 0.315620 0.945237
H1    H     H_    0.295431 0.563696 0.807182 0.149439
H2    H     H_    0.704569 0.436303 0.192818 0.149439
H3    H     H_    0.144412 0.448526 0.220325 0.151490
H4    H     H_    0.855588 0.551470 0.779674 0.151490
H5    H     H_    0.269824 0.444773 0.211223 0.151369
H6    H     H_    0.730176 0.555225 0.788776 0.151369
H7    H     H_    0.491084 0.960090 0.286004 0.179235
H8    H     H_    0.508916 0.039910 0.713995 0.179235
H9    H     H_    0.445043 0.379826 0.948989 0.223603
H10   H     H_    0.554957 0.620174 0.051011 0.223603
N1    N     N_R   0.034452 0.574193 0.390256 -0.257787
N2    N     N_R   0.965547 0.425802 0.609743 -0.257787
N3    N     N_R   0.965336 0.568922 0.378948 -0.249964
N4    N     N_R   0.034664 0.431073 0.621051 -0.249963
N5    N     N_2   0.480680 0.456420 0.038530 -0.219353
N6    N     N_2   0.519320 0.543580 0.961470 -0.219353
O1    O     O_R   0.505010 0.286130 0.619770 -0.581436
O2    O     O_R   0.494990 0.713870 0.380230 -0.581435
O3    O     O_R   0.491990 0.256780 0.308370 -0.584649
O4    O     O_R   0.508010 0.743220 0.691630 -0.584649
O5    O     O_R   0.406650 0.514660 0.655750 -0.592046
O6    O     O_R   0.593350 0.485340 0.344250 -0.592046
O7    O     O_R   0.393640 0.485310 0.344340 -0.584802
O8    O     O_R   0.606360 0.514690 0.655660 -0.584802
C21   C     C_3   0.161202 0.589721 0.875860 -0.426619
C22   C     C_3   0.133046 0.755679 0.908302 -0.344541
C23   C     C_3   0.101863 0.799416 0.094632 -0.792760
H11   H     H_    0.056614 0.716972 0.096727 0.276079
H12   H     H_    0.141313 0.794110 0.208901 0.258359
H13   H     H_    0.083821 0.921585 0.116898 0.239897
H14   H     H_    0.176113 0.843787 0.905476 0.220491
H15   H     H_    0.092199 0.762107 0.797970 0.230660
H16   H     H_    0.120729 0.500703 0.891720 0.219088
H17   H     H_    0.202962 0.590715 0.986993 0.188835
C24   C     C_3   0.838797 0.410275 0.124139 -0.426620
C25   C     C_3   0.866953 0.244316 0.091698 -0.344537
C26   C     C_3   0.898133 0.200576 0.905365 -0.792760
H18   H     H_    0.943383 0.283018 0.903265 0.276078
H19   H     H_    0.916175 0.078406 0.883100 0.239896
H20   H     H_    0.858683 0.205881 0.791096 0.258358
H21   H     H_    0.907800 0.237888 0.202027 0.230659
H22   H     H_    0.823885 0.156210 0.094526 0.220490
H23   H     H_    0.797038 0.409282 0.013006 0.188836
H24   H     H_    0.879271 0.499292 0.108279 0.219088

loop_
_geom_bond_atom_site_label_1
_geom_bond_atom_site_label_2
_ccdc_geom_bond_type
C16   H6    S    
C2    C4    S    
C1    C3    S    
C15   C17   A    
N5    N6    D    
H10   N6    S    
C11   C13   A    
C15   H5    S    
C21   C22   S    
Cu1   O1    S    
C24   H24   S    
C23   H13   S    
Cu2   O2    S    
C7    C9    A    
Cu2   O7    S    
C8    C18   A    
C5    O5    A    
C21   H16   S    
C26   H18   S    
Cu1   O8    S    
C19   N3    A    
Cu1   Cu2   S    
C14   H4    S    
C22   H15   S    
C9    C11   A    
C13   H3    S    
C24   C25   S    
C10   C12   A    
C2    O4    A    
C7    H1    S    
C20   N1    A    
C12   C19   S    
C8    C10   A    
C22   C23   S    
N1    N3    A    
C12   C14   A    
C9    C21   S    
N2    N4    A    
C13   C15   A    
C25   H22   S    
C22   H14   S    
C6    C18   S    
C14   C16   A    
C11   C20   S    
C26   H19   S    
Cu2   O3    S    
C5    C17   S    
C1    O1    A    
C3    C4    D    
C20   N4    A    
C2    O2    A    
C10   C24   S    
C6    O6    A    
C16   C18   A    
C23   H11   S    
C1    O3    A    
C25   H21   S    
C3    H7    S    
C26   H20   S    
Cu2   O6    S    
C6    O8    A    
C8    H2    S    
C25   C26   S    
Cu1   O5    S    
Cu2   N5    S    
C5    O7    A    
C4    H8    S    
Cu1   N6    S    
Cu1   O4    S    
C24   H23   S    
H9    N5    S    
C21   H17   S    
C23   H12   S    
C19   N2    A    
C7    C17   A    
