data_mof_unit_59402.cif
_audit_creation_date              2012-12-10T17:29:18-0500
_audit_creation_method            fapswitch 2.2
_symmetry_space_group_name_H-M    P1
_symmetry_Int_Tables_number       1
_space_group_crystal_system       triclinic
_cell_length_a                    12.100171
_cell_length_b                    12.852246
_cell_length_c                    12.962488
_cell_angle_alpha                 86.666868
_cell_angle_beta                  113.8562
_cell_angle_gamma                 92.541018
_cell_volume                      1840.02823666

loop_
_atom_site_label
_atom_site_type_symbol
_atom_type_description
_atom_site_fract_x
_atom_site_fract_y
_atom_site_fract_z
_atom_type_partial_charge
C1    C     C_R   0.473698 0.301290 0.484157 0.934383
C2    C     C_R   0.568426 0.522541 0.993366 -0.072419
C3    C     C_R   0.555258 0.553795 0.884279 -0.099053
C4    C     C_R   0.476330 0.547317 0.027983 -0.058341
C5    C     C_R   0.394661 0.628390 0.969402 -0.079349
C6    C     C_R   0.394546 0.671199 0.865692 -0.149757
C7    C     C_R   0.481637 0.638910 0.828773 0.413870
C8    C     C_R   0.460061 0.489456 0.116739 0.485078
C9    C     C_R   0.310273 0.610197 0.112431 -0.204847
C10   C     C_R   0.616577 0.498812 0.833699 -0.137096
C11   C     C_R   0.536366 0.814191 0.513669 -0.277697
C12   C     C_R   0.567986 0.496629 0.709855 0.997618
C13   C     C_R   0.452141 0.193109 0.451069 -0.108890
C14   C     C_R   0.325706 0.037157 0.409855 -0.125236
C15   C     C_R   0.337841 0.144862 0.424987 0.316247
C16   C     C_R   0.548170 0.135738 0.448499 -0.150792
C17   C     C_R   0.544664 0.028167 0.467550 -0.058632
C18   C     C_R   0.432501 0.978307 0.450205 0.061218
C19   C     C_R   0.430589 0.873159 0.481886 0.448297
C20   C     C_R   0.649383 0.865388 0.539435 -0.064503
C21   C     C_R   0.651645 0.971505 0.512594 -0.162825
C22   C     C_R   0.016960 0.613830 0.415827 -0.383842
C23   C     C_R   0.523802 0.700766 0.508235 0.918099
C24   C     C_R   0.134505 0.602182 0.421147 0.607111
C25   C     C_R   0.152691 0.444527 0.531760 0.503959
C26   C     C_R   0.032288 0.452390 0.526385 0.007524
C27   C     C_R   0.965322 0.540442 0.469797 -0.105025
C28   C     C_R   0.847003 0.552289 0.465971 0.074272
C29   C     C_R   0.862924 0.396794 0.579631 0.517614
C30   C     C_R   0.978240 0.377688 0.579471 -0.198061
C31   C     C_R   0.432479 0.506273 0.289991 0.967324
C32   C     C_R   0.316138 0.663209 0.017071 0.426607
C33   C     C_R   0.391401 0.529451 0.167995 -0.204547
C34   C     C_R   0.713790 0.434659 0.900817 0.302527
C35   C     C_R   0.750455 0.428361 0.019558 -0.219443
C36   C     C_R   0.677477 0.474251 0.066199 0.459906
H1    H     H_    0.738634 0.010404 0.535341 0.181796
H2    H     H_    0.966589 0.680808 0.368666 0.160691
N1    N     N_R   0.798200 0.480260 0.519790 -0.117591
N2    N     N_R   0.201820 0.519740 0.480210 -0.164486
O1    O     O_R   0.579910 0.341070 0.505280 -0.561226
O2    O     O_R   0.388440 0.353740 0.492580 -0.572553
O3    O     O_R   0.643280 0.490550 0.663120 -0.544111
O4    O     O_R   0.451810 0.503220 0.650420 -0.652761
O5    O     O_R   0.611560 0.646260 0.507420 -0.671819
O6    O     O_R   0.420090 0.658930 0.494720 -0.521885
O7    O     O_R   0.548190 0.496780 0.349580 -0.506638
O8    O     O_R   0.356720 0.509450 0.336880 -0.578613
Zn1   Zn    Zn3+2 0.627850 0.491540 0.508480 1.083696
Zn2   Zn    Zn3+2 0.372150 0.508460 0.491520 1.062497
C37   C     C_2   0.217047 0.640609 0.150590 0.598540
H3    H     H_    0.200573 0.722338 0.154352 0.132462
O9    O     O_2   0.151892 0.574261 0.170208 -0.553245
C38   C     C_2   0.765877 0.812895 0.605409 0.430532
H4    H     H_    0.768101 0.740312 0.653146 0.099603
O10   O     O_2   0.861678 0.851711 0.610014 -0.547470
C39   C     C_2   0.204495 0.990006 0.343227 0.557666
H5    H     H_    0.122459 0.021833 0.341725 0.062600
O11   O     O_2   0.194747 0.917070 0.283590 -0.550228
O12   O     O_3   0.239587 0.204973 0.407906 -0.690287
H6    H     H_    0.183267 0.163275 0.432666 0.361251
C40   C     C_2   0.646656 0.185853 0.420028 0.550524
H7    H     H_    0.739991 0.163621 0.463808 0.064085
O13   O     O_2   0.622726 0.252350 0.343503 -0.471866
C41   C     C_2   0.779262 0.646215 0.407975 0.478632
H8    H     H_    0.815002 0.722238 0.439207 0.072673
O14   O     O_2   0.689384 0.640746 0.320213 -0.530471
O15   O     O_3   0.810722 0.331758 0.636880 -0.712519
H9    H     H_    0.870304 0.283108 0.690127 0.303598
C42   C     C_2   0.035333 0.276847 0.628558 0.527337
H10   H     H_    0.068583 0.259896 0.718890 0.039847
O16   O     O_2   0.042562 0.211124 0.567377 -0.509148
O17   O     O_3   0.183292 0.673282 0.366927 -0.672815
H11   H     H_    0.122746 0.726866 0.325611 0.355661
C43   C     C_2   0.292872 0.733111 0.783448 0.473927
H12   H     H_    0.309716 0.801990 0.739169 0.044035
O18   O     O_2   0.188341 0.704627 0.760873 -0.495807
O19   O     O_3   0.219190 0.360168 0.590261 -0.729393
H13   H     H_    0.304597 0.381268 0.623116 0.367755
O20   O     O_3   0.250968 0.753131 0.978382 -0.724611
H14   H     H_    0.305431 0.807069 0.965008 0.333376
O21   O     O_3   0.505642 0.390997 0.153092 -0.659103
H15   H     H_    0.508892 0.356319 0.088078 0.340081
O22   O     O_3   0.768974 0.378533 0.847619 -0.719876
H16   H     H_    0.809247 0.317545 0.896343 0.328479
O23   O     O_3   0.714172 0.480778 0.181444 -0.640409
H17   H     H_    0.803513 0.485547 0.217395 0.362172
C44   C     C_2   0.861379 0.371445 0.092582 0.422952
H18   H     H_    0.937813 0.371305 0.068988 0.109564
O24   O     O_2   0.867361 0.321810 0.177866 -0.505752
O25   O     O_3   0.500495 0.691997 0.741579 -0.814822
H19   H     H_    0.491810 0.767308 0.748102 0.298069
O26   O     O_3   0.327513 0.832525 0.491318 -0.714668
H20   H     H_    0.352356 0.794806 0.565582 0.348775

loop_
_geom_bond_atom_site_label_1
_geom_bond_atom_site_label_2
_ccdc_geom_bond_type
O26   H20   S    
C23   O5    A    
C15   O12   S    
C14   C18   A    
C35   C36   A    
C9    C37   S    
C4    C8    A    
C6    C43   S    
O7    Zn1   S    
C11   C19   A    
C26   C27   A    
C29   C30   A    
C16   C40   S    
C8    O21   S    
C18   C19   A    
C12   O3    A    
C3    C7    A    
C25   N2    A    
C5    C6    A    
C24   O17   S    
C39   O11   D    
C2    C36   A    
C22   H2    S    
C34   C35   A    
O17   H11   S    
C40   O13   D    
C9    C32   A    
O15   H9    S    
C41   O14   D    
C31   C33   S    
C42   H10   S    
C19   O26   S    
C5    C32   A    
O8    Zn2   S    
C23   O6    A    
C31   O7    A    
C9    C33   A    
C34   O22   S    
O1    Zn1   S    
C30   C42   S    
C38   O10   D    
C11   C20   A    
C37   H3    S    
O22   H16   S    
C20   C38   S    
O25   H19   S    
O23   H17   S    
O3    Zn1   S    
C28   N1    A    
C36   O23   S    
C25   C26   A    
C17   C21   A    
C25   O19   S    
O12   H6    S    
C37   O9    D    
C2    C4    A    
C43   H12   S    
C40   H7    S    
C32   O20   S    
C29   O15   S    
C35   C44   S    
O5    Zn1   S    
C7    O25   S    
C29   N1    A    
C17   C18   A    
C10   C34   A    
C44   H18   S    
C43   O18   D    
C10   C12   S    
O2    Zn2   S    
C1    O1    A    
N1    Zn1   S    
C44   O24   D    
C26   C30   A    
C22   C27   A    
C13   C15   A    
C22   C24   A    
C1    C13   S    
O4    Zn2   S    
C14   C39   S    
C38   H4    S    
O19   H13   S    
O20   H14   S    
C6    C7    A    
O6    Zn2   S    
C31   O8    A    
C2    C3    A    
C12   O4    A    
C3    C10   A    
C39   H5    S    
C16   C17   A    
N2    Zn2   S    
C11   C23   S    
C24   N2    A    
C28   C41   S    
C8    C33   A    
C41   H8    S    
C1    O2    A    
C4    C5    A    
C21   H1    S    
C20   C21   A    
O21   H15   S    
C13   C16   A    
C27   C28   A    
C14   C15   A    
C42   O16   D    
