data_mof_unit_42900.cif
_audit_creation_date              2013-03-05T16:03:53-0500
_audit_creation_method            fapswitch 2.2
_symmetry_space_group_name_H-M    P1
_symmetry_Int_Tables_number       1
_space_group_crystal_system       triclinic
_cell_length_a                    11.041993
_cell_length_b                    10.847102
_cell_length_c                    9.609439
_cell_angle_alpha                 89.902826
_cell_angle_beta                  102.467558
_cell_angle_gamma                 92.191523
_cell_volume                      1122.96857114

loop_
_atom_site_label
_atom_site_type_symbol
_atom_site_description
_atom_site_fract_x
_atom_site_fract_y
_atom_site_fract_z
_atom_type_partial_charge
O1    O     O_R   0.499990 0.319660 0.618740 -0.558761
O2    O     O_R   0.500010 0.680340 0.381260 -0.558759
O3    O     O_R   0.499990 0.319630 0.381170 -0.570577
O4    O     O_R   0.500010 0.680370 0.618830 -0.570585
C1    C     C_R   0.501170 0.262370 0.500302 0.809294
C2    C     C_R   0.498831 0.737630 0.499698 0.809291
O5    O     O_R   0.320690 0.500020 0.575130 -0.562500
O6    O     O_R   0.679310 0.499980 0.424870 -0.562503
O7    O     O_R   0.320680 0.499990 0.337560 -0.539948
O8    O     O_R   0.679320 0.500010 0.662440 -0.539947
C3    C     C_R   0.262992 0.499709 0.442062 0.861167
C4    C     C_R   0.737008 0.500291 0.557938 0.861165
Cu1   Cu    Cu3+1 0.500000 0.500020 0.640660 1.061632
Cu2   Cu    Cu3+1 0.500000 0.499980 0.359340 1.061634
C5    C     C_R   0.413315 0.430816 0.052822 0.292310
C6    C     C_R   0.586684 0.569185 0.947177 0.292313
C7    C     C_R   0.414065 0.429853 0.904820 0.286030
C8    C     C_R   0.585936 0.570146 0.095180 0.286033
H1    H     H_    0.884383 0.456218 0.382493 0.211917
H2    H     H_    0.115617 0.543784 0.617506 0.211916
C9    C     C_2   0.127881 0.492519 0.409637 -0.266129
C10   C     C_2   0.872119 0.507482 0.590363 -0.266130
C11   C     C_2   0.066744 0.511436 0.512764 -0.094363
C12   C     C_2   0.933256 0.488566 0.487235 -0.094366
H3    H     H_    0.921613 0.533584 0.697317 0.204468
H4    H     H_    0.078387 0.466416 0.302683 0.204467
C13   C     C_R   0.495134 0.063755 0.372752 -0.121553
C14   C     C_R   0.504870 0.936245 0.627249 -0.121557
H5    H     H_    0.492703 0.111254 0.273325 0.206978
H6    H     H_    0.507302 0.888746 0.726676 0.206979
C15   C     C_R   0.491173 0.936131 0.371915 -0.110497
C16   C     C_R   0.508830 0.063869 0.628086 -0.110497
H7    H     H_    0.482379 0.888518 0.271278 0.204102
H8    H     H_    0.517625 0.111482 0.728722 0.204103
C17   C     C_R   0.497711 0.871605 0.499471 -0.048612
C18   C     C_R   0.502291 0.128395 0.500529 -0.048612
N1    N     N_R   0.500030 0.500030 0.852080 -0.321291
N2    N     N_R   0.499970 0.499970 0.147920 -0.321290
N3    N     N_R   0.319267 0.359250 0.101085 0.184538
O9    O     O_R   0.208251 0.401549 0.082005 -0.307520
O10   O     O_R   0.332783 0.241562 0.120301 -0.338604
N4    N     N_R   0.680726 0.640759 0.898914 0.184536
O11   O     O_R   0.791740 0.598460 0.917976 -0.307518
O12   O     O_R   0.667215 0.758450 0.879732 -0.338603
N5    N     N_R   0.325042 0.351717 0.811902 0.184280
O13   O     O_R   0.209083 0.380133 0.785295 -0.327221
O14   O     O_R   0.350894 0.237340 0.796821 -0.339139
N6    N     N_R   0.674962 0.648277 0.188099 0.184281
O15   O     O_R   0.790921 0.619862 0.214693 -0.327222
O16   O     O_R   0.649113 0.762653 0.203194 -0.339131

loop_
_geom_bond_atom_site_label_1
_geom_bond_atom_site_label_2
_geom_bond_distance
_ccdc_geom_bond_type
O7    Cu2   1.945633 S    
C15   H7    1.081051 S    
C5    N2    1.372302 A    
C4    C10   1.455821 S    
C13   C18   1.400821 A    
Cu2   N2    2.031556 S    
Cu1   N1    2.031556 S    
H2    C11   1.086091 S    
O5    Cu1   1.943803 S    
C6    N1    1.372304 A    
C11   C12   1.452735 S    
N6    O16   1.298953 A    
H1    C12   1.086090 S    
C8    N2    1.374217 A    
O8    Cu1   1.945632 S    
N3    O10   1.299193 A    
C6    C8    1.424088 A    
C7    N1    1.374217 A    
Cu1   Cu2   2.703328 S    
O5    C3    1.299656 A    
O7    C3    1.300085 A    
C5    N3    1.428711 S    
O2    C2    1.300423 A    
O3    Cu2   1.967135 S    
N4    O12   1.299175 A    
O1    C1    1.300424 A    
C16   C18   1.400108 A    
C10   C12   1.334180 D    
C14   H6    1.080446 S    
N6    O15   1.299386 A    
C9    H4    1.087093 S    
C7    N5    1.428889 S    
O8    C4    1.300085 A    
N5    O14   1.298960 A    
C9    C11   1.334181 D    
O2    Cu2   1.968038 S    
C15   C17   1.400108 A    
C13   H5    1.080446 S    
N4    O11   1.300952 A    
C13   C15   1.383359 A    
N3    O9    1.300956 A    
C1    C18   1.453756 S    
C6    N4    1.428710 S    
C14   C16   1.383359 A    
O1    Cu1   1.968037 S    
C2    C17   1.453755 S    
O4    C2    1.299328 A    
O4    Cu1   1.967134 S    
C5    C7    1.424088 A    
O6    Cu2   1.943802 S    
N5    O13   1.299393 A    
C3    C9    1.455820 S    
O6    C4    1.299655 A    
C14   C17   1.400821 A    
C8    N6    1.428888 S    
O3    C1    1.299327 A    
C10   H3    1.087092 S    
C16   H8    1.081049 S    
