data_mof_unit_38765.cif
_audit_creation_date              2012-12-10T16:56:33-0500
_audit_creation_method            fapswitch 2.2
_symmetry_space_group_name_H-M    P1
_symmetry_Int_Tables_number       1
_space_group_crystal_system       triclinic
_cell_length_a                    7.928132
_cell_length_b                    8.56402
_cell_length_c                    15.693642
_cell_angle_alpha                 93.461303
_cell_angle_beta                  84.265801
_cell_angle_gamma                 93.529224
_cell_volume                      1056.62513935

loop_
_atom_site_label
_atom_site_type_symbol
_atom_type_description
_atom_site_fract_x
_atom_site_fract_y
_atom_site_fract_z
_atom_type_partial_charge
C1    C     C_R   0.545027 0.794053 0.498039 0.948164
C2    C     C_3   0.401892 0.377147 0.029079 -0.167925
C3    C     C_1   0.498740 0.501086 0.750895 -0.181699
C4    C     C_1   0.501260 0.498914 0.249105 -0.181702
C5    C     C_3   0.339937 0.511650 0.980752 -0.165061
C6    C     C_3   0.660063 0.488349 0.019248 -0.165061
C7    C     C_3   0.499105 0.500562 0.917367 0.213007
C8    C     C_3   0.500894 0.499437 0.082633 0.213008
C9    C     C_1   0.498563 0.501022 0.826364 -0.087522
C10   C     C_1   0.501437 0.498978 0.173636 -0.087523
C11   C     C_3   0.012244 0.315796 0.433050 -0.137741
C12   C     C_R   0.454973 0.205946 0.501961 0.948167
C13   C     C_3   0.928330 0.275464 0.350619 -0.870391
C14   C     C_3   0.987755 0.684213 0.566939 -0.137706
C15   C     C_3   0.071689 0.724592 0.649361 -0.870428
C16   C     C_R   0.499686 0.500807 0.661722 0.892871
C17   C     C_R   0.500314 0.499193 0.338278 0.892872
C18   C     C_2   0.568503 0.957729 0.496773 -0.383618
C19   C     C_2   0.431497 0.042271 0.503227 -0.383623
C20   C     C_3   0.438947 0.633938 0.036107 -0.164504
C21   C     C_3   0.561053 0.366061 0.963893 -0.164504
C22   C     C_3   0.598108 0.622853 0.970921 -0.167925
H1    H     H_    0.678223 0.723281 0.944947 0.129533
H2    H     H_    0.937383 0.378705 0.310487 0.266649
H3    H     H_    0.995342 0.179514 0.313255 0.210388
H4    H     H_    0.145926 0.329620 0.410781 0.231962
H5    H     H_    0.989880 0.216829 0.476153 0.160335
H6    H     H_    0.062626 0.621383 0.689515 0.266637
H7    H     H_    0.205576 0.767019 0.636236 0.285505
H8    H     H_    0.004704 0.820577 0.686707 0.210392
H9    H     H_    0.010091 0.783164 0.523824 0.160340
H10   H     H_    0.854078 0.670381 0.589221 0.231955
H11   H     H_    0.321777 0.276719 0.055053 0.129532
H12   H     H_    0.389118 0.743413 0.067815 0.130616
H13   H     H_    0.610881 0.256587 0.932185 0.130617
H14   H     H_    0.790905 0.478820 0.037136 0.129592
H15   H     H_    0.209095 0.521180 0.962864 0.129592
H16   H     H_    0.698213 0.008086 0.490481 0.176280
H17   H     H_    0.301787 0.991914 0.509519 0.176284
H18   H     H_    0.794447 0.233013 0.363735 0.285489
N1    N     N_2   0.950320 0.457950 0.477300 -0.029586
N2    N     N_2   0.049680 0.542050 0.522700 -0.029581
O1    O     O_R   0.389250 0.738570 0.505570 -0.612540
O2    O     O_R   0.610750 0.261430 0.494430 -0.612533
O3    O     O_R   0.678390 0.711630 0.491020 -0.658965
O4    O     O_R   0.321610 0.288370 0.508980 -0.658963
O5    O     O_R   0.355460 0.513480 0.630490 -0.609129
O6    O     O_R   0.644540 0.486520 0.369510 -0.609137
O7    O     O_R   0.644600 0.486540 0.615950 -0.635291
O8    O     O_R   0.355400 0.513460 0.384050 -0.635289
Zn1   Zn    Zn3+2 0.306940 0.517990 0.509710 0.929083
Zn2   Zn    Zn3+2 0.693060 0.482010 0.490290 0.929077

loop_
_geom_bond_atom_site_label_1
_geom_bond_atom_site_label_2
_ccdc_geom_bond_type
C17   O8    A    
C6    C8    S    
C11   N1    S    
C3    C9    T    
C5    H15   S    
C7    C22   S    
N1    N2    D    
N2    Zn1   S    
N1    Zn2   S    
C11   H4    S    
C17   O6    A    
C11   H5    S    
C14   H9    S    
C14   N2    S    
O7    Zn2   S    
C20   H12   S    
O2    Zn2   S    
C2    C21   S    
O8    Zn1   S    
C18   H16   S    
C12   O2    A    
C5    C20   S    
C7    C21   S    
C11   C13   S    
C1    O3    A    
C15   H6    S    
C8    C20   S    
C19   H17   S    
O1    Zn1   S    
C21   H13   S    
C4    C17   S    
C12   C19   S    
C8    C10   S    
C6    H14   S    
C15   H7    S    
C2    C5    S    
C4    C10   T    
C6    C22   S    
C7    C9    S    
O6    Zn2   S    
C16   O7    A    
C2    H11   S    
C15   H8    S    
C12   O4    A    
C18   C19   D    
C14   H10   S    
C5    C7    S    
C1    C18   S    
C22   H1    S    
C13   H18   S    
O5    Zn1   S    
C16   O5    A    
O3    Zn2   S    
C14   C15   S    
C6    C21   S    
O4    Zn1   S    
C1    O1    A    
C2    C8    S    
C3    C16   S    
C13   H2    S    
C20   C22   S    
C13   H3    S    
