data_mof_unit_47235.cif
_audit_creation_date              2012-12-10T18:07:38-0500
_audit_creation_method            fapswitch 2.2
_symmetry_space_group_name_H-M    P1
_symmetry_Int_Tables_number       1
_space_group_crystal_system       triclinic
_cell_length_a                    11.545218
_cell_length_b                    12.601258
_cell_length_c                    13.146117
_cell_angle_alpha                 81.793027
_cell_angle_beta                  90.588563
_cell_angle_gamma                 102.592167
_cell_volume                      1847.00384137

loop_
_atom_site_label
_atom_site_type_symbol
_atom_type_description
_atom_site_fract_x
_atom_site_fract_y
_atom_site_fract_z
_atom_type_partial_charge
Br1   Br    Br    0.754584 0.134068 0.582181 -0.470385
C1    C     C_R   0.488762 0.437828 0.691962 0.902294
C2    C     C_R   0.669606 0.633914 0.903922 -0.245140
C3    C     C_R   0.628206 0.552577 0.843560 -0.125093
C4    C     C_R   0.717803 0.500894 0.500369 0.890609
C5    C     C_R   0.474039 0.532788 0.132756 -0.241281
C6    C     C_R   0.621577 0.692484 0.164325 -0.177889
C7    C     C_R   0.473586 0.398081 0.803182 -0.289852
C8    C     C_R   0.349054 0.093995 0.336894 -0.256584
C9    C     C_R   0.642550 0.798915 0.626585 -0.028312
C10   C     C_R   0.689994 0.906365 0.641134 -0.243010
C11   C     C_R   0.649033 0.992227 0.583954 0.282090
C12   C     C_R   0.532085 0.600876 0.200048 -0.057295
C13   C     C_R   0.550630 0.967905 0.517970 -0.059470
C14   C     C_R   0.513099 0.857374 0.499599 0.199103
C15   C     C_R   0.489292 0.046293 0.467606 -0.012162
C16   C     C_R   0.513439 0.561714 0.308898 0.846734
C17   C     C_R   0.407764 0.017156 0.389033 0.166641
C18   C     C_R   0.382526 0.910708 0.365556 -0.243688
C19   C     C_R   0.431802 0.831324 0.422294 -0.171711
C20   C     C_R   0.498278 0.150245 0.496727 0.067612
C21   C     C_R   0.368088 0.197785 0.365530 0.041828
C22   C     C_R   0.282174 0.498985 0.499924 0.889211
C23   C     C_R   0.386147 0.302702 0.840527 0.338909
C24   C     C_1   0.838816 0.502257 0.500936 -0.140693
C25   C     C_1   0.940814 0.500982 0.500821 0.042176
C26   C     C_1   0.059067 0.498468 0.500266 0.038017
C27   C     C_1   0.161109 0.497378 0.499861 -0.146258
C28   C     C_R   0.662295 0.707714 0.062866 -0.177883
C29   C     C_R   0.321403 0.303289 0.930756 0.407533
C30   C     C_R   0.359606 0.387104 0.990243 -0.358341
C31   C     C_R   0.465368 0.467520 0.965540 0.019818
C32   C     C_R   0.523023 0.472288 0.870732 0.050498
C33   C     C_R   0.514303 0.544845 0.031236 0.140230
C34   C     C_R   0.613988 0.630811 0.997988 0.165998
H1    H     H_    0.666621 0.746273 0.216569 0.168821
H2    H     H_    0.405866 0.463648 0.165079 0.148820
H3    H     H_    0.304567 0.387476 0.055739 0.200030
H4    H     H_    0.679285 0.552869 0.774852 0.148375
H5    H     H_    0.325074 0.259171 0.325257 0.144271
H6    H     H_    0.311542 0.005826 0.825557 0.377094
H7    H     H_    0.047582 0.102391 0.895940 0.385362
H8    H     H_    0.320406 0.887493 0.305969 0.169519
H9    H     H_    0.288507 0.073687 0.275494 0.189187
H10   H     H_    0.547001 0.175306 0.561987 0.209751
H11   H     H_    0.678999 0.733203 0.666985 0.150190
H12   H     H_    0.764031 0.923076 0.692040 0.188200
H13   H     H_    0.405136 0.750009 0.403510 0.208634
H14   H     H_    0.748652 0.696186 0.879221 0.148738
H15   H     H_    0.736966 0.774660 0.037479 0.155819
N1    N     N_R   0.440320 0.222190 0.444690 -0.113716
N2    N     N_R   0.559060 0.776980 0.554780 -0.124137
O1    O     O_R   0.471500 0.366730 0.627160 -0.531571
O2    O     O_2   0.490739 0.174590 0.743935 -0.314961
O3    O     O_3   0.319351 0.067228 0.866343 -0.470353
O4    O     O_2   0.215500 0.111796 0.040223 -0.271353
O5    O     O_2   0.107970 0.260049 0.025950 -0.304521
O6    O     O_3   0.114951 0.161784 0.866774 -0.467658
O7    O     O_R   0.509620 0.544830 0.662520 -0.621719
O8    O     O_R   0.646490 0.410960 0.482310 -0.585210
O9    O     O_R   0.684610 0.589050 0.517670 -0.626462
O10   O     O_R   0.490380 0.455170 0.337480 -0.618116
O11   O     O_R   0.528500 0.633270 0.372840 -0.637876
O12   O     O_R   0.315390 0.410950 0.482330 -0.588163
O13   O     O_R   0.353510 0.589040 0.517690 -0.631273
O14   O     O_2   0.287705 0.185526 0.693871 -0.257715
S1    S     S_3+6 0.370851 0.181269 0.782393 0.084007
S2    S     S_3+6 0.187246 0.207011 0.969351 0.074239
Zn1   Zn    Zn3+2 0.474550 0.381080 0.476390 1.028991
Zn2   Zn    Zn3+2 0.525450 0.618920 0.523610 0.940502

loop_
_geom_bond_atom_site_label_1
_geom_bond_atom_site_label_2
_ccdc_geom_bond_type
O9    Zn2   S    
C9    H11   S    
C6    C12   A    
O3    S1    S    
C10   C11   A    
C3    H4    S    
C15   C20   A    
C6    C28   A    
C12   C16   S    
C16   O10   A    
N1    Zn1   S    
C6    H1    S    
C28   C34   A    
C10   H12   S    
C30   C31   A    
C23   S1    S    
C30   H3    S    
C2    C34   A    
C7    C32   A    
O1    Zn1   S    
C31   C32   A    
H7    O6    S    
O14   S1    D    
C2    H14   S    
C5    H2    S    
C9    N2    A    
O4    S2    D    
O12   Zn1   S    
C16   O11   A    
C5    C12   A    
C22   O13   A    
C25   C26   S    
C19   H13   S    
Br1   C11   S    
O8    Zn1   S    
C4    C24   S    
O6    S2    S    
C22   O12   A    
C1    O7    A    
C11   C13   A    
C33   C34   A    
C20   H10   S    
C28   H15   S    
C29   C30   A    
C13   C15   A    
C8    C21   A    
C23   C29   A    
C22   C27   S    
C9    C10   A    
C3    C32   A    
O7    Zn2   S    
C4    O9    A    
O13   Zn2   S    
C5    C33   A    
C8    C17   A    
C20   N1    A    
N2    Zn2   S    
C21   H5    S    
C15   C17   A    
C17   C18   A    
C1    C7    S    
C26   C27   T    
O11   Zn2   S    
C13   C14   A    
H6    O3    S    
C8    H9    S    
O2    S1    D    
O5    S2    D    
C4    O8    A    
C7    C23   A    
C24   C25   T    
C14   N2    A    
C14   C19   A    
C29   S2    S    
C2    C3    A    
C18   C19   A    
O10   Zn1   S    
C18   H8    S    
C21   N1    A    
C1    O1    A    
C31   C33   A    
