data_mof_unit_45563.cif
_audit_creation_date              2012-12-10T20:43:59-0500
_audit_creation_method            fapswitch 2.2
_symmetry_space_group_name_H-M    P1
_symmetry_Int_Tables_number       1
_space_group_crystal_system       triclinic
_cell_length_a                    17.328363
_cell_length_b                    10.661562
_cell_length_c                    9.865793
_cell_angle_alpha                 90.155187
_cell_angle_beta                  90.682269
_cell_angle_gamma                 90.460113
_cell_volume                      1822.4846114

loop_
_atom_site_label
_atom_site_type_symbol
_atom_type_description
_atom_site_fract_x
_atom_site_fract_y
_atom_site_fract_z
_atom_type_partial_charge
C1    C     C_R   0.497539 0.259831 0.499834 0.881426
C2    C     C_R   0.884863 0.599344 0.507653 0.141266
C3    C     C_1   0.966262 0.609975 0.506224 -0.046136
C4    C     C_1   0.034778 0.605535 0.506595 0.039511
C5    C     C_R   0.147973 0.509528 0.610976 0.165326
C6    C     C_R   0.225853 0.479479 0.604506 -0.201025
C7    C     C_R   0.270838 0.525238 0.498865 -0.131179
C8    C     C_R   0.238568 0.602626 0.399288 -0.361935
C9    C     C_R   0.159735 0.630184 0.400632 0.480957
C10   C     C_R   0.115546 0.585473 0.508680 0.024590
C11   C     C_R   0.479412 0.064069 0.621874 0.127694
C12   C     C_R   0.353210 0.502972 0.499437 0.895733
C13   C     C_R   0.484245 0.128316 0.499540 -0.108512
C14   C     C_R   0.472454 0.063906 0.376801 -0.211161
C15   C     C_R   0.470675 0.934310 0.377123 -0.260705
C16   C     C_R   0.482433 0.870885 0.499884 -0.097626
C17   C     C_R   0.478562 0.936124 0.621945 0.145035
C18   C     C_3   0.528003 0.928889 0.746631 -0.498069
C19   C     C_3   0.529525 0.071074 0.746235 -0.475507
C20   C     C_R   0.464187 0.405591 0.068471 0.100662
C21   C     C_R   0.543481 0.585492 0.074737 0.515282
C22   C     C_R   0.542576 0.585258 0.928767 -0.264964
C23   C     C_R   0.496766 0.739985 0.500008 0.880201
C24   C     C_R   0.467291 0.403208 0.927008 0.104450
C25   C     C_3   0.387804 0.353992 0.909497 -0.568210
C26   C     C_3   0.380828 0.360977 0.064210 0.626736
C27   C     C_R   0.647030 0.504361 0.500791 0.875623
C28   C     C_R   0.845208 0.589246 0.631018 0.235030
C29   C     C_R   0.767591 0.554043 0.627453 -0.217340
C30   C     C_R   0.729748 0.530285 0.503276 -0.089129
C31   C     C_R   0.769761 0.543429 0.381496 -0.185032
C32   C     C_R   0.847116 0.577427 0.383947 -0.219725
H1    H     H_    0.466270 0.885037 0.281173 0.167218
H2    H     H_    0.495530 0.888908 0.832901 0.197062
H3    H     H_    0.585315 0.886294 0.728004 0.207112
H4    H     H_    0.499198 0.112763 0.833934 0.209279
H5    H     H_    0.587649 0.111419 0.726113 0.206583
H6    H     H_    0.576084 0.652464 0.872307 0.164076
H7    H     H_    0.350258 0.420220 0.853181 0.200433
H8    H     H_    0.387961 0.257187 0.867500 0.189923
H9    H     H_    0.736735 0.546472 0.722082 0.166425
H10   H     H_    0.741464 0.527290 0.284438 0.186769
H11   H     H_    0.878156 0.583157 0.289343 0.151233
H12   H     H_    0.251547 0.420434 0.681640 0.147520
H13   H     H_    0.275235 0.643950 0.323156 0.164068
H14   H     H_    0.470332 0.112206 0.280530 0.222094
N1    N     N_R   0.499490 0.499140 0.142800 -0.167168
N2    N     N_R   0.499490 0.499180 0.857150 -0.109049
O1    O     O_R   0.500010 0.316790 0.614690 -0.610916
O2    O     O_R   0.500000 0.316760 0.385350 -0.602085
O3    O     O_R   0.389120 0.500020 0.614710 -0.616977
O4    O     O_R   0.389110 0.499990 0.385370 -0.615028
O5    O     O_R   0.500000 0.683240 0.614650 -0.620875
O6    O     O_R   0.499990 0.683210 0.385310 -0.593710
O7    O     O_R   0.610890 0.500010 0.614630 -0.623127
O8    O     O_R   0.610880 0.499980 0.385290 -0.573452
Zn1   Zn    Zn3+2 0.500010 0.500020 0.653130 0.943199
Zn2   Zn    Zn3+2 0.499990 0.499980 0.346870 0.994949
C33   C     C_3   0.883155 0.612558 0.767343 -0.953002
H15   H     H_    0.943320 0.647623 0.759387 0.248104
H16   H     H_    0.850006 0.684061 0.823808 0.244659
H17   H     H_    0.883631 0.524158 0.826575 0.245542
O9    O     O_3   0.592709 0.661943 0.151535 -0.581202
C34   C     C_3   0.599606 0.785487 0.100956 0.095177
H18   H     H_    0.595517 0.850875 0.188239 0.176600
H19   H     H_    0.552587 0.812869 0.029652 0.099054
C35   C     C_3   0.678836 0.805422 0.038412 -0.878471
H20   H     H_    0.688330 0.738669 0.953983 0.241417
H21   H     H_    0.683494 0.902570 0.998876 0.223426
H22   H     H_    0.724598 0.791254 0.116557 0.264688
C36   C     C_3   0.321067 0.458581 0.109965 -0.946632
H23   H     H_    0.300483 0.436041 0.212538 0.265638
H24   H     H_    0.345090 0.555470 0.107821 0.221501
H25   H     H_    0.269323 0.455096 0.042442 0.196878
O10   O     O_3   0.374185 0.241666 0.126942 -0.607318
C37   C     C_3   0.300620 0.186181 0.103722 0.112095
H26   H     H_    0.279396 0.198912 0.997762 0.135899
H27   H     H_    0.257899 0.226836 0.174199 0.157845
C38   C     C_3   0.305343 0.046061 0.131056 -0.859412
H28   H     H_    0.321156 0.029522 0.238865 0.267323
H29   H     H_    0.248512 0.000854 0.109648 0.218788
H30   H     H_    0.349433 0.002963 0.065095 0.247712
C39   C     C_3   0.100191 0.459183 0.725870 -0.919496
H31   H     H_    0.135310 0.402800 0.797896 0.232186
H32   H     H_    0.074762 0.538248 0.782934 0.239781
H33   H     H_    0.053000 0.398445 0.684986 0.251180
O11   O     O_3   0.125265 0.707447 0.304330 -0.607141
C40   C     C_3   0.144950 0.671050 0.171240 0.093864
H34   H     H_    0.145460 0.566972 0.158948 0.134652
H35   H     H_    0.202298 0.710670 0.144452 0.149736
C41   C     C_3   0.085590 0.723231 0.072064 -0.818587
H36   H     H_    0.083610 0.827037 0.080877 0.260008
H37   H     H_    0.101454 0.697965 0.966834 0.205282
H38   H     H_    0.027598 0.683540 0.093892 0.253400

loop_
_geom_bond_atom_site_label_1
_geom_bond_atom_site_label_2
_ccdc_geom_bond_type
C22   N2    A    
O11   C40   S    
C31   H10   S    
C37   C38   S    
C38   H30   S    
N2    Zn1   S    
C14   H14   S    
C11   C19   S    
C18   H3    S    
C28   C29   A    
C37   H27   S    
C19   H4    S    
C25   H8    S    
O6    Zn2   S    
C30   C31   A    
C5    C39   S    
C27   O7    A    
C15   C16   A    
C22   H6    S    
O1    Zn1   S    
C2    C32   A    
C18   C19   S    
C8    H13   S    
C19   H5    S    
C39   H31   S    
C8    C9    A    
O3    Zn1   S    
C1    O2    A    
C33   H15   S    
C6    H12   S    
C13   C14   A    
C27   C30   S    
C26   C36   S    
C12   O4    A    
C23   O5    A    
C7    C12   S    
C33   H16   S    
C35   H20   S    
O2    Zn2   S    
C34   C35   S    
C20   C24   A    
C7    C8    A    
C24   C25   S    
C41   H36   S    
C36   H24   S    
O5    Zn1   S    
C27   O8    A    
C16   C17   A    
C25   C26   S    
C38   H28   S    
C35   H21   S    
C34   H19   S    
O10   C37   S    
C29   C30   A    
C41   H37   S    
C24   N2    A    
C31   C32   A    
C40   C41   S    
C17   C18   S    
C37   H26   S    
C18   H2    S    
O4    Zn2   S    
C39   H32   S    
C40   H35   S    
C16   C23   S    
O7    Zn1   S    
C1    C13   S    
C4    C10   S    
C3    C4    T    
C12   O3    A    
C23   O6    A    
C38   H29   S    
C9    C10   A    
C28   C33   S    
C11   C17   A    
C33   H17   S    
C29   H9    S    
C36   H25   S    
C6    C7    A    
C35   H22   S    
C34   H18   S    
C2    C3    S    
C5    C10   A    
C9    O11   S    
N1    Zn2   S    
C11   C13   A    
C5    C6    A    
C20   C26   S    
C32   H11   S    
O8    Zn2   S    
C21   O9    S    
C20   N1    A    
O9    C34   S    
C36   H23   S    
C39   H33   S    
C40   H34   S    
C26   O10   S    
C14   C15   A    
C2    C28   A    
C21   N1    A    
C21   C22   A    
C1    O1    A    
C15   H1    S    
C25   H7    S    
C41   H38   S    
