data_mof_unit_34343.cif
_audit_creation_date              2012-10-26T19:59:33-0400
_audit_creation_method            fapswitch 2.2
_symmetry_space_group_name_H-M    P1
_symmetry_Int_Tables_number       1
_space_group_crystal_system       triclinic
_cell_length_a                    10.803171
_cell_length_b                    8.706243
_cell_length_c                    7.474096
_cell_angle_alpha                 102.949422
_cell_angle_beta                  94.82181
_cell_angle_gamma                 93.359742
_cell_volume                      680.499733258

loop_
_atom_site_label
_atom_site_type_symbol
_atom_type_description
_atom_site_fract_x
_atom_site_fract_y
_atom_site_fract_z
_atom_type_partial_charge
C1    C     C_R   0.496613 0.199779 0.453204 0.541069
C2    C     C_R   0.504085 0.800273 0.546773 0.538308
C3    C     C_R   0.737730 0.512071 0.500435 0.551776
C4    C     C_R   0.156845 0.730570 0.801430 -0.090382
C5    C     C_R   0.104921 0.823057 0.948647 -0.120100
C6    C     C_R   0.976612 0.822256 0.947613 -0.105121
C7    C     C_R   0.899572 0.732293 0.797804 -0.078927
C8    C     C_R   0.949401 0.628350 0.651968 -0.010391
C9    C     C_1   0.625293 0.650447 0.072553 0.471086
C10   C     C_3   0.828815 0.208388 0.189467 0.006538
C11   C     C_3   0.744525 0.127312 0.016506 -0.346024
C12   C     C_R   0.080568 0.627021 0.654648 0.011425
C13   C     C_R   0.130886 0.526791 0.506529 -0.049270
C14   C     C_R   0.053754 0.443424 0.352075 -0.132043
C15   C     C_R   0.926022 0.444432 0.347252 0.234917
C16   C     C_R   0.872618 0.530222 0.500300 0.003249
C17   C     C_2   0.495549 0.031887 0.427011 -0.153919
C18   C     C_2   0.505898 0.968177 0.572837 -0.156411
C19   C     C_R   0.263397 0.509398 0.502874 0.540030
Cu1   Cu    Cu3+1 0.513920 0.517380 0.684380 0.942915
Cu2   Cu    Cu3+1 0.486080 0.482620 0.315620 0.974997
H1    H     H_    0.092471 0.373341 0.234058 0.147060
H2    H     H_    0.916838 0.148650 0.191888 0.107617
H3    H     H_    0.792697 0.130740 0.891684 0.152490
H4    H     H_    0.720094 0.002288 0.018588 0.103309
H5    H     H_    0.657285 0.188232 0.009976 0.184557
H6    H     H_    0.256745 0.745669 0.804078 0.150617
H7    H     H_    0.164538 0.898487 0.061942 0.111460
H8    H     H_    0.936404 0.894273 0.061512 0.115856
H9    H     H_    0.801641 0.749845 0.797637 0.141152
H10   H     H_    0.486016 0.960343 0.286473 0.131173
H11   H     H_    0.515284 0.039729 0.713292 0.119746
H12   H     H_    0.400601 0.378406 0.948684 0.227443
H13   H     H_    0.780003 0.196549 0.311884 0.137175
N1    N     N_2   0.465100 0.456430 0.038520 -0.272065
N2    N     N_2   0.534900 0.543570 0.961480 -0.187855
N3    N     N_1   0.701301 0.740179 0.163623 -0.364942
O1    O     O_R   0.509050 0.286130 0.619770 -0.508611
O2    O     O_R   0.485540 0.256780 0.308360 -0.513071
O3    O     O_R   0.331410 0.514680 0.655740 -0.521033
O4    O     O_R   0.307900 0.485330 0.344330 -0.506486
O5    O     O_R   0.514460 0.743220 0.691640 -0.533367
O6    O     O_R   0.490950 0.713870 0.380230 -0.498996
O7    O     O_R   0.692100 0.514670 0.655670 -0.523086
O8    O     O_R   0.668590 0.485320 0.344260 -0.445487
O9    O     O_3   0.853966 0.368428 0.186513 -0.528378

loop_
_geom_bond_atom_site_label_1
_geom_bond_atom_site_label_2
_ccdc_geom_bond_type
C6    H8    S    
C10   O9    S    
C9    N2    S    
Cu1   O5    S    
C6    C7    A    
Cu2   N1    S    
C10   H2    S    
C2    C18   S    
C5    H7    S    
Cu1   O1    S    
C1    C17   S    
N1    N2    D    
C15   O9    S    
C2    O6    A    
C8    C12   A    
C14   H1    S    
C9    N3    T    
C17   C18   D    
C7    C8    A    
C10   H13   S    
C7    H9    S    
C13   C14   A    
C12   C13   A    
C1    O1    A    
C2    O5    A    
Cu2   O4    S    
Cu1   O7    S    
C17   H10   S    
Cu2   O8    S    
C5    C6    A    
Cu1   O3    S    
C3    O7    A    
C4    C12   A    
C10   C11   S    
C11   H4    S    
C15   C16   A    
Cu1   N2    S    
C11   H3    S    
C4    H6    S    
C18   H11   S    
Cu1   Cu2   S    
C8    C16   A    
C19   O3    A    
C1    O2    A    
C14   C15   A    
C13   C19   S    
C11   H5    S    
H12   N1    S    
Cu2   O6    S    
C3    O8    A    
C3    C16   S    
C19   O4    A    
C4    C5    A    
Cu2   O2    S    
