data_mof_unit_62803.cif
_audit_creation_date              2012-12-10T19:17:24-0500
_audit_creation_method            fapswitch 2.2
_symmetry_space_group_name_H-M    P1
_symmetry_Int_Tables_number       1
_space_group_crystal_system       triclinic
_cell_length_a                    16.023174
_cell_length_b                    14.78475
_cell_length_c                    15.940074
_cell_angle_alpha                 90.016709
_cell_angle_beta                  90.228737
_cell_angle_gamma                 90.183439
_cell_volume                      3776.13194166

loop_
_atom_site_label
_atom_site_type_symbol
_atom_type_description
_atom_site_fract_x
_atom_site_fract_y
_atom_site_fract_z
_atom_type_partial_charge
C1    C     C_R   0.341004 0.499831 0.500040 0.830806
C2    C     C_3   0.579476 0.504971 0.949473 -0.427765
C3    C     C_3   0.586217 0.520038 0.046481 -0.224764
C4    C     C_1   0.492013 0.498714 0.824071 0.199678
C5    C     C_1   0.497513 0.499106 0.175744 0.072354
C6    C     C_1   0.498811 0.499787 0.250935 -0.002648
C7    C     C_R   0.955624 0.504086 0.423178 -0.077830
C8    C     C_R   0.956400 0.500128 0.577551 -0.073076
C9    C     C_R   0.912634 0.504318 0.500456 -0.032437
C10   C     C_R   0.044445 0.495750 0.577373 -0.066055
C11   C     C_R   0.043655 0.499665 0.422991 -0.079079
C12   C     C_R   0.087418 0.495528 0.500084 -0.031602
C13   C     C_1   0.822685 0.502247 0.500443 0.056396
C14   C     C_R   0.499904 0.499977 0.340036 0.833566
C15   C     C_1   0.177347 0.497677 0.500039 0.058272
C16   C     C_1   0.252201 0.499144 0.500039 -0.066737
C17   C     C_1   0.747819 0.500834 0.500296 -0.067674
C18   C     C_R   0.501948 0.952122 0.579486 0.372188
C19   C     C_R   0.500131 0.047945 0.579504 0.371817
C20   C     C_R   0.500600 0.902855 0.502709 -0.240462
C21   C     C_R   0.499435 0.097150 0.502720 -0.242460
C22   C     C_R   0.497592 0.951453 0.426536 0.307645
C23   C     C_R   0.500434 0.048493 0.426510 0.306450
C24   C     C_1   0.500195 0.802548 0.500957 0.313178
C25   C     C_1   0.499788 0.197454 0.500960 0.313134
C26   C     C_R   0.658995 0.500166 0.500089 0.828477
C27   C     C_R   0.499819 0.499994 0.660010 0.812357
C28   C     C_3   0.428405 0.572853 0.052194 0.187766
C29   C     C_3   0.464956 0.398223 0.050905 0.211359
C30   C     C_3   0.451198 0.400864 0.948940 -0.214592
C31   C     C_3   0.432583 0.582010 0.950023 -0.278428
C32   C     C_1   0.496329 0.499758 0.749006 0.000510
C33   C     C_3   0.495053 0.497901 0.083131 -0.129770
C34   C     C_3   0.486911 0.496916 0.916435 -0.078404
Cu1   Cu    Cu3+1 0.500000 0.589220 0.500020 1.061689
Cu2   Cu    Cu3+1 0.500000 0.410780 0.500020 1.060149
H1    H     H_    0.616929 0.554596 0.913895 0.274672
H2    H     H_    0.612021 0.441761 0.932755 0.257555
N1    N     N_1   0.499980 0.276710 0.500030 -0.147685
N2    N     N_1   0.499980 0.723290 0.500030 -0.147843
O1    O     O_R   0.380310 0.575320 0.500040 -0.572613
O2    O     O_R   0.380310 0.424680 0.500040 -0.557629
O3    O     O_R   0.500000 0.575380 0.379460 -0.548387
O4    O     O_R   0.500000 0.424620 0.379460 -0.554337
O5    O     O_R   0.619690 0.575360 0.500000 -0.558027
O6    O     O_R   0.619690 0.424640 0.500000 -0.575566
O7    O     O_R   0.500000 0.575310 0.620580 -0.575387
O8    O     O_R   0.500000 0.424690 0.620580 -0.569120
C35   C     C_2   0.344723 0.587307 0.909160 0.836208
O9    O     O_2   0.286392 0.620576 0.947699 -0.495608
O10   O     O_R   0.333868 0.569620 0.823597 -0.745939
H3    H     H_    0.274485 0.579990 0.803685 0.353812
C36   C     C_2   0.360396 0.387498 0.916740 0.880166
O11   O     O_2   0.302737 0.366658 0.962877 -0.479715
O12   O     O_R   0.345410 0.388588 0.830078 -0.736829
H4    H     H_    0.284882 0.376151 0.815101 0.373072
O13   O     O_3   0.490599 0.902244 0.353127 -0.681972
H5    H     H_    0.460972 0.939269 0.310770 0.352762
O14   O     O_3   0.505499 0.097645 0.352990 -0.669305
H6    H     H_    0.534019 0.060588 0.310103 0.353720
O15   O     O_3   0.348760 0.542773 0.079102 -0.636350
H7    H     H_    0.323319 0.500794 0.038851 0.396316
O16   O     O_3   0.388536 0.373355 0.088906 -0.638192
H8    H     H_    0.391589 0.379921 0.150711 0.374998
C37   C     C_2   0.527324 0.324783 0.081345 0.897478
O17   O     O_2   0.517612 0.289933 0.150326 -0.521113
O18   O     O_R   0.596028 0.297938 0.033425 -0.759628
H9    H     H_    0.631014 0.249902 0.062092 0.366744
C38   C     C_2   0.437264 0.663504 0.101280 0.971366
O19   O     O_2   0.394772 0.675019 0.164143 -0.494866
O20   O     O_R   0.492040 0.732852 0.078353 -0.742163
H10   H     H_    0.490040 0.786756 0.117649 0.368372
C39   C     C_2   0.492334 0.318313 0.906389 0.905369
O21   O     O_2   0.468059 0.242131 0.924691 -0.499692
O22   O     O_R   0.554647 0.327435 0.845659 -0.760490
H11   H     H_    0.574477 0.267119 0.823110 0.365867
C40   C     C_2   0.469050 0.673079 0.918772 0.933707
O23   O     O_2   0.430708 0.743339 0.931742 -0.497487
O24   O     O_R   0.539241 0.677202 0.867087 -0.742579
H12   H     H_    0.553621 0.741115 0.849028 0.371395
C41   C     C_2   0.617671 0.614854 0.068342 0.903689
O25   O     O_2   0.624015 0.637247 0.142126 -0.547268
O26   O     O_R   0.645239 0.674673 0.006264 -0.700083
H13   H     H_    0.666234 0.734157 0.030102 0.371663
C42   C     C_2   0.657830 0.462260 0.081950 0.890051
O27   O     O_2   0.659236 0.440219 0.155938 -0.563789
O28   O     O_R   0.726573 0.441660 0.031464 -0.718265
H14   H     H_    0.770702 0.405517 0.062372 0.357022
C43   C     C_2   0.090268 0.503598 0.342303 0.919788
O29   O     O_2   0.146665 0.450099 0.328599 -0.543863
O30   O     O_R   0.069548 0.568755 0.282214 -0.713636
H15   H     H_    0.105470 0.564561 0.230148 0.372073
C44   C     C_2   0.091905 0.495632 0.658055 0.904034
O31   O     O_2   0.148511 0.441593 0.669229 -0.568374
O32   O     O_R   0.071751 0.557615 0.721030 -0.719031
H16   H     H_    0.108170 0.550758 0.772786 0.352298
C45   C     C_2   0.908184 0.504261 0.342504 0.919144
O33   O     O_2   0.851779 0.558526 0.331260 -0.539976
O34   O     O_R   0.928111 0.442077 0.279623 -0.719555
H17   H     H_    0.891600 0.448875 0.227920 0.359101
C46   C     C_2   0.909785 0.496086 0.658225 0.911439
O35   O     O_2   0.853340 0.549517 0.671960 -0.557566
O36   O     O_R   0.930566 0.430906 0.718271 -0.719913
H18   H     H_    0.894659 0.435040 0.770352 0.360466
O37   O     O_3   0.500017 0.090235 0.656998 -0.622196
H19   H     H_    0.497396 0.156617 0.650171 0.324108
O38   O     O_3   0.504136 0.909891 0.656957 -0.623473
H20   H     H_    0.506650 0.843509 0.650077 0.323045

loop_
_geom_bond_atom_site_label_1
_geom_bond_atom_site_label_2
_ccdc_geom_bond_type
C27   O8    A    
O12   H4    S    
C29   O16   S    
C44   O31   D    
C3    C42   S    
C39   O21   D    
Cu2   O2    S    
C28   C38   S    
O28   H14   S    
Cu1   O7    S    
C22   O13   S    
C45   O33   D    
C40   O23   D    
C7    C11   A    
C46   O35   D    
C17   C26   S    
C19   C21   A    
C5    C6    T    
C8    C10   A    
C3    C33   S    
C15   C16   T    
C29   C33   S    
C18   C19   A    
C38   O20   S    
C9    C13   S    
C18   O38   S    
C26   O5    A    
C45   O34   S    
O32   H16   S    
C8    C9    A    
C37   O18   S    
C5    C33   S    
C3    C41   S    
O38   H20   S    
Cu2   O6    S    
C43   O30   S    
Cu1   O3    S    
C8    C46   S    
C28   O15   S    
C2    C34   S    
C40   O24   S    
O14   H6    S    
C44   O32   S    
C39   O22   S    
C38   O19   D    
C31   C35   S    
C41   O26   S    
C41   O25   D    
Cu2   O8    S    
C36   O12   S    
C30   C36   S    
C4    C34   S    
C30   C34   S    
C42   O28   S    
O18   H9    S    
C20   C24   S    
O30   H15   S    
C30   C39   S    
C10   C44   S    
C35   O10   S    
C42   O27   D    
O10   H3    S    
Cu1   Cu2   S    
C23   O14   S    
O22   H11   S    
C28   C31   S    
C29   C30   S    
C6    C14   S    
C2    H2    S    
O26   H13   S    
C12   C15   S    
C11   C43   S    
C31   C34   S    
C1    C16   S    
C4    C32   T    
C10   C12   A    
C29   C37   S    
C19   O37   S    
C1    O1    A    
C20   C22   A    
C28   C33   S    
C35   O9    D    
C21   C23   A    
Cu2   O4    S    
Cu1   O5    S    
C14   O4    A    
C27   O7    A    
C7    C9    A    
C21   C25   S    
C31   C40   S    
C7    C45   S    
C27   C32   S    
Cu2   N1    S    
O16   H8    S    
C11   C12   A    
C36   O11   D    
O37   H19   S    
O34   H17   S    
C13   C17   T    
Cu1   N2    S    
O20   H10   S    
C25   N1    T    
C2    H1    S    
O13   H5    S    
C24   N2    T    
C2    C3    S    
C18   C20   A    
O15   H7    S    
Cu1   O1    S    
C26   O6    A    
O24   H12   S    
C1    O2    A    
C46   O36   S    
C37   O17   D    
O36   H18   S    
C22   C23   A    
C43   O29   D    
C14   O3    A    
