data_mof_unit_47111.cif
_audit_creation_date              2012-12-11T15:34:23-0500
_audit_creation_method            fapswitch 2.2
_symmetry_space_group_name_H-M    P1
_symmetry_Int_Tables_number       1
_space_group_crystal_system       triclinic
_cell_length_a                    15.068807
_cell_length_b                    15.076674
_cell_length_c                    34.954324
_cell_angle_alpha                 90.544712
_cell_angle_beta                  89.98183
_cell_angle_gamma                 60.024187
_cell_volume                      6878.51506393

loop_
_atom_site_label
_atom_site_type_symbol
_atom_type_description
_atom_site_fract_x
_atom_site_fract_y
_atom_site_fract_z
_atom_type_partial_charge
C1    C     C_R   0.302658 0.608228 0.555777 0.543152
C2    C     C_R   0.642397 0.661039 0.670766 0.048095
C3    C     C_R   0.238036 0.673966 0.269709 -0.117715
C4    C     C_R   0.174108 0.652003 0.292007 0.026987
C5    C     C_R   0.105669 0.627648 0.274208 -0.120630
C6    C     C_R   0.098764 0.628760 0.234454 -0.116868
C7    C     C_R   0.161102 0.653124 0.212099 0.028394
C8    C     C_R   0.199817 0.564841 0.354314 -0.121449
C9    C     C_R   0.229677 0.555051 0.392465 -0.127715
C10   C     C_R   0.214698 0.722862 0.390758 -0.126089
C11   C     C_R   0.185442 0.732274 0.352633 -0.124709
C12   C     C_R   0.182565 0.651336 0.333776 0.030017
C13   C     C_R   0.552817 0.727990 0.649981 -0.003128
C14   C     C_R   0.242333 0.631865 0.410366 0.022343
C15   C     C_R   0.736074 0.025347 0.943312 0.545511
C16   C     C_R   0.745697 0.722733 0.945204 0.547893
C17   C     C_R   0.038108 0.734076 0.948296 0.543815
C18   C     C_R   0.723419 0.037869 0.053124 0.542273
C19   C     C_R   0.733583 0.734647 0.054791 0.542551
C20   C     C_R   0.027224 0.744956 0.057916 0.544172
C21   C     C_R   0.547699 0.708339 0.611016 -0.108336
C22   C     C_R   0.660193 0.671126 0.790353 0.357731
C23   C     C_R   0.649240 0.666039 0.712922 0.347336
C24   C     C_R   0.753487 0.595604 0.851146 -0.120226
C25   C     C_R   0.773768 0.607702 0.889158 -0.130474
C26   C     C_R   0.624781 0.778010 0.890459 -0.122978
C27   C     C_R   0.604792 0.766074 0.852470 -0.105804
C28   C     C_R   0.671277 0.676393 0.832025 0.042189
C29   C     C_R   0.610348 0.588392 0.555325 0.544452
C30   C     C_R   0.711907 0.700632 0.908640 0.023599
C31   C     C_R   0.723682 0.072410 0.905474 0.022901
C32   C     C_R   0.631403 0.107749 0.885430 -0.116720
C33   C     C_R   0.626802 0.129326 0.846575 -0.092722
C34   C     C_R   0.714294 0.115647 0.827265 0.047661
C35   C     C_R   0.804094 0.088401 0.847662 -0.112672
C36   C     C_R   0.808864 0.066863 0.886591 -0.123558
C37   C     C_R   0.720317 0.205119 0.769233 -0.140458
C38   C     C_R   0.712951 0.218560 0.729749 -0.121058
C39   C     C_R   0.698033 0.151535 0.705988 0.000944
C40   C     C_R   0.590351 0.300604 0.553594 0.543481
C41   C     C_R   0.694103 0.068817 0.722144 -0.095489
C42   C     C_R   0.702537 0.054301 0.761665 0.098436
C43   C     C_R   0.713067 0.124476 0.785486 0.026224
C44   C     C_R   0.596151 0.174290 0.646933 -0.117814
C45   C     C_R   0.569943 0.210018 0.609607 -0.126076
C46   C     C_R   0.717567 0.233563 0.606438 -0.125690
C47   C     C_R   0.743115 0.198752 0.643787 -0.119385
C48   C     C_R   0.680788 0.172022 0.664722 0.031459
C49   C     C_R   0.628489 0.243324 0.589496 0.020949
C50   C     C_R   0.091015 0.697781 0.911102 0.022083
C51   C     C_R   0.299474 0.610626 0.446336 0.544215
C52   C     C_R   0.120654 0.759034 0.890901 -0.123777
C53   C     C_R   0.143651 0.741848 0.852022 -0.120159
C54   C     C_R   0.138576 0.662521 0.832763 0.033684
C55   C     C_R   0.118559 0.595243 0.853544 -0.112200
C56   C     C_R   0.094706 0.612847 0.892489 -0.123618
C57   C     C_R   0.208967 0.562344 0.772038 -0.111592
C58   C     C_R   0.217816 0.558199 0.732223 -0.108017
C59   C     C_R   0.162540 0.647430 0.710501 0.030961
C60   C     C_R   0.095975 0.740119 0.729261 -0.106249
C61   C     C_R   0.087854 0.744357 0.769004 -0.098350
C62   C     C_R   0.608137 0.589928 0.445399 0.542588
C63   C     C_R   0.145599 0.655909 0.790709 0.031410
C64   C     C_R   0.192291 0.723653 0.652232 -0.118518
C65   C     C_R   0.224806 0.715026 0.614382 -0.124338
C66   C     C_R   0.229663 0.552426 0.608320 -0.126684
C67   C     C_R   0.196754 0.561279 0.646201 -0.118349
C68   C     C_R   0.181126 0.645312 0.668878 0.033469
C69   C     C_R   0.247423 0.627554 0.592487 0.021579
C70   C     C_R   0.692775 0.719594 0.090979 0.021050
C71   C     C_R   0.608440 0.802392 0.109164 -0.127987
C72   C     C_R   0.583462 0.794102 0.146925 -0.122848
C73   C     C_R   0.588338 0.302086 0.444005 0.543135
C74   C     C_R   0.642156 0.702855 0.167042 0.031721
C75   C     C_R   0.721778 0.617989 0.147902 -0.120152
C76   C     C_R   0.746699 0.626209 0.110240 -0.126099
C77   C     C_R   0.639093 0.608318 0.224932 -0.120232
C78   C     C_R   0.639354 0.598709 0.264515 -0.118146
C79   C     C_R   0.627291 0.679079 0.288588 0.027406
C80   C     C_R   0.611045 0.770816 0.272520 -0.118384
C81   C     C_R   0.611777 0.780148 0.232827 -0.115133
C82   C     C_R   0.627652 0.698209 0.208674 0.028687
C83   C     C_R   0.554084 0.738560 0.354090 -0.122825
C84   C     C_R   0.628276 0.622873 0.592598 0.007850
C85   C     C_R   0.550471 0.717600 0.392705 -0.127361
C86   C     C_R   0.708076 0.555403 0.384930 -0.127586
C87   C     C_R   0.711033 0.575970 0.346344 -0.124189
C88   C     C_R   0.632084 0.665827 0.330364 0.030069
C89   C     C_R   0.625328 0.623925 0.408098 0.022061
C90   C     C_R   0.702748 0.094020 0.089740 0.021644
C91   C     C_R   0.782434 0.099681 0.108413 -0.127306
C92   C     C_R   0.773231 0.126964 0.146968 -0.124866
C93   C     C_R   0.683889 0.150167 0.167279 0.030241
C94   C     C_R   0.600504 0.154307 0.147821 -0.120479
C95   C     C_R   0.719076 0.562072 0.612510 -0.139143
C96   C     C_R   0.609886 0.126253 0.109273 -0.127512
C97   C     C_R   0.596600 0.238155 0.228026 -0.131158
C98   C     C_R   0.592722 0.242583 0.267775 -0.131724
C99   C     C_R   0.673244 0.167358 0.289326 0.038453
C100  C     C_R   0.759372 0.086819 0.270775 0.005810
C101  C     C_R   0.762833 0.083595 0.230699 -0.096770
C102  C     C_R   0.681713 0.158904 0.209245 0.012820
C103  C     C_R   0.724515 0.214031 0.349533 -0.138441
C104  C     C_R   0.704656 0.246886 0.387458 -0.138226
C105  C     C_R   0.570929 0.202304 0.390097 -0.110683
C106  C     C_R   0.726083 0.581201 0.651063 -0.133422
C107  C     C_R   0.591201 0.167719 0.352050 0.008601
C108  C     C_R   0.665960 0.177916 0.331203 0.046787
C109  C     C_R   0.624597 0.245644 0.407502 0.007498
C110  C     C_R   0.081597 0.709934 0.094385 0.022594
C111  C     C_R   0.094323 0.620083 0.111219 -0.127824
C112  C     C_R   0.126114 0.598058 0.149056 -0.123238
C113  C     C_R   0.145642 0.665490 0.170513 0.031803
C114  C     C_R   0.140463 0.751057 0.152768 -0.122256
C115  C     C_R   0.109003 0.772947 0.114962 -0.127127
C116  C     C_R   0.231842 0.674197 0.230043 -0.120776
Cr1   Cr    Cr6+3 0.421670 0.426920 0.499620 1.009986
Cr2   Cr    Cr6+3 0.427030 0.651190 0.500980 1.008851
Cr3   Cr    Cr6+3 0.651280 0.421870 0.499380 1.010242
Cr4   Cr    Cr6+3 0.910810 0.908010 0.001130 1.009936
Cr5   Cr    Cr6+3 0.682800 0.909890 0.998370 1.012497
Cr6   Cr    Cr6+3 0.908370 0.682300 0.002180 1.010952
H1    H     H_    0.782819 0.496137 0.598916 0.131176
H2    H     H_    0.881087 0.039732 0.901227 0.126674
H3    H     H_    0.809535 0.196199 0.656840 0.106962
H4    H     H_    0.715334 0.283446 0.717878 0.125965
H5    H     H_    0.729077 0.259116 0.787237 0.120577
H6    H     H_    0.556445 0.152061 0.831125 0.124895
H7    H     H_    0.684608 0.015502 0.704020 0.135330
H8    H     H_    0.546818 0.154271 0.662666 0.109544
H9    H     H_    0.501027 0.216504 0.597297 0.126319
H10   H     H_    0.871868 0.078612 0.833040 0.107396
H11   H     H_    0.477580 0.756334 0.595594 0.129009
H12   H     H_    0.764681 0.258064 0.591656 0.128037
H13   H     H_    0.119324 0.824609 0.904437 0.126512
H14   H     H_    0.072285 0.564238 0.907278 0.125808
H15   H     H_    0.186893 0.500728 0.658151 0.105680
H16   H     H_    0.270891 0.485975 0.718580 0.107049
H17   H     H_    0.253978 0.493305 0.788315 0.105331
H18   H     H_    0.161045 0.793327 0.836576 0.105690
H19   H     H_    0.051163 0.809623 0.713217 0.110294
H20   H     H_    0.036509 0.816916 0.782867 0.121779
H21   H     H_    0.181838 0.788863 0.669084 0.102678
H22   H     H_    0.841144 0.546485 0.902522 0.127784
H23   H     H_    0.237943 0.774144 0.603062 0.126263
H24   H     H_    0.114670 0.533315 0.839175 0.110097
H25   H     H_    0.245904 0.484369 0.592078 0.124513
H26   H     H_    0.565246 0.875345 0.095020 0.125997
H27   H     H_    0.811922 0.560978 0.096983 0.126381
H28   H     H_    0.772900 0.519735 0.328569 0.103017
H29   H     H_    0.649536 0.528128 0.276404 0.108444
H30   H     H_    0.649620 0.544721 0.207026 0.104301
H31   H     H_    0.520603 0.860135 0.160829 0.100431
H32   H     H_    0.601410 0.833719 0.290661 0.102314
H33   H     H_    0.796191 0.530196 0.665925 0.133327
H34   H     H_    0.604234 0.849817 0.221123 0.105338
H35   H     H_    0.492647 0.808539 0.342274 0.101204
H36   H     H_    0.485889 0.771994 0.409883 0.121881
H37   H     H_    0.769046 0.546900 0.162724 0.102066
H38   H     H_    0.767096 0.482732 0.395902 0.124768
H39   H     H_    0.854696 0.076101 0.094065 0.126135
H40   H     H_    0.547045 0.123075 0.095590 0.124717
H41   H     H_    0.526703 0.305009 0.281903 0.119107
H42   H     H_    0.533393 0.296719 0.211913 0.110961
H43   H     H_    0.837726 0.125099 0.161419 0.102127
H44   H     H_    0.827629 0.020938 0.216104 0.109296
H45   H     H_    0.781414 0.222863 0.333699 0.106987
H46   H     H_    0.747313 0.279915 0.400133 0.129811
H47   H     H_    0.530810 0.172124 0.163045 0.103122
H48   H     H_    0.510067 0.199354 0.405532 0.127331
H49   H     H_    0.074618 0.569601 0.095882 0.124679
H50   H     H_    0.100250 0.842557 0.102691 0.126550
H51   H     H_    0.170446 0.800396 0.337242 0.103117
H52   H     H_    0.805524 0.525135 0.836223 0.130577
H53   H     H_    0.293213 0.690417 0.283039 0.110857
H54   H     H_    0.281605 0.691814 0.213396 0.105719
H55   H     H_    0.131522 0.530561 0.162008 0.101192
H56   H     H_    0.056118 0.610201 0.291078 0.105067
H57   H     H_    0.042323 0.613978 0.221281 0.106534
H58   H     H_    0.197629 0.501765 0.340133 0.103418
H59   H     H_    0.249718 0.484401 0.407005 0.125593
H60   H     H_    0.154400 0.804711 0.168777 0.101453
H61   H     H_    0.222489 0.783886 0.403957 0.127535
H62   H     H_    0.575164 0.850265 0.904818 0.130312
H63   H     H_    0.539866 0.829090 0.838668 0.141116
H64   H     H_    0.564405 0.113287 0.899208 0.127332
N1    N     N_R   0.719698 0.583108 0.770505 -0.240106
N2    N     N_R   0.713965 0.580567 0.732581 -0.240545
N3    N     N_R   0.590378 0.754006 0.732832 -0.225994
N4    N     N_R   0.595604 0.756538 0.770747 -0.209055
O1    O     O_R   0.502070 0.323090 0.541280 -0.519741
O2    O     O_R   0.520720 0.641670 0.461580 -0.501420
O3    O     O_R   0.674120 0.502090 0.457500 -0.521976
O4    O     O_R   0.640110 0.338380 0.459630 -0.502688
O5    O     O_3   0.499990 0.499990 0.499990 -0.234587
O6    O     O_R   0.017640 0.822070 0.960410 -0.521339
O7    O     O_R   0.822000 0.989470 0.960340 -0.503130
O8    O     O_R   0.666920 0.007430 0.955290 -0.517984
O9    O     O_R   0.694410 0.812480 0.959650 -0.501642
O10   O     O_R   0.831550 0.656950 0.958960 -0.520881
O11   O     O_R   0.998590 0.685540 0.963930 -0.501927
O12   O     O_R   0.338340 0.520690 0.539540 -0.502195
O13   O     O_R   0.008220 0.831200 0.045060 -0.522075
O14   O     O_R   0.813270 0.997930 0.038810 -0.503493
O15   O     O_R   0.657500 0.016560 0.039940 -0.521448
O16   O     O_R   0.685680 0.820940 0.038120 -0.503229
O17   O     O_R   0.822130 0.666070 0.043610 -0.520633
O18   O     O_R   0.989860 0.694000 0.042400 -0.503011
O19   O     O_3   0.833990 0.833400 0.000560 -0.234686
O20   O     O_R   0.324760 0.674070 0.543580 -0.521971
O21   O     O_R   0.522400 0.640310 0.540110 -0.505420
O22   O     O_R   0.675940 0.500630 0.542210 -0.518329
O23   O     O_R   0.641790 0.337020 0.538150 -0.503212
O24   O     O_R   0.500260 0.324550 0.456580 -0.520760
O25   O     O_R   0.336660 0.522040 0.461020 -0.502689
O26   O     O_R   0.322940 0.675540 0.458880 -0.520801
I1    I     I_    0.703145 0.922888 0.783315 -0.396588
C117  C     C_3   0.529344 0.124378 0.334544 -0.414683
H65   H     H_    0.555857 0.092872 0.305317 0.140916
H66   H     H_    0.535895 0.061030 0.352506 0.124696
H67   H     H_    0.447580 0.185159 0.333166 0.124185
C118  C     C_3   0.459375 0.815867 0.668538 -0.384520
H68   H     H_    0.430973 0.787171 0.691972 0.155024
H69   H     H_    0.478319 0.873480 0.679779 0.163302
H70   H     H_    0.395566 0.855659 0.647955 0.105927
C119  C     C_3   0.845635 0.003308 0.293145 -0.403278
H71   H     H_    0.904729 0.943823 0.274019 0.127198
H72   H     H_    0.883330 0.036081 0.310992 0.128927
H73   H     H_    0.815126 0.965637 0.311934 0.142644

loop_
_geom_bond_atom_site_label_1
_geom_bond_atom_site_label_2
_ccdc_geom_bond_type
C51   O26   A    
C41   H7    S    
C55   C56   A    
C106  H33   S    
C103  H45   S    
C101  C102  A    
Cr1   O24   S    
C83   C88   A    
C6    H57   S    
C53   H18   S    
C41   C42   A    
C35   C36   A    
Cr5   O15   S    
C13   C118  S    
C87   C88   A    
C42   I1    S    
C24   H52   S    
C97   C98   A    
C57   C58   A    
C39   C41   A    
C98   H41   S    
C77   C78   A    
C44   C45   A    
C99   C108  S    
C105  C107  A    
C46   C49   A    
Cr3   O22   S    
Cr4   O6    S    
C81   H34   S    
C117  H67   S    
C18   O15   A    
C64   C68   A    
Cr6   O11   S    
C92   C93   A    
C36   H2    S    
C3    C116  A    
C31   C36   A    
C94   H47   S    
C5    C6    A    
C15   O7    A    
C66   C69   A    
C104  H46   S    
C54   C63   S    
C16   C30   S    
C40   C49   S    
C62   C89   S    
Cr4   O19   S    
C57   H17   S    
Cr1   O25   S    
C34   C35   A    
C27   H63   S    
C22   N1    A    
C61   C63   A    
C2    C13   A    
C110  C111  A    
Cr5   O9    S    
Cr1   O1    S    
C38   H4    S    
C46   C47   A    
Cr2   O2    S    
C92   H43   S    
C37   H5    S    
C47   C48   A    
C8    C9    A    
C112  H55   S    
C87   H28   S    
C40   O23   A    
C19   O16   A    
C50   C52   A    
C107  C108  A    
C29   O21   A    
C103  C108  A    
Cr5   O19   S    
C22   N4    A    
C103  C104  A    
C111  H49   S    
C97   C102  A    
C16   O10   A    
C76   H27   S    
C58   H16   S    
C66   C67   A    
C59   C60   A    
C90   C91   A    
C22   C28   S    
C73   O4    A    
C100  C119  S    
C19   O17   A    
C10   H61   S    
C112  C113  A    
N3    N4    A    
Cr5   O16   S    
C74   C82   S    
C1    O12   A    
C77   H30   S    
C21   H11   S    
C79   C88   S    
C56   H14   S    
C78   H29   S    
C57   C63   A    
Cr5   O8    S    
C47   H3    S    
C11   H51   S    
C105  H48   S    
C116  H54   S    
C67   C68   A    
C18   C90   S    
Cr6   O18   S    
C24   C25   A    
C29   C84   S    
C72   C74   A    
C74   C75   A    
C91   C92   A    
C15   O8    A    
C85   C89   A    
C78   C79   A    
C4    C5    A    
C55   H24   S    
C62   O2    A    
C118  H70   S    
C58   C59   A    
C53   C54   A    
C15   C31   S    
C2    C106  A    
C33   H6    S    
C81   C82   A    
C60   C61   A    
Cr3   O3    S    
C84   C95   A    
C7    C116  A    
C17   C50   S    
C44   H8    S    
C94   C96   A    
C75   C76   A    
C37   C38   A    
Cr1   O5    S    
C95   C106  A    
C60   H19   S    
C46   H12   S    
C107  C117  S    
C8    H58   S    
C117  H66   S    
C14   C51   S    
C83   H35   S    
C21   C84   A    
C45   C49   A    
C8    C12   A    
C97   H42   S    
C33   C34   A    
C26   C27   A    
C9    C14   A    
C13   C21   A    
C119  H71   S    
C93   C94   A    
C90   C96   A    
Cr2   O5    S    
C66   H25   S    
C70   C71   A    
C16   O9    A    
C20   C110  S    
C23   N2    A    
C3    H53   S    
C83   C85   A    
C45   H9    S    
C119  H72   S    
C10   C14   A    
Cr4   O14   S    
C73   O24   A    
C25   H22   S    
C4    C12   S    
C42   C43   A    
C20   O18   A    
C65   H23   S    
C3    C4    A    
C23   N3    A    
C75   H37   S    
C52   C53   A    
Cr6   O19   S    
C29   O22   A    
C113  C114  A    
C51   O25   A    
C25   C30   A    
C52   H13   S    
C105  C109  A    
C54   C55   A    
C118  H69   S    
C72   H31   S    
C111  C112  A    
C1    O20   A    
C86   C87   A    
Cr6   O17   S    
C31   C32   A    
C91   H39   S    
C34   C43   S    
C24   C28   A    
C20   O13   A    
C80   C81   A    
C17   O6    A    
C86   C89   A    
C93   C102  S    
C18   O14   A    
C11   C12   A    
C114  C115  A    
C6    C7    A    
C64   H21   S    
C17   O11   A    
C119  H73   S    
C99   C100  A    
C32   H64   S    
Cr2   O20   S    
Cr3   O4    S    
C64   C65   A    
C7    C113  S    
Cr3   O23   S    
N1    N2    A    
C114  H60   S    
C50   C56   A    
C32   C33   A    
C70   C76   A    
C117  H65   S    
C38   C39   A    
C40   O1    A    
C77   C82   A    
C65   C69   A    
C80   H32   S    
C35   H10   S    
C100  C101  A    
C96   H40   S    
C71   H26   S    
Cr3   O5    S    
C73   C109  S    
C101  H44   S    
C67   H15   S    
C1    C69   S    
C5    H56   S    
C9    H59   S    
C10   C11   A    
C79   C80   A    
Cr4   O7    S    
C44   C48   A    
C61   H20   S    
C115  H50   S    
C71   C72   A    
C110  C115  A    
C98   C99   A    
C85   H36   S    
C2    C23   S    
Cr4   O13   S    
C104  C109  A    
Cr2   O21   S    
C59   C68   S    
Cr2   O26   S    
C62   O3    A    
Cr6   O10   S    
C19   C70   S    
C86   H38   S    
C118  H68   S    
C37   C43   A    
Cr1   O12   S    
C95   H1    S    
C39   C48   S    
C27   C28   A    
C26   C30   A    
C26   H62   S    
