data_mof_unit_14678.cif
_audit_creation_date              2012-12-10T16:55:02-0500
_audit_creation_method            fapswitch 2.2
_symmetry_space_group_name_H-M    P1
_symmetry_Int_Tables_number       1
_space_group_crystal_system       triclinic
_cell_length_a                    9.71929
_cell_length_b                    10.946532
_cell_length_c                    15.49483
_cell_angle_alpha                 89.964313
_cell_angle_beta                  73.610494
_cell_angle_gamma                 90.3105
_cell_volume                      1581.51971943

loop_
_atom_site_label
_atom_site_type_symbol
_atom_type_description
_atom_site_fract_x
_atom_site_fract_y
_atom_site_fract_z
_atom_type_partial_charge
C1    C     C_R   0.000194 0.265421 0.498392 0.899743
C2    C     C_R   0.668590 0.463251 0.905130 0.058086
C3    C     C_R   0.758730 0.402404 0.949908 0.129454
C4    C     C_R   0.519891 0.480687 0.949574 0.075384
C5    C     C_R   0.466130 0.450664 0.042173 0.073981
C6    C     C_R   0.555761 0.386700 0.083696 -0.245869
C7    C     C_R   0.697068 0.360914 0.038122 -0.180949
C8    C     C_R   0.421969 0.523437 0.903862 -0.217965
C9    C     C_R   0.279173 0.544825 0.949139 -0.221231
C10   C     C_R   0.229245 0.527631 0.041731 0.174698
C11   C     C_R   0.322604 0.481796 0.089539 0.093576
C12   C     C_R   0.916748 0.497016 0.672079 0.818192
C13   C     C_R   0.086652 0.556336 0.087195 -0.112307
C14   C     C_R   0.036445 0.543259 0.180249 -0.154189
C15   C     C_R   0.270750 0.473480 0.183746 -0.241848
C16   C     C_2   0.883033 0.935989 0.517248 -0.092892
C17   C     C_2   0.002021 0.866454 0.494513 -0.320201
C18   C     C_2   0.896308 0.062555 0.485502 -0.079576
C19   C     C_2   0.995318 0.133678 0.507057 -0.329058
C20   C     C_2   0.398508 0.436716 0.556043 -0.051973
C21   C     C_2   0.548987 0.451146 0.563943 0.005213
C22   C     C_R   0.999158 0.734565 0.501982 0.897730
C23   C     C_R   0.083261 0.500747 0.327810 0.806905
C24   C     C_R   0.870079 0.477092 0.769668 -0.043948
C25   C     C_R   0.129337 0.504271 0.229099 -0.042776
C26   C     C_R   0.906047 0.381120 0.903226 -0.002590
C27   C     C_R   0.958202 0.417489 0.813128 -0.296416
C28   C     C_R   0.729412 0.504323 0.816645 -0.235509
Cu1   Cu    Cu3+1 0.138640 0.500020 0.499980 0.954286
Cu2   Cu    Cu3+1 0.861360 0.499980 0.500020 1.006301
H1    H     H_    0.754747 0.306290 0.073895 0.216237
H2    H     H_    0.014235 0.589733 0.050730 0.139453
H3    H     H_    0.104820 0.906920 0.458834 0.144566
H4    H     H_    0.067026 0.094467 0.542199 0.141371
H5    H     H_    0.330273 0.368951 0.598899 0.125457
H6    H     H_    0.571006 0.417022 0.624355 0.132259
H7    H     H_    0.636594 0.509088 0.438619 0.190499
H8    H     H_    0.340245 0.447697 0.223839 0.149750
H9    H     H_    0.207861 0.577109 0.911495 0.151310
H10   H     H_    0.067801 0.396620 0.775791 0.143283
H11   H     H_    0.669253 0.557614 0.781607 0.170146
H12   H     H_    0.517441 0.349669 0.150773 0.153883
H13   H     H_    0.450710 0.537515 0.832175 0.152197
N1    N     N_2   0.346430 0.498660 0.500980 -0.244461
N2    N     N_2   0.652550 0.498630 0.501000 -0.247706
O1    O     O_R   0.117050 0.321960 0.499980 -0.599073
O2    O     O_R   0.882890 0.321920 0.500020 -0.544995
O3    O     O_R   0.052910 0.500040 0.629810 -0.583721
O4    O     O_R   0.818750 0.499990 0.629840 -0.576568
O5    O     O_R   0.117110 0.678080 0.499980 -0.597710
O6    O     O_R   0.882950 0.678040 0.500020 -0.528158
O7    O     O_R   0.181250 0.500010 0.370160 -0.612240
O8    O     O_R   0.947090 0.499960 0.370190 -0.573006
C29   C     C_2   0.740998 0.895169 0.576131 0.456454
H14   H     H_    0.644452 0.942197 0.573209 0.046293
O9    O     O_2   0.730926 0.814872 0.632367 -0.521713
C30   C     C_2   0.805182 0.101387 0.427698 0.414674
H15   H     H_    0.705765 0.053077 0.431857 0.038474
O10   O     O_2   0.844227 0.181351 0.370921 -0.519655
C31   C     C_2   0.408637 0.613822 0.467260 0.596570
H16   H     H_    0.411165 0.641298 0.399575 0.019970
O11   O     O_2   0.448403 0.686155 0.515510 -0.564353
H17   H     H_    0.926629 0.567571 0.214182 0.149079
C32   C     C_2   0.011078 0.318153 0.941636 0.323680
H18   H     H_    0.105825 0.277277 0.896458 0.082488
O12   O     O_2   0.999085 0.315669 0.022066 -0.548984

loop_
_geom_bond_atom_site_label_1
_geom_bond_atom_site_label_2
_ccdc_geom_bond_type
C8    C9    A    
C2    C4    A    
Cu2   O6    S    
C8    H13   S    
C15   H8    S    
C23   O8    A    
Cu1   Cu2   S    
C12   C24   S    
C2    C3    A    
C9    C10   A    
Cu1   O1    S    
Cu2   N2    S    
C21   N2    D    
C17   C22   S    
C24   C27   A    
C12   O3    A    
C27   H10   S    
C22   O5    A    
C32   H18   S    
C31   H16   S    
C12   O4    A    
C23   O7    A    
Cu1   N1    S    
C21   H6    S    
C13   C14   A    
C4    C5    A    
C20   H5    S    
C26   C27   A    
C6    C7    A    
C17   H3    S    
N1    C31   S    
C14   H17   S    
C16   C18   S    
C20   N1    D    
Cu2   O4    S    
C5    C11   A    
C3    C7    A    
Cu1   O5    S    
C23   C25   S    
C14   C25   A    
C5    C6    A    
Cu2   O8    S    
C16   C29   S    
C1    O1    A    
C30   O10   D    
C7    H1    S    
C10   C11   A    
Cu1   O3    S    
H7    N2    S    
C18   C30   S    
C24   C28   A    
Cu2   O2    S    
C9    H9    S    
C20   C21   S    
C15   C25   A    
C31   O11   D    
C18   C19   D    
C6    H12   S    
C4    C8    A    
C26   C32   S    
C29   H14   S    
C22   O6    A    
C2    C28   A    
C13   H2    S    
C19   H4    S    
C30   H15   S    
C1    C19   S    
C11   C15   A    
C10   C13   A    
C3    C26   A    
C1    O2    A    
C28   H11   S    
C29   O9    D    
C16   C17   D    
Cu1   O7    S    
C32   O12   D    
