data_mof_unit_36383.cif
_audit_creation_date              2012-12-10T21:37:18-0500
_audit_creation_method            fapswitch 2.2
_symmetry_space_group_name_H-M    P1
_symmetry_Int_Tables_number       1
_space_group_crystal_system       triclinic
_cell_length_a                    16.103493
_cell_length_b                    15.739598
_cell_length_c                    16.882031
_cell_angle_alpha                 90.12734
_cell_angle_beta                  87.945748
_cell_angle_gamma                 91.999818
_cell_volume                      4273.60544085

loop_
_atom_site_label
_atom_site_type_symbol
_atom_type_description
_atom_site_fract_x
_atom_site_fract_y
_atom_site_fract_z
_atom_type_partial_charge
C1    C     C_R   0.510946 0.498443 0.347132 0.872351
C2    C     C_R   0.489104 0.497723 0.652888 0.870328
C3    C     C_R   0.445729 0.461957 0.221677 -0.228170
C4    C     C_R   0.555505 0.470697 0.778617 -0.230290
C5    C     C_R   0.450825 0.446553 0.141209 -0.163126
C6    C     C_R   0.550968 0.455312 0.859069 -0.164700
C7    C     C_R   0.527940 0.456045 0.099564 0.326941
C8    C     C_R   0.473527 0.455646 0.900600 0.327636
C9    C     C_R   0.599754 0.477173 0.140253 -0.195045
C10   C     C_R   0.401093 0.468453 0.859834 -0.192719
C11   C     C_R   0.594732 0.492176 0.221340 -0.219729
C12   C     C_R   0.405584 0.483409 0.778716 -0.215437
C13   C     C_R   0.236843 0.538423 0.540693 -0.014300
C14   C     C_R   0.763131 0.461538 0.459314 -0.015325
C15   C     C_R   0.149653 0.536277 0.538308 -0.273956
C16   C     C_R   0.850323 0.463650 0.461686 -0.273914
C17   C     C_R   0.109068 0.483145 0.483139 0.330252
C18   C     C_R   0.890935 0.516785 0.516833 0.330009
C19   C     C_R   0.158573 0.433795 0.432190 -0.300497
C20   C     C_R   0.841458 0.566167 0.567776 -0.300957
C21   C     C_R   0.245523 0.437893 0.436596 0.009706
C22   C     C_R   0.754508 0.562104 0.563383 0.007274
C23   C     C_R   0.500425 0.337807 0.499963 0.904634
C24   C     C_R   0.499576 0.662200 0.500033 0.908300
C25   C     C_3   0.539749 0.973166 0.434786 0.433737
C26   C     C_3   0.460284 0.026897 0.565175 0.433761
C27   C     C_3   0.462025 0.026732 0.436519 0.431765
C28   C     C_3   0.538008 0.973332 0.563446 0.431711
C29   C     C_1   0.501455 0.249058 0.499979 -0.177844
C30   C     C_1   0.498554 0.750966 0.500004 -0.180861
C31   C     C_3   0.581388 0.029662 0.498217 -0.509850
C32   C     C_3   0.418641 0.970401 0.501746 -0.509882
C33   C     C_3   0.502173 0.083158 0.499981 -0.042364
C34   C     C_3   0.497861 0.916891 0.499983 -0.042285
C35   C     C_1   0.502073 0.173896 0.499989 0.080496
C36   C     C_1   0.497951 0.826138 0.499983 0.080418
C37   C     C_R   0.517365 0.485866 0.262028 -0.028049
C38   C     C_R   0.483065 0.485552 0.738078 -0.027362
H1    H     H_    0.129842 0.392243 0.389071 0.145204
H2    H     H_    0.870213 0.607723 0.610877 0.145991
H3    H     H_    0.283092 0.399637 0.396984 0.131496
H4    H     H_    0.716964 0.600387 0.602988 0.136401
H5    H     H_    0.353743 0.944141 0.503146 0.165488
H6    H     H_    0.646281 0.055936 0.496817 0.165384
H7    H     H_    0.615925 0.470478 0.748263 0.165665
H8    H     H_    0.385555 0.454748 0.252180 0.161076
H9    H     H_    0.608283 0.444780 0.888632 0.148567
H10   H     H_    0.394166 0.428969 0.111643 0.148274
H11   H     H_    0.659240 0.484461 0.108530 0.138889
H12   H     H_    0.341384 0.468922 0.891464 0.138515
H13   H     H_    0.650920 0.509361 0.251875 0.162135
H14   H     H_    0.348852 0.493781 0.748087 0.159551
H15   H     H_    0.732221 0.420707 0.417071 0.130574
H16   H     H_    0.267728 0.579254 0.582951 0.128754
H17   H     H_    0.885104 0.424100 0.420842 0.152759
H18   H     H_    0.114852 0.575801 0.579159 0.152547
N1    N     N_2   0.534836 0.451989 0.016308 -0.209153
N2    N     N_2   0.466608 0.450346 0.983830 -0.208187
N3    N     N_R   0.283080 0.489710 0.490280 -0.088350
N4    N     N_R   0.716920 0.510290 0.509720 -0.089285
N5    N     N_2   0.020314 0.477065 0.476507 -0.188263
N6    N     N_2   0.979689 0.522848 0.523454 -0.188295
O1    O     O_R   0.577460 0.503680 0.387340 -0.625730
O2    O     O_R   0.422540 0.496320 0.612660 -0.625565
O3    O     O_R   0.438150 0.497080 0.381100 -0.627416
O4    O     O_R   0.561850 0.502920 0.618900 -0.628734
O5    O     O_R   0.569640 0.380080 0.503110 -0.622728
O6    O     O_R   0.430360 0.619920 0.496890 -0.620687
O7    O     O_R   0.430330 0.373470 0.496870 -0.605593
O8    O     O_R   0.569670 0.626530 0.503130 -0.603986
Zn1   Zn    Zn3+2 0.593020 0.504410 0.504170 0.953137
Zn2   Zn    Zn3+2 0.406980 0.495590 0.495830 0.954366
O9    O     O_3   0.425642 0.062329 0.370047 -0.609032
C39   C     C_3   0.384046 0.997642 0.327400 0.117319
H19   H     H_    0.327722 0.973739 0.361630 0.144753
H20   H     H_    0.425108 0.943697 0.313472 0.171610
C40   C     C_3   0.356780 0.033888 0.249468 -0.830337
H21   H     H_    0.411981 0.057500 0.213616 0.255849
H22   H     H_    0.323377 0.983689 0.215488 0.206179
H23   H     H_    0.314577 0.087208 0.261006 0.261015
O10   O     O_3   0.574406 0.937825 0.629954 -0.609085
C41   C     C_3   0.616030 0.002581 0.672500 0.116866
H24   H     H_    0.575024 0.056610 0.686277 0.171656
H25   H     H_    0.672403 0.026342 0.638261 0.144670
C42   C     C_3   0.643196 0.966514 0.750539 -0.829986
H26   H     H_    0.685354 0.913124 0.739160 0.261480
H27   H     H_    0.676618 0.016773 0.784430 0.205927
H28   H     H_    0.587945 0.943051 0.786403 0.255610
O11   O     O_3   0.577968 0.937505 0.366600 -0.606604
C43   C     C_3   0.620753 0.002168 0.322287 0.115168
H29   H     H_    0.676222 0.026029 0.354114 0.143660
H30   H     H_    0.580079 0.056153 0.310356 0.170175
C44   C     C_3   0.650068 0.965922 0.242973 -0.826030
H31   H     H_    0.595767 0.942361 0.209468 0.255767
H32   H     H_    0.684418 0.016110 0.207668 0.204278
H33   H     H_    0.691960 0.912572 0.252455 0.263356
O12   O     O_3   0.422079 0.062634 0.633332 -0.606013
C45   C     C_3   0.379317 0.998030 0.677729 0.114714
H34   H     H_    0.420032 0.944114 0.689779 0.169646
H35   H     H_    0.323884 0.974054 0.645911 0.143480
C46   C     C_3   0.349930 0.034424 0.756960 -0.824959
H36   H     H_    0.308005 0.087717 0.747353 0.263725
H37   H     H_    0.315597 0.984288 0.792343 0.203681
H38   H     H_    0.404194 0.058109 0.790453 0.256004

loop_
_geom_bond_atom_site_label_1
_geom_bond_atom_site_label_2
_ccdc_geom_bond_type
C25   C31   S    
C26   C32   S    
C44   H31   S    
O9    C39   S    
C23   O7    A    
O12   C45   S    
N1    N2    D    
C24   O8    A    
C42   H26   S    
C27   C33   S    
C46   H36   S    
C39   H20   S    
C19   H1    S    
C19   C21   A    
C21   N3    A    
C22   N4    A    
C20   H2    S    
C42   H28   S    
C18   C20   A    
C7    C9    A    
C23   O5    A    
C11   C37   A    
C17   N5    S    
C39   C40   S    
C1    O3    A    
C31   C33   S    
O8    Zn1   S    
O5    Zn1   S    
C1    C37   S    
C25   C34   S    
C8    N2    S    
C40   H22   S    
C27   C32   S    
C28   C34   S    
C44   H32   S    
C1    O1    A    
N3    Zn2   S    
C12   H14   S    
C2    O2    A    
O10   C41   S    
C4    H7    S    
C42   H27   S    
C5    H10   S    
C31   H6    S    
C9    H11   S    
C4    C6    A    
C39   H19   S    
C5    C7    A    
C18   N6    S    
C6    C8    A    
N4    Zn1   S    
C3    C5    A    
C40   H21   S    
C32   C34   S    
O7    Zn2   S    
C2    C38   S    
C26   C33   S    
C43   H30   S    
O4    Zn1   S    
O6    Zn2   S    
C9    C11   A    
C10   C12   A    
C21   H3    S    
C8    C10   A    
C20   C22   A    
C41   H24   S    
C46   H38   S    
C41   H25   S    
C13   C15   A    
C14   C16   A    
C25   C27   S    
O3    Zn2   S    
C23   C29   S    
C43   C44   S    
C13   H16   S    
C46   H37   S    
C40   H23   S    
C15   C17   A    
C28   O10   S    
C25   O11   S    
C28   C31   S    
O1    Zn1   S    
C2    O4    A    
C13   N3    A    
C44   H33   S    
C41   C42   S    
C14   N4    A    
C29   C35   T    
C3    H8    S    
C26   C28   S    
C45   C46   S    
C30   C36   T    
C15   H18   S    
C16   H17   S    
C33   C35   S    
C43   H29   S    
C22   H4    S    
C6    H9    S    
C17   C19   A    
C32   H5    S    
C34   C36   S    
O2    Zn2   S    
C12   C38   A    
N5    N6    D    
C45   H35   S    
C24   C30   S    
C11   H13   S    
C24   O6    A    
C26   O12   S    
C14   H15   S    
C3    C37   A    
C16   C18   A    
C45   H34   S    
C4    C38   A    
O11   C43   S    
C27   O9    S    
C7    N1    S    
C10   H12   S    
