data_mof_unit_24361.cif
_audit_creation_date              2012-10-26T20:42:27-0400
_audit_creation_method            fapswitch 2.2
_symmetry_space_group_name_H-M    P1
_symmetry_Int_Tables_number       1
_space_group_crystal_system       triclinic
_cell_length_a                    10.948634
_cell_length_b                    9.658741
_cell_length_c                    11.010989
_cell_angle_alpha                 89.988795
_cell_angle_beta                  94.295102
_cell_angle_gamma                 91.367143
_cell_volume                      1160.81008841

loop_
_atom_site_label
_atom_site_type_symbol
_atom_type_description
_atom_site_fract_x
_atom_site_fract_y
_atom_site_fract_z
_atom_type_partial_charge
C1    C     C_R   0.262047 0.497410 0.500154 0.560807
C2    C     C_R   0.926897 0.378924 0.448547 0.032051
C3    C     C_R   0.869811 0.500089 0.485380 -0.012637
C4    C     C_R   0.127040 0.490970 0.499146 -0.017647
C5    C     C_R   0.941261 0.616602 0.521481 -0.123534
C6    C     C_R   0.067793 0.611954 0.528668 -0.113210
C7    C     C_R   0.430425 0.070239 0.413004 0.147673
C8    C     C_R   0.570029 0.076341 0.586607 0.135499
C9    C     C_R   0.420935 0.923547 0.422652 0.170955
C10   C     C_R   0.572053 0.928294 0.584847 0.113681
C11   C     C_2   0.107848 0.234945 0.437503 0.667480
C12   C     C_R   0.736806 0.500962 0.494686 0.556793
C13   C     C_2   0.853434 0.263010 0.388339 0.669337
C14   C     C_2   0.368404 0.130686 0.300971 0.618526
C15   C     C_2   0.644173 0.150792 0.684799 0.640653
C16   C     C_2   0.305722 0.856086 0.373177 0.628620
C17   C     C_2   0.640962 0.859000 0.686357 0.652836
C18   C     C_R   0.496734 0.500029 0.265292 0.607807
C19   C     C_R   0.505451 0.499330 0.733713 0.594358
C20   C     C_2   0.469354 0.403025 0.930921 0.272623
C21   C     C_2   0.499354 0.394292 0.061443 0.254763
C22   C     C_2   0.530591 0.494112 0.864030 0.259201
C23   C     C_2   0.475612 0.502280 0.132765 0.233396
C24   C     C_R   0.055153 0.370631 0.463057 0.027542
Cl1   Cl    Cl    0.342732 0.301165 0.870550 -0.449721
Cl2   Cl    Cl    0.576743 0.244964 0.112454 -0.384758
Cl3   Cl    Cl    0.661808 0.587508 0.925898 -0.482683
Cl4   Cl    Cl    0.407703 0.652701 0.067212 -0.421785
Cu1   Cu    Cu3+1 0.500000 0.640660 0.500000 1.115453
Cu2   Cu    Cu3+1 0.500000 0.359340 0.500000 1.151824
H1    H     H_    0.899868 0.711928 0.545103 0.217388
H2    H     H_    0.119484 0.703471 0.560149 0.215823
H3    H     H_    0.110344 0.075937 0.317923 0.377997
H4    H     H_    0.800930 0.061409 0.390027 0.356365
H5    H     H_    0.319299 0.105571 0.121552 0.393403
H6    H     H_    0.804744 0.244967 0.740936 0.360392
H7    H     H_    0.216748 0.733362 0.246674 0.355677
H8    H     H_    0.798657 0.773685 0.750911 0.372366
N1    N     N_R   0.500000 0.852070 0.500000 -0.314678
N2    N     N_R   0.500000 0.147940 0.500000 -0.293367
O1    O     O_R   0.319640 0.618740 0.499990 -0.506635
O2    O     O_R   0.080419 0.173783 0.323072 -0.625530
O3    O     O_2   0.791685 0.284654 0.293612 -0.416885
O4    O     O_R   0.855608 0.130341 0.439258 -0.615869
O5    O     O_2   0.313520 0.238325 0.303552 -0.466713
O6    O     O_R   0.367349 0.057646 0.191091 -0.597396
O7    O     O_2   0.605412 0.159382 0.785726 -0.407155
O8    O     O_R   0.762525 0.198638 0.666003 -0.641044
O9    O     O_2   0.211659 0.877697 0.422341 -0.536366
O10   O     O_R   0.301992 0.772540 0.270266 -0.577741
O11   O     O_2   0.597952 0.852894 0.785567 -0.372124
O12   O     O_R   0.680360 0.618740 0.500010 -0.494460
O13   O     O_R   0.759247 0.814627 0.673196 -0.685660
O14   O     O_R   0.319620 0.381170 0.499990 -0.442704
O15   O     O_R   0.680380 0.381170 0.500010 -0.482006
O16   O     O_R   0.500000 0.618750 0.321940 -0.444445
O17   O     O_R   0.500000 0.618750 0.678060 -0.473716
O18   O     O_R   0.499970 0.381180 0.321940 -0.463741
O19   O     O_R   0.500030 0.381180 0.678060 -0.480179
O20   O     O_2   0.165054 0.171770 0.518545 -0.416899

loop_
_geom_bond_atom_site_label_1
_geom_bond_atom_site_label_2
_ccdc_geom_bond_type
C6    H2    S    
C21   Cl2   S    
C8    C10   A    
Cu1   Cu2   S    
Cu1   O16   S    
C15   O7    D    
C8    C15   S    
Cu2   O15   S    
H5    O6    S    
C18   O16   A    
C1    O14   A    
C1    C4    S    
Cu1   O1    S    
Cu2   O19   S    
Cu1   N1    S    
C2    C3    A    
C3    C5    A    
Cu2   N2    S    
C14   O6    S    
C23   Cl4   S    
C19   O17   A    
H7    O10   S    
Cu2   O14   S    
C17   O11   D    
H8    O13   S    
C15   O8    S    
H3    O2    S    
Cu2   O18   S    
C9    N1    A    
C12   O12   A    
C9    C16   S    
C16   O10   S    
H6    O8    S    
C14   O5    D    
C22   Cl3   S    
C21   C23   D    
C13   O4    S    
C2    C24   A    
C5    C6    A    
C4    C24   A    
C12   O15   A    
C20   Cl1   S    
C20   C22   D    
C10   C17   S    
C11   O20   D    
C17   O13   S    
C11   C24   S    
C13   O3    D    
C19   C22   S    
H4    O4    S    
C16   O9    D    
C11   O2    S    
C4    C6    A    
C1    O1    A    
C7    C9    A    
C2    C13   S    
C3    C12   S    
C8    N2    A    
C19   O19   A    
C20   C21   S    
C7    N2    A    
C18   O18   A    
C7    C14   S    
C18   C23   S    
Cu1   O17   S    
C10   N1    A    
C5    H1    S    
Cu1   O12   S    
