data_mof_unit_44754.cif
_audit_creation_date              2012-12-11T15:20:38-0500
_audit_creation_method            fapswitch 2.2
_symmetry_space_group_name_H-M    P1
_symmetry_Int_Tables_number       1
_space_group_crystal_system       triclinic
_cell_length_a                    12.898328
_cell_length_b                    13.051296
_cell_length_c                    15.270695
_cell_angle_alpha                 117.127453
_cell_angle_beta                  63.670346
_cell_angle_gamma                 97.555091
_cell_volume                      2042.44398951

loop_
_atom_site_label
_atom_site_type_symbol
_atom_type_description
_atom_site_fract_x
_atom_site_fract_y
_atom_site_fract_z
_atom_type_partial_charge
C1    C     C_R   0.073890 0.816628 0.985470 -0.184342
C2    C     C_R   0.320618 0.518607 0.783836 -0.163243
C3    C     C_R   0.239702 0.495061 0.117198 0.251154
C4    C     C_R   0.701706 0.403878 0.211908 0.509841
C5    C     C_R   0.979688 0.302482 0.698971 -0.102893
C6    C     C_R   0.331769 0.559341 0.087012 0.045177
C7    C     C_R   0.921720 0.205676 0.696050 0.075917
C8    C     C_R   0.332506 0.450736 0.679227 -0.019827
C9    C     C_R   0.025554 0.143355 0.021063 -0.177864
C10   C     C_R   0.917796 0.043175 0.422587 -0.313644
C11   C     C_R   0.911891 0.139987 0.516108 0.532130
C12   C     C_R   0.709044 0.430968 0.307504 -0.069009
C13   C     C_R   0.882708 0.128044 0.612159 -0.026235
C14   C     C_R   0.832166 0.028266 0.618701 -0.235577
C15   C     C_R   0.836875 0.932913 0.525126 -0.170356
C16   C     C_R   0.741619 0.588825 0.957882 -0.155334
C17   C     C_R   0.892677 0.936815 0.424436 0.086856
C18   C     C_R   0.552615 0.323756 0.389293 -0.140338
C19   C     C_R   0.458292 0.328811 0.483088 -0.208175
C20   C     C_R   0.443978 0.418772 0.584563 0.163505
C21   C     C_R   0.533319 0.490251 0.593550 -0.173059
C22   C     C_R   0.626026 0.485501 0.501244 -0.191751
C23   C     C_R   0.638119 0.572624 0.032002 0.117194
C24   C     C_R   0.631330 0.408530 0.398774 0.172489
C25   C     C_2   0.427563 0.582889 0.118474 -0.175243
C26   C     C_2   0.524985 0.619381 0.062719 -0.208728
C27   C     C_2   0.100045 0.889522 0.849104 -0.207799
C28   C     C_R   0.938138 0.720276 0.315179 -0.118225
C29   C     C_2   0.212659 0.908985 0.817496 0.383711
C30   C     C_R   0.660691 0.488001 0.052860 -0.136282
C31   C     C_R   0.019130 0.821193 0.219603 -0.123043
C32   C     C_R   0.806169 0.488775 0.303472 -0.261557
C33   C     C_R   0.973592 0.732384 0.888411 0.480307
C34   C     C_R   0.943911 0.830471 0.323049 0.072759
C35   C     C_R   0.040796 0.824878 0.914104 0.012246
C36   C     C_3   0.195617 0.422863 0.589792 -0.986774
C37   C     C_3   0.147193 0.168944 0.138921 0.233891
C38   C     C_3   0.216288 0.196244 0.204693 -0.878023
C39   C     C_3   0.190487 0.495040 0.226462 -0.875125
C40   C     C_3   0.862001 0.304951 0.523780 0.236212
C41   C     C_3   0.911367 0.402995 0.493936 -0.895963
C42   C     C_3   0.671972 0.236035 0.086692 0.211185
C43   C     C_3   0.578952 0.164391 0.057380 -0.930152
C44   C     C_3   0.394611 0.908772 0.800936 0.289768
C45   C     C_R   0.317407 0.591916 0.018990 0.247650
C46   C     C_3   0.475879 0.869965 0.830184 -0.922623
C47   C     C_3   0.877359 0.761113 0.804572 0.255320
C48   C     C_3   0.816682 0.692183 0.732182 -0.949003
C49   C     C_3   0.348137 0.705163 0.013552 -1.019208
C50   C     C_R   0.903547 0.199591 0.790364 -0.141885
C51   C     C_R   0.221769 0.444851 0.682902 0.309665
C52   C     C_R   0.063429 0.249285 0.074723 0.575218
C53   C     C_R   0.962944 0.167244 0.977901 -0.244310
H1    H     H_    0.139232 0.864137 0.010131 0.164830
H2    H     H_    0.393112 0.268302 0.475824 0.137971
H3    H     H_    0.526809 0.559308 0.670533 0.114551
H4    H     H_    0.685824 0.551467 0.511676 0.119425
H5    H     H_    0.428342 0.543029 0.166882 0.146922
H6    H     H_    0.527149 0.661572 0.015911 0.158113
H7    H     H_    0.051580 0.923642 0.824547 0.074429
H8    H     H_    0.753632 0.647872 0.923868 0.129119
H9    H     H_    0.889586 0.694313 0.378966 0.096397
H10   H     H_    0.599127 0.451824 0.103929 0.163407
H11   H     H_    0.045194 0.889753 0.195347 0.090576
H12   H     H_    0.848205 0.143697 0.822735 0.082433
H13   H     H_    0.849038 0.506478 0.355174 0.132316
H14   H     H_    0.264888 0.452726 0.532996 0.260352
H15   H     H_    0.189777 0.329231 0.544230 0.250959
H16   H     H_    0.113798 0.473501 0.620710 0.270743
H17   H     H_    0.200021 0.101428 0.054698 0.116339
H18   H     H_    0.064872 0.134912 0.178486 0.102488
H19   H     H_    0.167146 0.264285 0.289178 0.276420
H20   H     H_    0.232625 0.117226 0.208474 0.216196
H21   H     H_    0.301027 0.226487 0.165240 0.252523
H22   H     H_    0.239870 0.428069 0.221924 0.267925
H23   H     H_    0.915457 0.107127 0.935767 0.120960
H24   H     H_    0.197555 0.580361 0.288515 0.217415
H25   H     H_    0.096862 0.480756 0.254517 0.263469
H26   H     H_    0.798985 0.342682 0.611734 0.097366
H27   H     H_    0.815732 0.253121 0.472819 0.100223
H28   H     H_    0.967096 0.367817 0.404648 0.263729
H29   H     H_    0.839557 0.461785 0.516450 0.209273
H30   H     H_    0.963994 0.452655 0.538356 0.270563
H31   H     H_    0.720079 0.184749 0.100866 0.098157
H32   H     H_    0.731209 0.253103 0.016590 0.115196
H33   H     H_    0.530137 0.212661 0.041383 0.259710
H34   H     H_    0.388473 0.539703 0.810375 0.127161
H35   H     H_    0.620031 0.081881 0.982792 0.210417
H36   H     H_    0.517600 0.144770 0.125521 0.261298
H37   H     H_    0.387500 0.005170 0.838958 0.077188
H38   H     H_    0.433298 0.873346 0.710295 0.093125
H39   H     H_    0.485816 0.774147 0.792932 0.254844
H40   H     H_    0.562561 0.901690 0.799053 0.205786
H41   H     H_    0.440269 0.905335 0.920327 0.261879
H42   H     H_    0.925592 0.823660 0.774349 0.107046
H43   H     H_    0.809515 0.809504 0.889927 0.057363
H44   H     H_    0.774154 0.620640 0.751458 0.257855
H45   H     H_    0.986225 0.348297 0.654185 0.178552
H46   H     H_    0.749709 0.749688 0.745026 0.215309
H47   H     H_    0.880952 0.655664 0.645080 0.260590
H48   H     H_    0.354430 0.770706 0.089079 0.253612
H49   H     H_    0.430860 0.693198 0.940889 0.233993
H50   H     H_    0.280087 0.740455 0.006528 0.267916
H51   H     H_    0.952947 0.050403 0.347022 0.138142
H52   H     H_    0.800235 0.018156 0.692526 0.132453
H53   H     H_    0.807960 0.853799 0.531045 0.118524
H54   H     H_    0.559532 0.258448 0.310730 0.159158
N1    N     N_R   0.037310 0.720000 0.995790 -0.076455
N2    N     N_R   0.824890 0.517960 0.936420 -0.035942
N3    N     N_R   0.003210 0.648190 0.211380 -0.037787
N4    N     N_R   0.774330 0.457010 0.995840 -0.053643
N5    N     N_R   0.053760 0.709140 0.151960 -0.037645
N6    N     N_R   0.853860 0.498840 0.211410 -0.060124
N7    N     N_R   0.974240 0.667310 0.936390 -0.086095
N8    N     N_R   0.225670 0.542990 0.004160 -0.079508
N9    N     N_R   0.946240 0.290860 0.848040 -0.045778
N10   N     N_R   0.146140 0.501160 0.788590 -0.050264
N11   N     N_R   0.025760 0.332690 0.063610 -0.085141
N12   N     N_R   0.962690 0.280000 0.004210 -0.076811
N13   N     N_R   0.209210 0.553840 0.847990 -0.040699
N14   N     N_R   0.175110 0.482040 0.063580 -0.076399
N15   N     N_R   0.996790 0.351810 0.788620 -0.052287
N16   N     N_R   0.790790 0.446160 0.152010 -0.101113
Ni1   Ni    Ni4+2 0.130310 0.630310 0.999970 0.211876
Ni2   Ni    Ni4+2 0.869690 0.369690 0.000030 0.187942
Ni3   Ni    Ni4+2 0.985640 0.509470 0.863740 0.249726
Ni4   Ni    Ni4+2 0.014360 0.490530 0.136260 0.210492
O1    O     O_3   0.123274 0.270421 0.136868 -0.659149
O2    O     O_3   0.953895 0.238166 0.505059 -0.656481
O3    O     O_3   0.618620 0.339936 0.181614 -0.661796
O4    O     O_3   0.285580 0.867368 0.840394 -0.619135
O5    O     O_3   0.954722 0.685259 0.795490 -0.637101

loop_
_geom_bond_atom_site_label_1
_geom_bond_atom_site_label_2
_ccdc_geom_bond_type
C40   O2    S    
N8    N14   A    
C6    C45   A    
C27   C29   D    
C19   C20   A    
C3    C6    A    
C22   H4    S    
C52   O1    S    
C36   H14   S    
C44   O4    S    
C48   H44   S    
C33   N7    A    
C8    C20   S    
N9    N15   A    
C18   C24   A    
C43   H35   S    
C39   H24   S    
C15   H53   S    
C21   C22   A    
N5    Ni1   S    
C27   H7    S    
N2    N4    A    
C49   H48   S    
N7    Ni3   S    
C5    H45   S    
N16   Ni2   S    
C6    C25   S    
C46   H39   S    
C10   C17   A    
C41   H30   S    
C18   C19   A    
C23   C26   S    
N1    N7    A    
N11   N12   A    
C51   N10   A    
C18   H54   S    
C14   H52   S    
C42   C43   S    
C46   H41   S    
N4    Ni2   S    
C31   N5    A    
C40   H27   S    
C39   H22   S    
C32   N6    A    
C4    C12   A    
N10   Ni3   S    
N3    Ni4   S    
C37   O1    S    
C3    C39   S    
C13   C14   A    
C12   C32   A    
C9    C52   A    
N1    Ni1   S    
C11   O2    S    
C44   C46   S    
C16   N2    A    
C48   H47   S    
C38   H19   S    
C40   H26   S    
C39   H25   S    
C42   H31   S    
N10   N13   A    
C49   H49   S    
C5    C7    A    
C2    N13   A    
C4    O3    S    
C28   N3    A    
C25   C26   D    
C5    N15   A    
C4    N16   A    
N15   Ni3   S    
C1    H1    S    
C23   C30   A    
C37   C38   S    
C45   N8    A    
C47   C48   S    
N6    N16   A    
C45   C49   S    
C47   H43   S    
C41   H28   S    
C36   H15   S    
C31   C34   A    
C2    H34   S    
C42   O3    S    
C42   H32   S    
C43   H36   S    
C30   N4    A    
C44   H38   S    
C8    C51   A    
C36   C51   S    
N12   Ni2   S    
C33   O5    S    
C40   C41   S    
C16   C23   A    
N9    Ni2   S    
C37   H18   S    
C22   C24   A    
C53   H23   S    
C9    C53   A    
N11   Ni4   S    
C44   H37   S    
C36   H16   S    
C1    C35   A    
C32   H13   S    
C25   H5    S    
C38   H21   S    
C19   H2    S    
C15   C17   A    
C48   H46   S    
N8    Ni1   S    
C43   H33   S    
C31   H11   S    
C2    C8    A    
C7    C50   A    
C49   H50   S    
C21   H3    S    
C53   N12   A    
N14   Ni4   S    
N6    Ni4   S    
C12   C24   S    
C47   O5    S    
C27   C35   S    
C10   H51   S    
C11   C13   A    
C17   C34   S    
C29   O4    S    
C46   H40   S    
C41   H29   S    
C33   C35   A    
C50   N9    A    
C50   H12   S    
N3    N5    A    
C10   C11   A    
C1    N1    A    
C28   C34   A    
C3    N14   A    
N2    Ni3   S    
C7    C13   S    
C20   C21   A    
C16   H8    S    
C47   H42   S    
C14   C15   A    
C26   H6    S    
C30   H10   S    
C37   H17   S    
N13   Ni1   S    
C52   N11   A    
C38   H20   S    
C28   H9    S    
