data_mof_unit_24790.cif
_audit_creation_date              2012-12-10T16:57:49-0500
_audit_creation_method            fapswitch 2.2
_symmetry_space_group_name_H-M    P1
_symmetry_Int_Tables_number       1
_space_group_crystal_system       triclinic
_cell_length_a                    7.76021
_cell_length_b                    8.577815
_cell_length_c                    19.083935
_cell_angle_alpha                 90.940022
_cell_angle_beta                  85.731017
_cell_angle_gamma                 93.664303
_cell_volume                      1264.13358204

loop_
_atom_site_label
_atom_site_type_symbol
_atom_type_description
_atom_site_fract_x
_atom_site_fract_y
_atom_site_fract_z
_atom_type_partial_charge
Br1   Br    Br    0.896954 0.675640 0.840732 -0.503548
Br2   Br    Br    0.128128 0.473616 0.142315 -0.500027
C1    C     C_R   0.545840 0.794785 0.498189 0.969014
C2    C     C_R   0.652960 0.588060 0.179586 -0.153831
C3    C     C_R   0.524647 0.585236 0.853176 0.004746
C4    C     C_R   0.499010 0.566430 0.145889 0.005399
C5    C     C_R   0.677362 0.601485 0.808519 0.296103
C6    C     C_R   0.342551 0.520808 0.184680 0.298331
C7    C     C_R   0.669682 0.569517 0.737188 -0.216726
C8    C     C_R   0.343074 0.499367 0.256767 -0.219218
C9    C     C_R   0.511089 0.524095 0.709902 -0.095972
C10   C     C_R   0.498040 0.519932 0.289940 -0.093188
C11   C     C_R   0.509595 0.582294 0.070067 0.317499
C12   C     C_R   0.454161 0.205216 0.501819 0.972797
C13   C     C_R   0.527906 0.598749 0.928964 0.323055
C14   C     C_2   0.569995 0.958237 0.497154 -0.369463
C15   C     C_2   0.430010 0.041757 0.502861 -0.369870
C16   C     C_R   0.502556 0.502906 0.634537 0.885456
C17   C     C_R   0.498526 0.502311 0.365465 0.881795
C18   C     C_R   0.359223 0.511302 0.754277 -0.157530
C19   C     C_R   0.652902 0.564146 0.251019 -0.160101
C20   C     C_R   0.366223 0.541239 0.825540 -0.144761
H1    H     H_    0.235373 0.477289 0.734029 0.182982
H2    H     H_    0.986209 0.617563 0.552629 0.192855
H3    H     H_    0.773722 0.582681 0.275869 0.181143
H4    H     H_    0.248269 0.525838 0.859452 0.207181
H5    H     H_    0.773777 0.623726 0.150432 0.205052
H6    H     H_    0.787137 0.584316 0.702910 0.176630
H7    H     H_    0.223067 0.463901 0.286582 0.176329
H8    H     H_    0.702189 0.009318 0.491710 0.181878
H9    H     H_    0.297816 0.990673 0.508306 0.182254
H10   H     H_    0.013789 0.382429 0.447377 0.193064
N1    N     N_R   0.654439 0.534207 0.961606 -0.097771
N2    N     N_R   0.384390 0.649500 0.037596 -0.098541
N3    N     N_R   0.646059 0.527089 0.031096 -0.124620
N4    N     N_R   0.392764 0.656573 0.967984 -0.128183
N5    N     N_2   0.950330 0.457950 0.481240 -0.173186
N6    N     N_2   0.049670 0.542050 0.518760 -0.172505
O1    O     O_R   0.389250 0.738570 0.504600 -0.609727
O2    O     O_R   0.610750 0.261430 0.495400 -0.608954
O3    O     O_R   0.678400 0.711620 0.492580 -0.630743
O4    O     O_R   0.321600 0.288380 0.507420 -0.628094
O5    O     O_R   0.355380 0.513500 0.607880 -0.614790
O6    O     O_R   0.644620 0.486500 0.392120 -0.617159
O7    O     O_R   0.644530 0.486550 0.595850 -0.626544
O8    O     O_R   0.355470 0.513450 0.404150 -0.626767
Zn1   Zn    Zn3+2 0.306930 0.517990 0.508030 0.955184
Zn2   Zn    Zn3+2 0.693070 0.482010 0.491970 0.953072

loop_
_geom_bond_atom_site_label_1
_geom_bond_atom_site_label_2
_ccdc_geom_bond_type
H2    N6    S    
C9    C16   S    
N5    N6    D    
C3    C5    A    
C12   C15   S    
C18   H1    S    
C12   O4    A    
C17   O8    A    
C1    O1    A    
C11   N2    A    
H10   N5    S    
N5    Zn2   S    
C2    C19   A    
C7    C9    A    
C8    H7    S    
N6    Zn1   S    
C14   C15   D    
C8    C10   A    
C10   C19   A    
C10   C17   S    
C2    C4    A    
N1    N3    A    
O3    Zn2   S    
C18   C20   A    
C11   N3    A    
N2    N4    A    
O4    Zn1   S    
C15   H9    S    
C9    C18   A    
C3    C13   S    
C1    C14   S    
C12   O2    A    
C16   O7    A    
C13   N4    A    
C2    H5    S    
C17   O6    A    
O1    Zn1   S    
C20   H4    S    
O7    Zn2   S    
C16   O5    A    
C5    C7    A    
C19   H3    S    
O8    Zn1   S    
C1    O3    A    
C4    C6    A    
Br1   C5    S    
C14   H8    S    
O2    Zn2   S    
C13   N1    A    
C6    C8    A    
Br2   C6    S    
C3    C20   A    
O6    Zn2   S    
C7    H6    S    
O5    Zn1   S    
C4    C11   S    
