data_mof_unit_59101.cif
_audit_creation_date              2012-12-10T18:54:25-0500
_audit_creation_method            fapswitch 2.2
_symmetry_space_group_name_H-M    P1
_symmetry_Int_Tables_number       1
_space_group_crystal_system       triclinic
_cell_length_a                    10.781991
_cell_length_b                    9.899104
_cell_length_c                    23.496965
_cell_angle_alpha                 90.053378
_cell_angle_beta                  92.471621
_cell_angle_gamma                 90.82786
_cell_volume                      2505.2816076

loop_
_atom_site_label
_atom_site_type_symbol
_atom_type_description
_atom_site_fract_x
_atom_site_fract_y
_atom_site_fract_z
_atom_type_partial_charge
C1    C     C_R   0.261405 0.498782 0.506528 0.899406
C2    C     C_R   0.740219 0.501128 0.496335 0.897826
C3    C     C_R   0.519085 0.387506 0.235583 0.383778
C4    C     C_R   0.479274 0.387752 0.764345 0.384082
C5    C     C_R   0.518759 0.381290 0.295407 0.458562
C6    C     C_R   0.480371 0.381251 0.704542 0.454970
C7    C     C_R   0.503411 0.501037 0.326787 -0.191894
C8    C     C_R   0.495868 0.501355 0.673190 -0.189026
C9    C     C_R   0.491629 0.625310 0.298679 -0.299829
C10   C     C_R   0.506989 0.626172 0.701296 -0.283539
C11   C     C_R   0.494254 0.634385 0.239648 -0.039518
C12   C     C_R   0.503742 0.635433 0.760308 -0.042259
C13   C     C_R   0.507172 0.514364 0.208045 0.075087
C14   C     C_R   0.490720 0.515133 0.791890 0.073979
C15   C     C_R   0.062079 0.373236 0.508016 -0.112811
C16   C     C_R   0.941757 0.625407 0.506382 -0.129806
C17   C     C_R   0.936865 0.377872 0.491599 -0.106714
C18   C     C_R   0.067461 0.619090 0.521666 -0.103335
C19   C     C_R   0.874929 0.503076 0.494426 -0.150728
C20   C     C_R   0.128945 0.495795 0.515707 -0.153096
C21   C     C_R   0.565828 0.072159 0.541387 0.433271
C22   C     C_R   0.434289 0.927824 0.458571 0.393923
C23   C     C_R   0.433996 0.070194 0.458698 0.412328
C24   C     C_R   0.565439 0.929792 0.541467 0.397413
C25   C     C_R   0.500776 0.499880 0.389280 0.975714
C26   C     C_R   0.499133 0.499978 0.610719 0.966474
C27   C     C_R   0.604346 0.518604 0.881882 0.590480
C28   C     C_R   0.393477 0.514472 0.118052 0.591052
C29   C     C_R   0.382390 0.521169 0.879130 0.593333
C30   C     C_R   0.615447 0.523454 0.120802 0.592286
C31   C     C_R   0.381255 0.512510 0.938850 -0.139964
C32   C     C_R   0.616544 0.515248 0.061067 -0.139444
C33   C     C_R   0.496928 0.514446 0.969973 -0.052538
C34   C     C_R   0.500871 0.514190 0.029949 -0.052345
C35   C     C_R   0.608945 0.517486 0.941234 -0.094799
C36   C     C_R   0.388862 0.513737 0.058695 -0.094284
C37   C     C_R   0.269642 0.504784 0.968695 0.462647
C38   C     C_R   0.728140 0.510947 0.031209 0.462357
C39   C     C_R   0.274797 0.509687 0.027889 -0.113846
C40   C     C_R   0.723002 0.516335 0.972032 -0.113484
H1    H     H_    0.188266 0.506197 0.049708 0.232142
H2    H     H_    0.809528 0.515482 0.950209 0.232973
H3    H     H_    0.480955 0.716777 0.323188 0.261968
H4    H     H_    0.517690 0.717887 0.676803 0.263797
N1    N     N_R   0.492527 0.520542 0.852543 -0.341807
N2    N     N_R   0.505313 0.519516 0.147392 -0.341734
N3    N     N_R   0.500000 0.857200 0.500000 -0.283965
N4    N     N_R   0.500000 0.142800 0.500000 -0.291800
O1    O     O_R   0.316770 0.614620 0.500000 -0.643672
O2    O     O_R   0.683230 0.385380 0.500000 -0.647208
O3    O     O_R   0.683230 0.614620 0.500000 -0.640885
O4    O     O_R   0.316770 0.385380 0.500000 -0.647911
O5    O     O_R   0.499970 0.614690 0.416160 -0.633893
O6    O     O_R   0.500030 0.385310 0.583840 -0.563310
O7    O     O_R   0.500030 0.614690 0.583840 -0.635142
O8    O     O_R   0.499970 0.385310 0.416160 -0.560445
O9    O     O_2   0.710445 0.517691 0.853390 -0.513038
O10   O     O_2   0.287384 0.510234 0.146546 -0.513930
O11   O     O_2   0.275721 0.532586 0.847465 -0.482441
O12   O     O_2   0.722162 0.537772 0.152480 -0.485409
Zn1   Zn    Zn3+2 0.500000 0.653120 0.500000 0.984772
Zn2   Zn    Zn3+2 0.500000 0.346880 0.500000 1.016895
O13   O     O_3   0.154162 0.489754 0.941962 -0.678652
H5    H     H_    0.159617 0.414516 0.914375 0.372315
O14   O     O_3   0.843576 0.498831 0.057906 -0.678560
H6    H     H_    0.837830 0.423266 0.085343 0.372151
O15   O     O_3   0.530561 0.268128 0.205557 -0.760250
H7    H     H_    0.523730 0.284397 0.164077 0.346354
O16   O     O_3   0.467635 0.268128 0.794346 -0.758861
H8    H     H_    0.473352 0.284861 0.835833 0.346288
O17   O     O_3   0.533437 0.260172 0.324219 -0.685939
H9    H     H_    0.545400 0.185157 0.297258 0.400438
O18   O     O_3   0.466286 0.259494 0.675721 -0.679099
H10   H     H_    0.454357 0.184176 0.702663 0.403168
C41   C     C_2   0.483077 0.770630 0.212663 1.019359
O19   O     O_2   0.502846 0.787051 0.162284 -0.595174
O20   O     O_R   0.450971 0.881869 0.245479 -0.758186
H11   H     H_    0.446958 0.968799 0.222718 0.379881
C42   C     C_2   0.514530 0.772150 0.787307 1.023657
O21   O     O_2   0.494309 0.788121 0.837643 -0.594680
O22   O     O_R   0.546811 0.884301 0.754558 -0.755172
H12   H     H_    0.550558 0.971448 0.777326 0.380052
C43   C     C_2   0.121672 0.241133 0.520111 1.005774
O23   O     O_2   0.121261 0.153104 0.483576 -0.565666
O24   O     O_R   0.183033 0.221312 0.573051 -0.737564
H13   H     H_    0.225629 0.130981 0.576100 0.341996
C44   C     C_2   0.884224 0.760965 0.500344 1.024255
O25   O     O_2   0.886545 0.839186 0.540712 -0.540545
O26   O     O_R   0.828359 0.798657 0.448037 -0.742259
H14   H     H_    0.791448 0.892196 0.449180 0.351682
C45   C     C_2   0.873021 0.252955 0.469059 1.000772
O27   O     O_2   0.867482 0.151530 0.498593 -0.572848
O28   O     O_R   0.815260 0.254317 0.414634 -0.746286
H15   H     H_    0.772356 0.165199 0.404414 0.356419
C46   C     C_2   0.134819 0.741041 0.544425 1.003669
O29   O     O_2   0.186245 0.737827 0.591820 -0.584906
O30   O     O_R   0.144908 0.855921 0.510432 -0.723134
H16   H     H_    0.201886 0.926881 0.528905 0.342113
O31   O     O_3   0.636311 0.135978 0.583827 -0.610690
H17   H     H_    0.655184 0.228045 0.571189 0.381511
O32   O     O_3   0.364069 0.863942 0.416058 -0.643742
H18   H     H_    0.344766 0.772049 0.428793 0.384610
O33   O     O_3   0.363097 0.132148 0.416561 -0.608892
H19   H     H_    0.344548 0.223567 0.429567 0.382660
O34   O     O_3   0.634639 0.867708 0.584124 -0.637405
H20   H     H_    0.653833 0.776452 0.571117 0.377720

loop_
_geom_bond_atom_site_label_1
_geom_bond_atom_site_label_2
_ccdc_geom_bond_type
C38   C40   A    
C44   O25   D    
O28   H15   S    
C5    O17   S    
C8    C26   S    
O18   H10   S    
C46   O29   D    
O3    Zn1   S    
C25   O8    A    
C26   O7    A    
O30   H16   S    
C39   H1    S    
O24   H13   S    
C28   N2    A    
O32   H18   S    
C22   O32   S    
C43   O23   D    
C25   O5    A    
C13   N2    S    
C21   O31   S    
C12   C42   S    
C7    C9    A    
C2    O2    A    
C33   C35   A    
O5    Zn1   S    
C23   O33   S    
C29   O11   S    
C17   C45   S    
C16   C44   S    
C31   C33   A    
C32   C38   A    
C18   C20   A    
C3    C13   A    
C21   N4    A    
C27   N1    A    
C40   H2    S    
C22   N3    A    
C18   C46   S    
C26   O6    A    
C4    O16   S    
C37   O13   S    
O22   H12   S    
C14   N1    S    
C15   C20   A    
C37   C39   A    
C9    H3    S    
O1    Zn1   S    
C10   H4    S    
O15   H7    S    
C42   O21   D    
C4    C6    A    
C27   O9    S    
C45   O27   D    
C5    C7    A    
C15   C43   S    
O6    Zn2   S    
C27   C35   A    
O20   H11   S    
C31   C37   A    
C29   N1    A    
C32   C34   A    
C41   O19   D    
C45   O28   S    
C9    C11   A    
N4    Zn2   S    
O31   H17   S    
C38   O14   S    
C33   C34   A    
C41   O20   S    
C10   C12   A    
C8    C10   A    
C43   O24   S    
C12   C14   A    
C44   O26   S    
O2    Zn2   S    
O8    Zn2   S    
C30   O12   S    
C6    O18   S    
C42   O22   S    
C15   C17   A    
C1    C20   S    
C23   N4    A    
C2    C19   S    
C24   N3    A    
C30   N2    A    
C36   C39   A    
C3    O15   S    
C3    C5    A    
N3    Zn1   S    
C6    C8    A    
C46   O30   S    
C28   O10   S    
O34   H20   S    
C7    C25   S    
C35   C40   A    
O17   H9    S    
C29   C31   A    
C11   C41   S    
C30   C32   A    
C11   C13   A    
C16   C19   A    
O7    Zn1   S    
C17   C19   A    
C34   C36   A    
C4    C14   A    
O16   H8    S    
C1    O4    A    
C2    O3    A    
O13   H5    S    
C28   C36   A    
C16   C18   A    
O14   H6    S    
C21   C24   A    
O33   H19   S    
C22   C23   A    
O4    Zn2   S    
C24   O34   S    
O26   H14   S    
C1    O1    A    
