data_mof_unit_66201.cif
_audit_creation_date              2012-12-11T14:43:34-0500
_audit_creation_method            fapswitch 2.2
_symmetry_space_group_name_H-M    P1
_symmetry_Int_Tables_number       1
_space_group_crystal_system       triclinic
_cell_length_a                    8.182944
_cell_length_b                    15.128548
_cell_length_c                    18.732829
_cell_angle_alpha                 96.842011
_cell_angle_beta                  91.814837
_cell_angle_gamma                 99.552974
_cell_volume                      2267.46903276

loop_
_atom_site_label
_atom_site_type_symbol
_atom_type_description
_atom_site_fract_x
_atom_site_fract_y
_atom_site_fract_z
_atom_type_partial_charge
Ba1   Ba    Ba6+2 0.852920 0.542430 0.466290 1.638709
Ba2   Ba    Ba6+2 0.336920 0.457650 0.533720 1.633254
C1    C     C_3   0.687301 0.864632 0.280876 -0.379395
C2    C     C_3   0.677681 0.772736 0.307125 0.343148
C3    C     C_3   0.436394 0.303217 0.311566 0.321130
C4    C     C_3   0.390076 0.257382 0.234860 0.222812
C5    C     C_3   0.059288 0.269420 0.730862 0.357132
C6    C     C_3   0.073823 0.245495 0.807127 -0.372684
C7    C     C_3   0.527273 0.220293 0.689579 0.364944
C8    C     C_3   0.492224 0.127012 0.713342 -0.377474
C9    C     C_2   0.311444 0.517159 0.294810 -0.264828
C10   C     C_3   0.450267 0.514917 0.243531 0.062297
C11   C     C_2   0.390527 0.527668 0.168302 -0.109134
C12   C     C_3   0.180238 0.738143 0.275915 0.305820
C13   C     C_2   0.227048 0.504204 0.147743 -0.066500
C14   C     C_2   0.107246 0.475145 0.203619 -0.089711
C15   C     C_1   0.160103 0.477345 0.271950 0.107283
C16   C     C_R   0.050873 0.493482 0.930944 0.450969
C17   C     C_R   0.167218 0.501374 0.070936 0.443602
C18   C     C_R   0.086121 0.526562 0.802080 -0.170426
C19   C     C_R   0.031534 0.519119 0.728975 0.067051
C20   C     C_R   0.762495 0.440593 0.757382 0.000601
C21   C     C_R   0.812154 0.450359 0.831862 -0.007298
C22   C     C_R   0.981418 0.489661 0.854309 -0.073203
C23   C     C_3   0.179185 0.763036 0.199680 -0.355534
C24   C     C_R   0.873879 0.472172 0.707461 -0.299148
C25   C     C_R   0.757392 0.234575 0.532820 -0.283788
C26   C     C_R   0.851201 0.175103 0.558170 0.014283
C27   C     C_R   0.788713 0.081832 0.549399 -0.131933
C28   C     C_R   0.632802 0.046585 0.511852 0.009578
C29   C     C_R   0.547110 0.109422 0.483037 -0.112287
C30   C     C_R   0.609224 0.201724 0.493302 0.046427
C31   C     C_R   0.405206 0.912884 0.463241 -0.132726
C32   C     C_R   0.341453 0.820440 0.451885 0.005983
C33   C     C_R   0.584646 0.788853 0.512566 0.070706
C34   C     C_3   0.244983 0.738313 0.623596 0.320188
C35   C     C_R   0.650278 0.881395 0.524356 -0.122537
C36   C     C_R   0.563189 0.946142 0.499187 0.006672
C37   C     C_R   0.433154 0.758776 0.474807 -0.287843
C38   C     C_3   0.219480 0.836942 0.637042 -0.182074
C39   C     C_3   0.947234 0.265504 0.380963 0.301223
C40   C     C_3   0.911332 0.163350 0.361496 -0.390783
C41   C     C_3   0.725935 0.657561 0.684056 0.338915
C42   C     C_3   0.678203 0.670340 0.762450 0.284260
H1    H     H_    0.800500 0.768712 0.331885 0.117643
H2    H     H_    0.275393 0.874560 0.594077 0.053563
H3    H     H_    0.084039 0.838313 0.633834 0.112223
H4    H     H_    0.835812 0.289228 0.401847 0.008032
H5    H     H_    0.049077 0.282817 0.423120 0.075252
H6    H     H_    0.802282 0.143760 0.322642 0.128851
H7    H     H_    0.884947 0.129747 0.410209 0.070284
H8    H     H_    0.020715 0.139722 0.336909 0.119284
H9    H     H_    0.858207 0.651418 0.681717 -0.036503
H10   H     H_    0.649005 0.593736 0.658238 0.005921
H11   H     H_    0.782747 0.872964 0.240225 0.132514
H12   H     H_    0.684853 0.608135 0.787725 -0.078587
H13   H     H_    0.545716 0.678249 0.762980 0.066153
H14   H     H_    0.583176 0.767112 0.348144 -0.014601
H15   H     H_    0.721432 0.918783 0.326951 0.084634
H16   H     H_    0.322098 0.320340 0.336110 0.020731
H17   H     H_    0.528326 0.365868 0.310390 0.011981
H18   H     H_    0.301597 0.193677 0.238170 0.036816
H19   H     H_    0.504584 0.241026 0.209646 0.030580
H20   H     H_    0.565103 0.870993 0.256369 0.113397
H21   H     H_    0.232400 0.712755 0.163499 0.091813
H22   H     H_    0.143283 0.334346 0.727920 0.096036
H23   H     H_    0.929279 0.277772 0.719483 -0.063543
H24   H     H_    0.203460 0.238160 0.820927 0.149423
H25   H     H_    0.038508 0.299693 0.845828 0.077026
H26   H     H_    0.989830 0.181028 0.811855 0.110820
H27   H     H_    0.661451 0.236124 0.680111 -0.062812
H28   H     H_    0.453690 0.218839 0.638526 0.097067
H29   H     H_    0.571745 0.124490 0.761963 0.106559
H30   H     H_    0.518872 0.076366 0.669319 0.075325
H31   H     H_    0.103580 0.670122 0.274871 0.072367
H32   H     H_    0.359872 0.110888 0.725993 0.148713
H33   H     H_    0.481480 0.545843 0.129226 0.081141
H34   H     H_    0.977096 0.451660 0.187792 0.096021
H35   H     H_    0.210654 0.561462 0.818143 0.108159
H36   H     H_    0.333507 0.555650 0.347995 0.051072
H37   H     H_    0.833279 0.465379 0.651257 0.072105
H38   H     H_    0.325481 0.956412 0.445206 0.076965
H39   H     H_    0.866379 0.038922 0.570222 0.072284
H40   H     H_    0.766887 0.900729 0.555037 0.074034
H41   H     H_    0.310252 0.735880 0.293474 -0.023956
H42   H     H_    0.435219 0.089102 0.449354 0.071809
H43   H     H_    0.382146 0.687390 0.466813 0.069359
H44   H     H_    0.806234 0.306205 0.538576 0.064468
H45   H     H_    0.049930 0.763553 0.179945 0.129324
H46   H     H_    0.254699 0.830954 0.198569 0.115536
H47   H     H_    0.377650 0.735723 0.617436 -0.014712
H48   H     H_    0.173327 0.707179 0.572923 0.042660
N1    N     N_R   0.190966 0.551896 0.957037 -0.259947
N2    N     N_R   0.248154 0.555512 0.025359 -0.255215
N3    N     N_R   0.030142 0.442087 0.044529 -0.262522
N4    N     N_R   0.975132 0.437879 0.976336 -0.263081
O1    O     O_2   0.864880 0.449170 0.328210 -0.472278
O2    O     O_3   0.699796 0.733125 0.651406 -0.640470
O3    O     O_3   0.113861 0.802509 0.321415 -0.605130
O4    O     O_2   0.324830 0.550860 0.671840 -0.472415
O5    O     O_3   0.072140 0.549400 0.584410 -0.491095
O6    O     O_3   0.531230 0.386060 0.627150 -0.482173
O7    O     O_3   0.193288 0.694990 0.682875 -0.652920
O8    O     O_3   0.606300 0.390910 0.463140 -0.467335
O9    O     O_3   0.106650 0.339290 0.591370 -0.486668
O10   O     O_2   0.191063 0.178759 0.549423 -0.490284
O11   O     O_3   0.104645 0.200398 0.682452 -0.599509
O12   O     O_3   0.117570 0.450680 0.415600 -0.497188
O13   O     O_3   0.583420 0.609160 0.536870 -0.484593
O14   O     O_2   0.332740 0.278830 0.463690 -0.467695
O15   O     O_3   0.506755 0.242826 0.349167 -0.684696
O16   O     O_2   0.421910 0.447859 0.752586 -0.499053
O17   O     O_3   0.480930 0.283182 0.743080 -0.609011
O18   O     O_3   0.658480 0.614010 0.372860 -0.491677
O19   O     O_2   0.799298 0.572096 0.250679 -0.497356
O20   O     O_3   0.990806 0.304725 0.318940 -0.626971
O21   O     O_3   0.633212 0.704410 0.248912 -0.615496
O22   O     O_2   0.856970 0.721200 0.536350 -0.467071
O23   O     O_3   0.083060 0.660780 0.408640 -0.488379
O24   O     O_2   0.999308 0.821652 0.450119 -0.495028
P1    P     P_3+3 0.032340 0.422550 0.338860 0.999874
P2    P     P_3+3 0.682000 0.708060 0.557320 0.982616
P3    P     P_3+3 0.133652 0.777701 0.409847 0.932820
P4    P     P_3+3 0.157370 0.577530 0.661150 0.974469
P5    P     P_3+3 0.063458 0.222323 0.594606 0.945701
P6    P     P_3+3 0.636427 0.599107 0.278864 0.945573
P7    P     P_3+3 0.515361 0.277444 0.441945 0.945135
P8    P     P_3+3 0.549614 0.391586 0.720586 0.926812
C43   C     C_3   0.291150 0.885955 0.710744 -0.206482
C44   C     C_3   0.479203 0.893317 0.719757 -0.370788
H49   H     H_    0.526627 0.940827 0.768592 0.122993
H50   H     H_    0.511250 0.826524 0.726846 0.179981
H51   H     H_    0.540664 0.918363 0.672313 0.121351
H52   H     H_    0.232125 0.851040 0.754579 0.146046
H53   H     H_    0.259579 0.954860 0.716574 0.107828
O25   O     O_3   0.773509 0.749203 0.801075 -0.642420
C45   C     C_3   0.914646 0.728027 0.836259 0.281347
H54   H     H_    0.998103 0.702626 0.795987 0.046923
H55   H     H_    0.878188 0.676422 0.873220 0.036452
C46   C     C_3   0.008846 0.813099 0.881180 -0.175793
H56   H     H_    0.038293 0.867679 0.846484 0.122322
H57   H     H_    0.929406 0.836404 0.924123 0.123559
C47   C     C_3   0.169634 0.795140 0.915757 -0.498310
H58   H     H_    0.142198 0.742320 0.952168 0.159487
H59   H     H_    0.235809 0.858140 0.947736 0.142434
H60   H     H_    0.251796 0.772564 0.873700 0.144609
O26   O     O_3   0.316224 0.315213 0.195053 -0.690186
C48   C     C_3   0.267308 0.272906 0.124295 0.268532
H61   H     H_    0.153913 0.298012 0.107348 0.093713
H62   H     H_    0.232338 0.197935 0.120449 0.016399
C49   C     C_3   0.403284 0.298300 0.072271 -0.192887
H63   H     H_    0.444113 0.372652 0.079211 0.128701
H64   H     H_    0.512195 0.266386 0.084252 0.107075
C50   C     C_3   0.341350 0.267401 0.994103 -0.492121
H65   H     H_    0.298479 0.193137 0.985592 0.132845
H66   H     H_    0.443625 0.284422 0.957956 0.142645
H67   H     H_    0.237550 0.302012 0.979767 0.154918
C51   C     C_3   0.682673 0.423050 0.885884 -0.203302
C52   C     C_3   0.641594 0.505024 0.933481 -0.370751
H68   H     H_    0.753770 0.546190 0.962756 0.136927
H69   H     H_    0.583140 0.548311 0.900025 0.143245
H70   H     H_    0.552507 0.481827 0.973650 0.138362
H71   H     H_    0.563660 0.386831 0.860020 0.139472
H72   H     H_    0.720217 0.372445 0.918083 0.126224

loop_
_geom_bond_atom_site_label_1
_geom_bond_atom_site_label_2
_ccdc_geom_bond_type
C42   O25   S    
C47   H60   S    
C19   C24   A    
Ba2   O13   S    
C32   P3    S    
C38   H3    S    
N3    N4    A    
C16   N4    A    
C39   C40   S    
C33   C37   A    
O26   C48   S    
C48   C49   S    
C37   H43   S    
O12   P1    S    
C38   C43   S    
C12   O3    S    
O17   P8    S    
C1    H20   S    
C38   H2    S    
C10   C11   S    
C45   H55   S    
O10   P5    D    
C6    H25   S    
N1    N2    A    
O19   P6    D    
C34   O7    S    
C16   C22   S    
C30   P7    S    
C26   C27   A    
C33   C35   A    
C35   C36   A    
C48   H62   S    
C27   H39   S    
O6    P8    S    
C52   H68   S    
Ba1   O23   S    
C28   C29   A    
O18   P6    S    
C8    H29   S    
O13   P2    S    
C10   P6    S    
Ba2   O6    S    
C47   H58   S    
C21   C51   S    
C28   C36   S    
C47   H59   S    
Ba1   Ba2   S    
O22   P2    D    
C49   C50   S    
Ba1   P2    S    
O1    P1    D    
Ba1   O13   S    
C43   H53   S    
C8    H32   S    
C41   H9    S    
Ba2   O14   S    
C18   C22   A    
C14   C15   D    
C21   C22   A    
C52   H69   S    
C35   H40   S    
C7    C8    S    
C50   H66   S    
C3    H16   S    
O24   P3    D    
C51   H72   S    
O14   P7    D    
C34   H48   S    
Ba2   O4    S    
C29   H42   S    
C1    H11   S    
O7    P4    S    
C39   H5    S    
C2    H1    S    
C45   C46   S    
C11   H33   S    
O5    P4    S    
O20   P1    S    
C32   C37   A    
C13   C17   S    
C34   C38   S    
C23   H21   S    
C48   H61   S    
O11   P5    S    
C50   H67   S    
Ba1   O1    S    
C7    H28   S    
C3    O15   S    
Ba2   O5    S    
O4    P4    D    
C4    H19   S    
C44   H50   S    
C41   C42   S    
C27   C28   A    
C42   H12   S    
C41   H10   S    
C20   P8    S    
C29   C30   A    
Ba2   O8    S    
C42   H13   S    
C49   H63   S    
C31   C32   A    
C23   H46   S    
C52   H70   S    
C3    H17   S    
C46   H56   S    
C46   C47   S    
Ba1   O8    S    
C50   H65   S    
C17   N2    A    
C51   H71   S    
C40   H6    S    
C34   H47   S    
C15   P1    S    
C6    H24   S    
C24   H37   S    
Ba2   P4    S    
C11   C13   D    
O15   P7    S    
C51   C52   S    
C41   O2    S    
C5    O11   S    
C2    O21   S    
C44   H51   S    
Ba1   O18   S    
C39   O20   S    
C1    C2    S    
Ba1   O5    S    
C17   N3    A    
C26   P5    S    
O3    P3    S    
C43   C44   S    
O21   P6    S    
O2    P2    S    
C9    C15   D    
C18   H35   S    
C25   C30   A    
C6    H26   S    
C33   P2    S    
C7    H27   S    
C12   H41   S    
C46   H57   S    
O25   C45   S    
C9    C10   S    
O23   P3    S    
C45   H54   S    
C40   H7    S    
Ba2   O9    S    
C23   H45   S    
C31   C36   A    
O9    P5    S    
C7    O17   S    
C12   H31   S    
C4    H18   S    
C19   P4    S    
C44   H49   S    
C5    H22   S    
C4    O26   S    
C8    H30   S    
C3    C4    S    
O8    P7    S    
Ba2   O12   S    
C39   H4    S    
C14   H34   S    
Ba1   O22   S    
C49   H64   S    
C12   C23   S    
C25   H44   S    
C31   H38   S    
Ba1   P1    S    
O16   P8    D    
C5    C6    S    
C9    H36   S    
Ba1   O12   S    
C5    H23   S    
C43   H52   S    
C18   C19   A    
C20   C24   A    
C2    H14   S    
C25   C26   A    
C16   N1    A    
C20   C21   A    
C13   C14   S    
C40   H8    S    
C1    H15   S    
