data_mof_unit_50465.cif
_audit_creation_date              2012-12-10T18:22:27-0500
_audit_creation_method            fapswitch 2.2
_symmetry_space_group_name_H-M    P1
_symmetry_Int_Tables_number       1
_space_group_crystal_system       triclinic
_cell_length_a                    23.565298
_cell_length_b                    10.672836
_cell_length_c                    9.410008
_cell_angle_alpha                 90.443618
_cell_angle_beta                  90.335288
_cell_angle_gamma                 90.153786
_cell_volume                      2366.57729321

loop_
_atom_site_label
_atom_site_type_symbol
_atom_type_description
_atom_site_fract_x
_atom_site_fract_y
_atom_site_fract_z
_atom_type_partial_charge
C1    C     C_R   0.501198 0.259971 0.499312 0.822133
C2    C     C_R   0.499037 0.740452 0.500680 0.806636
C3    C     C_R   0.237950 0.524214 0.374830 -0.196660
C4    C     C_R   0.760669 0.448267 0.380507 -0.197722
C5    C     C_R   0.297227 0.528385 0.374577 0.396568
C6    C     C_R   0.701347 0.446145 0.382016 0.403074
C7    C     C_R   0.328030 0.496416 0.498975 -0.261306
C8    C     C_R   0.671828 0.496053 0.500250 -0.254361
C9    C     C_R   0.297804 0.461557 0.622616 0.396154
C10   C     C_R   0.703214 0.543054 0.617945 0.408744
C11   C     C_R   0.238461 0.462106 0.621348 -0.188956
C12   C     C_R   0.762528 0.539565 0.616302 -0.185990
C13   C     C_R   0.208633 0.492596 0.497876 0.221559
C14   C     C_R   0.791229 0.493995 0.497417 0.215906
C15   C     C_3   0.532325 0.043186 0.607522 0.282689
C16   C     C_3   0.468696 0.959543 0.392871 0.256732
C17   C     C_3   0.554531 0.956397 0.487234 -0.283228
C18   C     C_3   0.446571 0.045342 0.513159 -0.322653
C19   C     C_3   0.499241 0.877081 0.502243 -0.172365
C20   C     C_3   0.501420 0.124114 0.497902 -0.164212
C21   C     C_3   0.478362 0.963819 0.622690 0.249552
C22   C     C_3   0.522598 0.038111 0.378268 0.273641
C23   C     C_R   0.390906 0.499068 0.499692 0.837477
C24   C     C_R   0.609045 0.498856 0.500243 0.853876
C25   C     C_3   0.511412 0.610210 0.051602 -0.082593
C26   C     C_3   0.488467 0.389538 0.948404 -0.078542
C27   C     C_3   0.462405 0.576654 0.949413 -0.011191
C28   C     C_3   0.537425 0.422942 0.050614 -0.015498
C29   C     C_3   0.548962 0.533286 0.950797 -0.014974
C30   C     C_3   0.450960 0.466382 0.049416 -0.006731
C31   C     C_R   0.880667 0.604422 0.489842 0.563569
C32   C     C_R   0.119295 0.381516 0.498651 0.563303
C33   C     C_R   0.879966 0.380937 0.500105 0.557227
C34   C     C_R   0.119948 0.605204 0.494460 0.556043
C35   C     C_R   0.939873 0.377079 0.495153 -0.051605
C36   C     C_R   0.060042 0.608710 0.488816 -0.051982
C37   C     C_R   0.969955 0.492195 0.491879 -0.066898
C38   C     C_R   0.029975 0.493557 0.492312 -0.066659
C39   C     C_R   0.940082 0.606274 0.488880 -0.038529
C40   C     C_R   0.059861 0.379510 0.496906 -0.039484
C41   C     C_R   0.970703 0.263005 0.495280 0.257213
C42   C     C_R   0.029199 0.722557 0.481529 0.256709
C43   C     C_R   0.030047 0.265778 0.498138 -0.237466
C44   C     C_R   0.969880 0.719877 0.483714 -0.237637
Cu1   Cu    Cu3+1 0.500010 0.499990 0.643150 0.964371
Cu2   Cu    Cu3+1 0.499990 0.500010 0.356850 0.961247
H1    H     H_    0.430156 0.639360 0.901594 0.135379
H2    H     H_    0.568707 0.357834 0.098014 0.152740
H3    H     H_    0.521967 0.702385 0.099680 0.112058
H4    H     H_    0.478040 0.296752 0.900977 0.115800
H5    H     H_    0.590185 0.561989 0.905540 0.182672
H6    H     H_    0.409761 0.437265 0.095315 0.170983
H7    H     H_    0.052745 0.177582 0.499122 0.183209
H8    H     H_    0.947180 0.807942 0.479268 0.181593
H9    H     H_    0.214541 0.546658 0.278968 0.163654
H10   H     H_    0.783084 0.412710 0.288521 0.168031
H11   H     H_    0.215471 0.438469 0.716860 0.169018
H12   H     H_    0.786387 0.573121 0.707757 0.170867
H13   H     H_    0.597747 0.916665 0.476137 0.139175
H14   H     H_    0.403042 0.083375 0.524731 0.148159
N1    N     N_R   0.852064 0.493120 0.495776 -0.447158
N2    N     N_R   0.147835 0.493014 0.497516 -0.448623
N3    N     N_3   0.500040 0.499970 0.858290 -0.158012
N4    N     N_3   0.499960 0.500030 0.141710 -0.161036
O1    O     O_R   0.500030 0.316850 0.620870 -0.587037
O2    O     O_R   0.499970 0.683150 0.379130 -0.592337
O3    O     O_R   0.500000 0.316860 0.379090 -0.592026
O4    O     O_R   0.500000 0.683140 0.620910 -0.586731
O5    O     O_R   0.417890 0.499960 0.620920 -0.540006
O6    O     O_R   0.582110 0.500040 0.379080 -0.539826
O7    O     O_R   0.417870 0.499970 0.379140 -0.546547
O8    O     O_R   0.582130 0.500030 0.620860 -0.544772
O9    O     O_2   0.851537 0.713044 0.484304 -0.548692
O10   O     O_2   0.148494 0.272892 0.500830 -0.544318
O11   O     O_2   0.849550 0.274320 0.511864 -0.505545
O12   O     O_2   0.150422 0.712332 0.499226 -0.504158
N5    N     N_2   0.942866 0.144521 0.490526 -0.372037
H15   H     H_    0.962382 0.077309 0.551861 0.235839
C45   C     C_3   0.931105 0.099411 0.347965 -0.605167
H16   H     H_    0.971382 0.083531 0.289832 0.194959
H17   H     H_    0.904844 0.168095 0.288845 0.244883
H18   H     H_    0.907335 0.009610 0.353016 0.237155
N6    N     N_2   0.056969 0.840625 0.470206 -0.371467
H19   H     H_    0.037536 0.911290 0.527158 0.235884
C46   C     C_3   0.068330 0.877315 0.325417 -0.601471
H20   H     H_    0.027914 0.888744 0.265547 0.193981
H21   H     H_    0.094823 0.805783 0.271065 0.244651
H22   H     H_    0.091669 0.967847 0.325586 0.235512
O13   O     O_3   0.324691 0.557974 0.249844 -0.568603
C47   C     C_3   0.327611 0.689443 0.238946 -0.248169
H23   H     H_    0.349507 0.732265 0.332703 0.174369
H24   H     H_    0.284634 0.730730 0.225381 0.164198
H25   H     H_    0.352741 0.712972 0.143411 0.180753
O14   O     O_3   0.672623 0.397952 0.265330 -0.562645
C48   C     C_3   0.668593 0.266894 0.280538 -0.268651
H26   H     H_    0.641731 0.242083 0.373177 0.174213
H27   H     H_    0.711146 0.222544 0.290216 0.165900
H28   H     H_    0.648155 0.227326 0.183758 0.193277
O15   O     O_3   0.325744 0.432882 0.747764 -0.554398
C49   C     C_3   0.332449 0.301814 0.754269 -0.249382
H29   H     H_    0.290648 0.253293 0.759131 0.164527
H30   H     H_    0.356261 0.279007 0.852754 0.176812
H31   H     H_    0.357540 0.265751 0.662862 0.140448
O16   O     O_3   0.676365 0.586332 0.738600 -0.563616
C50   C     C_3   0.672843 0.717878 0.731810 -0.318121
H32   H     H_    0.645428 0.747516 0.641458 0.151094
H33   H     H_    0.715542 0.762179 0.724423 0.179734
H34   H     H_    0.653150 0.752271 0.831358 0.176863
N7    N     N_2   0.566757 0.100637 0.718460 -0.411095
H35   H     H_    0.544230 0.144129 0.798117 0.254187
C51   C     C_3   0.616158 0.032257 0.764995 -0.720574
H36   H     H_    0.640354 0.089857 0.843281 0.233333
H37   H     H_    0.644599 0.012574 0.674001 0.239628
H38   H     H_    0.603261 0.943454 0.815655 0.214720
N8    N     N_2   0.434362 0.910528 0.276967 -0.436739
H39   H     H_    0.456075 0.850827 0.210536 0.254366
C52   C     C_3   0.400071 0.001028 0.202120 -0.710205
H40   H     H_    0.372790 0.951730 0.122929 0.223959
H41   H     H_    0.427312 0.068652 0.145031 0.224985
H42   H     H_    0.372042 0.052042 0.277091 0.242595
N9    N     N_2   0.449709 0.923110 0.750093 -0.419913
H43   H     H_    0.417944 0.858632 0.730039 0.255945
C53   C     C_3   0.484664 0.893874 0.871515 -0.709340
H44   H     H_    0.457669 0.854638 0.956342 0.208333
H45   H     H_    0.504315 0.980298 0.914911 0.241255
H46   H     H_    0.517700 0.824419 0.842893 0.242589
N10   N     N_2   0.546556 0.084025 0.247269 -0.428122
H47   H     H_    0.518789 0.135770 0.186739 0.256395
C54   C     C_3   0.578948 0.993849 0.166667 -0.761126
H48   H     H_    0.594435 0.038075 0.068061 0.225331
H49   H     H_    0.552264 0.911752 0.138132 0.229389
H50   H     H_    0.616438 0.962768 0.228849 0.245088

loop_
_geom_bond_atom_site_label_1
_geom_bond_atom_site_label_2
_ccdc_geom_bond_type
C38   C40   A    
C29   N3    S    
C52   H40   S    
C30   N4    S    
C18   C21   S    
C23   O5    A    
C36   C42   A    
C48   H26   S    
C22   N10   S    
C48   H28   S    
C24   O6    A    
C53   H44   S    
N5    H15   S    
C50   H33   S    
C28   C29   S    
C35   C37   A    
Cu2   O2    S    
C2    O4    A    
C52   H41   S    
C41   N5    S    
C31   O9    S    
N8    H39   S    
C34   N2    A    
C15   C17   S    
C31   N1    A    
N7    C51   S    
C33   C35   A    
C3    H9    S    
C33   O11   S    
C40   C43   A    
C13   N2    S    
N6    H19   S    
C6    O14   S    
C1    O1    A    
C18   C20   S    
C3    C13   A    
C54   H50   S    
C12   H12   S    
N5    C45   S    
C9    O15   S    
C4    H10   S    
C27   C30   S    
C4    C14   A    
C41   C43   A    
C42   C44   A    
C10   C12   A    
O16   C50   S    
C43   H7    S    
C46   H21   S    
C25   C29   S    
C15   C20   S    
C50   H34   S    
N9    C53   S    
Cu1   O5    S    
C23   O7    A    
C4    C6    A    
C52   H42   S    
C5    C7    A    
C17   C19   S    
C53   H46   S    
C6    C8    A    
N8    C52   S    
Cu1   Cu2   S    
C14   N1    S    
Cu1   N3    S    
C49   H31   S    
Cu2   N4    S    
C25   N4    S    
C26   N3    S    
N10   C54   S    
C37   C38   A    
C47   H24   S    
O15   C49   S    
Cu1   O4    S    
C49   H30   S    
Cu2   O7    S    
C51   H37   S    
C16   C18   S    
C9    C11   A    
N9    H43   S    
C27   N3    S    
C17   H13   S    
C28   N4    S    
C18   H14   S    
N6    C46   S    
C12   C14   A    
C26   C30   S    
C15   N7    S    
Cu1   O1    S    
N10   H47   S    
C16   N8    S    
C24   O8    A    
C47   H25   S    
C45   H17   S    
C54   H48   S    
C29   H5    S    
C46   H22   S    
C27   H1    S    
C7    C9    A    
C30   H6    S    
C28   H2    S    
C1    C20   S    
C16   C22   S    
C51   H36   S    
C19   C21   S    
C2    C19   S    
C42   N6    S    
C20   C22   S    
C3    C5    A    
C46   H20   S    
C45   H18   S    
C48   H27   S    
C2    O2    A    
C39   C44   A    
C1    O3    A    
C25   C27   S    
C50   H32   S    
C26   C28   S    
C17   C22   S    
C26   H4    S    
C32   N2    A    
Cu2   O3    S    
C37   C39   A    
N7    H35   S    
C36   C38   A    
C32   O10   S    
C11   C13   A    
C47   H23   S    
C33   N1    A    
C7    C23   S    
C10   O16   S    
C49   H29   S    
C8    C24   S    
C31   C39   A    
C51   H38   S    
C34   C36   A    
C32   C40   A    
C21   N9    S    
O14   C48   S    
C35   C41   A    
C25   H3    S    
Cu2   O6    S    
C53   H45   S    
C45   H16   S    
C44   H8    S    
C15   C21   S    
C8    C10   A    
C54   H49   S    
O13   C47   S    
C11   H11   S    
C5    O13   S    
C34   O12   S    
Cu1   O8    S    
C16   C19   S    
