data_mof_unit_33815.cif
_audit_creation_date              2012-12-10T20:26:31-0500
_audit_creation_method            fapswitch 2.2
_symmetry_space_group_name_H-M    P1
_symmetry_Int_Tables_number       1
_space_group_crystal_system       triclinic
_cell_length_a                    10.600295
_cell_length_b                    10.677832
_cell_length_c                    9.905394
_cell_angle_alpha                 89.600721
_cell_angle_beta                  87.447199
_cell_angle_gamma                 90.732063
_cell_volume                      1119.93744974

loop_
_atom_site_label
_atom_site_type_symbol
_atom_type_description
_atom_site_fract_x
_atom_site_fract_y
_atom_site_fract_z
_atom_type_partial_charge
C1    C     C_R   0.503717 0.260116 0.500156 0.903369
C2    C     C_R   0.577377 0.579831 0.065984 0.028363
C3    C     C_R   0.576582 0.578523 0.922169 0.019550
C4    C     C_R   0.263902 0.515960 0.502795 0.990861
C5    C     C_R   0.430155 0.413494 0.933367 0.141759
C6    C     C_3   0.289425 0.393800 0.939420 0.466899
C7    C     C_3   0.293991 0.386687 0.092568 -0.480992
C8    C     C_R   0.503961 0.739952 0.499516 0.884314
C9    C     C_R   0.737778 0.496552 0.496658 0.823559
C10   C     C_2   0.932795 0.584660 0.422056 -0.260528
C11   C     C_2   0.871125 0.487498 0.483805 -0.132506
C12   C     C_R   0.523620 0.128907 0.499982 -0.102589
C13   C     C_2   0.069561 0.593937 0.409383 0.020150
C14   C     C_2   0.133559 0.549728 0.512906 -0.253328
C15   C     C_R   0.521294 0.063196 0.621834 0.000841
C16   C     C_2   0.663102 0.670565 0.129299 0.409203
C17   C     C_2   0.212520 0.501870 0.891313 0.413472
C18   C     C_2   0.924425 0.362710 0.514438 0.387768
C19   C     C_2   0.126836 0.659547 0.288476 0.438230
C20   C     C_R   0.549324 0.066282 0.377918 -0.172403
C21   C     C_R   0.548955 0.936793 0.377492 -0.140476
C22   C     C_R   0.523521 0.871661 0.499190 -0.173350
C23   C     C_R   0.521781 0.935349 0.621490 0.078833
C24   C     C_3   0.429571 0.926285 0.739962 0.509492
C25   C     C_3   0.428732 0.068171 0.739980 -0.440912
C26   C     C_R   0.432394 0.411534 0.075364 0.094446
F1    F     F_    0.254625 0.280885 0.883434 -0.681666
F2    F     F_    0.484607 0.877195 0.852544 -0.600247
H1    H     H_    0.880245 0.663900 0.385074 0.141090
H2    H     H_    0.336514 0.107408 0.712768 0.218227
H3    H     H_    0.677717 0.668899 0.235574 0.116389
H4    H     H_    0.123490 0.483050 0.845119 0.076146
H5    H     H_    0.877600 0.303560 0.591404 0.071967
H6    H     H_    0.074042 0.665429 0.197274 0.091604
H7    H     H_    0.470710 0.110306 0.830280 0.252219
H8    H     H_    0.636269 0.642407 0.861926 0.204682
H9    H     H_    0.243118 0.462900 0.146599 0.202895
H10   H     H_    0.273380 0.291463 0.134668 0.235955
H11   H     H_    0.084191 0.527438 0.608789 0.129730
H12   H     H_    0.560780 0.116130 0.282438 0.185417
H13   H     H_    0.559786 0.888830 0.281825 0.202092
H14   H     H_    0.337821 0.881417 0.716913 0.098432
N1    N     N_R   0.499170 0.499140 0.142800 -0.136533
N2    N     N_R   0.499170 0.499180 0.857150 -0.143948
O1    O     O_R   0.500020 0.316790 0.614690 -0.602019
O2    O     O_2   0.246155 0.610283 0.908230 -0.560664
O3    O     O_2   0.014842 0.321574 0.448975 -0.550650
O4    O     O_2   0.229138 0.713099 0.291314 -0.531425
O5    O     O_R   0.500000 0.316760 0.385350 -0.621708
O6    O     O_R   0.319080 0.500020 0.614640 -0.618462
O7    O     O_R   0.319070 0.499980 0.385300 -0.574398
O8    O     O_R   0.500000 0.683240 0.614650 -0.595014
O9    O     O_R   0.499980 0.683210 0.385310 -0.617965
O10   O     O_R   0.680930 0.500020 0.614700 -0.628008
O11   O     O_R   0.680920 0.499980 0.385360 -0.645662
O12   O     O_2   0.720885 0.750169 0.061387 -0.563592
Zn1   Zn    Zn3+2 0.500010 0.500020 0.653130 1.007869
Zn2   Zn    Zn3+2 0.499990 0.499980 0.346870 0.983223

loop_
_geom_bond_atom_site_label_1
_geom_bond_atom_site_label_2
_ccdc_geom_bond_type
C8    O9    A    
C8    C22   S    
C23   C24   S    
C16   O12   D    
C11   C18   S    
C6    C7    S    
C9    O11   A    
C2    N1    A    
C2    C16   S    
C8    O8    A    
C6    F1    S    
C12   C15   A    
N2    Zn1   S    
O9    Zn2   S    
O1    Zn1   S    
C18   O3    D    
C12   C20   A    
C15   C23   A    
C2    C3    A    
C7    H9    S    
O10   Zn1   S    
O7    Zn2   S    
C13   C14   D    
C17   O2    D    
C16   H3    S    
C9    C11   S    
C10   H1    S    
C1    O1    A    
C1    C12   S    
C7    C26   S    
C3    H8    S    
C25   H7    S    
C21   H13   S    
C5    N2    A    
C26   N1    A    
C19   H6    S    
C4    C14   S    
C5    C6    S    
C20   H12   S    
C18   H5    S    
C3    N2    A    
C15   C25   S    
C10   C11   D    
C13   C19   S    
C4    O7    A    
C5    C26   A    
C24   H14   S    
C24   C25   S    
O8    Zn1   S    
O11   Zn2   S    
C4    O6    A    
C25   H2    S    
C6    C17   S    
C17   H4    S    
C22   C23   A    
C9    O10   A    
C19   O4    D    
N1    Zn2   S    
C20   C21   A    
C21   C22   A    
O6    Zn1   S    
C1    O5    A    
C7    H10   S    
O5    Zn2   S    
C24   F2    S    
C14   H11   S    
C10   C13   S    
