data_mof_unit_61413.cif
_audit_creation_date              2012-12-10T16:40:38-0500
_audit_creation_method            fapswitch 2.2
_symmetry_space_group_name_H-M    P1
_symmetry_Int_Tables_number       1
_space_group_crystal_system       triclinic
_cell_length_a                    10.82298
_cell_length_b                    10.825818
_cell_length_c                    19.484031
_cell_angle_alpha                 97.438134
_cell_angle_beta                  91.776727
_cell_angle_gamma                 98.435464
_cell_volume                      2236.28745016

loop_
_atom_site_label
_atom_site_type_symbol
_atom_type_description
_atom_site_fract_x
_atom_site_fract_y
_atom_site_fract_z
_atom_type_partial_charge
C1    C     C_R   0.475370 0.161818 0.484302 0.860350
C2    C     C_2   0.502691 0.420562 0.014071 -0.065189
C3    C     C_2   0.497262 0.524260 0.983005 -0.344370
C4    C     C_R   0.524609 0.839048 0.515595 0.886913
C5    C     C_R   0.483726 0.520397 0.764093 -0.009416
C6    C     C_2   0.533663 0.975341 0.522041 -0.342344
C7    C     C_2   0.466581 0.027202 0.478174 -0.293791
C8    C     C_2   0.972148 0.536557 0.521685 -0.342254
C9    C     C_2   0.030504 0.461933 0.478212 -0.294306
C10   C     C_R   0.164218 0.472487 0.484185 0.856937
C11   C     C_R   0.836943 0.526583 0.515495 0.890250
C12   C     C_R   0.502959 0.434534 0.090427 0.135135
C13   C     C_R   0.486735 0.514077 0.688578 0.800899
C14   C     C_R   0.512760 0.485708 0.311494 0.793010
C15   C     C_R   0.511583 0.471316 0.235630 -0.005139
C16   C     C_R   0.423366 0.522200 0.198052 -0.189452
C17   C     C_R   0.418726 0.503466 0.125979 -0.167544
C18   C     C_2   0.517498 0.295971 0.975282 0.907877
C19   C     C_R   0.590915 0.383408 0.127961 -0.120955
C20   C     C_R   0.595134 0.401515 0.200061 -0.194828
C21   C     C_R   0.571173 0.612274 0.878525 -0.143685
C22   C     C_R   0.569221 0.610032 0.806979 -0.193031
C23   C     C_R   0.397267 0.436040 0.794000 -0.196292
C24   C     C_R   0.399312 0.438566 0.865639 -0.097732
C25   C     C_R   0.489049 0.524116 0.907836 0.242275
H1    H     H_    0.357008 0.575160 0.224258 0.163832
H2    H     H_    0.657634 0.331240 0.101513 0.142895
H3    H     H_    0.639071 0.680417 0.910912 0.139564
H4    H     H_    0.663980 0.361097 0.227905 0.163832
H5    H     H_    0.349245 0.542659 0.097878 0.142538
H6    H     H_    0.586410 0.199006 0.893385 0.342671
H7    H     H_    0.332544 0.372578 0.888107 0.132287
H8    H     H_    0.595159 0.033781 0.562634 0.150827
H9    H     H_    0.405268 0.970993 0.436863 0.163424
H10   H     H_    0.024569 0.605138 0.561824 0.149793
H11   H     H_    0.980448 0.393057 0.437507 0.161724
H12   H     H_    0.635884 0.677206 0.785273 0.167131
H13   H     H_    0.329271 0.367285 0.762116 0.164920
H14   H     H_    0.502221 0.615511 0.014624 0.164596
O1    O     O_3   0.500000 0.500000 0.500000 -0.491370
O2    O     O_R   0.410860 0.431690 0.648970 -0.644150
O3    O     O_R   0.578570 0.421470 0.344370 -0.648504
O4    O     O_R   0.567340 0.590030 0.662290 -0.648353
O5    O     O_R   0.443230 0.556810 0.344370 -0.647238
O6    O     O_2   0.475754 0.199194 0.998189 -0.631656
O7    O     O_R   0.582441 0.289017 0.914282 -0.793501
O8    O     O_R   0.229880 0.548640 0.449830 -0.635401
O9    O     O_R   0.775840 0.445670 0.468570 -0.640507
O10   O     O_R   0.404020 0.217050 0.524780 -0.632204
O11   O     O_R   0.590260 0.788640 0.556820 -0.644704
O12   O     O_R   0.555650 0.222860 0.449830 -0.635058
O13   O     O_R   0.450070 0.771450 0.468560 -0.638529
O14   O     O_R   0.213590 0.407490 0.524780 -0.633737
O15   O     O_R   0.780700 0.598200 0.556830 -0.643327
Zn1   Zn    Zn3+2 0.407400 0.592620 0.441700 0.967402
Zn2   Zn    Zn3+2 0.384130 0.390950 0.548790 0.974285
Zn3   Zn    Zn3+2 0.607710 0.617180 0.567810 0.973745
Zn4   Zn    Zn3+2 0.600760 0.399250 0.441700 0.969461

loop_
_geom_bond_atom_site_label_1
_geom_bond_atom_site_label_2
_ccdc_geom_bond_type
C12   C17   A    
C9    H11   S    
C23   C24   A    
C24   H7    S    
O2    Zn2   S    
O9    Zn4   S    
C6    C7    D    
C22   H12   S    
C2    C18   S    
O10   Zn2   S    
C19   H2    S    
C9    C10   S    
C5    C13   S    
C19   C20   A    
C5    C23   A    
O13   Zn1   S    
C3    C25   S    
C14   O3    A    
O1    Zn1   S    
C2    C12   S    
O3    Zn4   S    
C13   O2    A    
C2    C3    D    
O8    Zn1   S    
C3    H14   S    
O12   Zn4   S    
C6    H8    S    
C21   C22   A    
O15   Zn3   S    
C17   H5    S    
C1    O12   A    
O5    Zn1   S    
C11   O9    A    
C11   O15   A    
C4    O13   A    
C8    C11   S    
C18   O7    S    
C12   C19   A    
C4    C6    S    
C21   H3    S    
C20   H4    S    
C16   H1    S    
C15   C20   A    
C7    H9    S    
O1    Zn4   S    
O4    Zn3   S    
C15   C16   A    
C23   H13   S    
C18   O6    D    
C13   O4    A    
C24   C25   A    
C14   O5    A    
O14   Zn2   S    
C10   O8    A    
C10   O14   A    
C21   C25   A    
C14   C15   S    
C16   C17   A    
O1    Zn3   S    
C1    C7    S    
O11   Zn3   S    
C1    O10   A    
H6    O7    S    
C5    C22   A    
C4    O11   A    
C8    C9    D    
O1    Zn2   S    
C8    H10   S    
