data_mof_unit_11273.cif
_audit_creation_date              2012-10-26T19:24:21-0400
_audit_creation_method            fapswitch 2.2
_symmetry_space_group_name_H-M    P1
_symmetry_Int_Tables_number       1
_space_group_crystal_system       triclinic
_cell_length_a                    27.748172
_cell_length_b                    10.882125
_cell_length_c                    9.71891
_cell_angle_alpha                 90.718334
_cell_angle_beta                  89.241292
_cell_angle_gamma                 93.689155
_cell_volume                      2928.17426367

loop_
_atom_site_label
_atom_site_type_symbol
_atom_type_description
_atom_site_fract_x
_atom_site_fract_y
_atom_site_fract_z
_atom_type_partial_charge
C1    C     C_R   0.495587 0.262681 0.499617 0.555223
C2    C     C_R   0.973309 0.451124 0.376906 0.017391
C3    C     C_R   0.974809 0.579812 0.588134 0.017778
C4    C     C_R   0.407703 0.503458 0.500157 0.572376
C5    C     C_R   0.948705 0.512584 0.483941 0.035250
C6    C     C_R   0.945608 0.392148 0.270973 -0.140220
C7    C     C_R   0.895474 0.389368 0.273348 -0.105244
C8    C     C_R   0.870920 0.445118 0.381230 0.027431
C9    C     C_R   0.897390 0.506785 0.486850 -0.026579
C10   C     C_R   0.872432 0.562827 0.595318 0.019793
C11   C     C_R   0.821772 0.556214 0.596220 0.411522
C12   C     C_R   0.275592 0.489346 0.606549 -0.041126
C13   C     C_R   0.820250 0.442250 0.384957 0.399073
C14   C     C_R   0.716795 0.385683 0.502717 -0.013941
C15   C     C_R   0.666500 0.386100 0.505089 -0.110555
C16   C     C_R   0.500517 0.738024 0.502305 0.565764
C17   C     C_R   0.672430 0.608559 0.485174 -0.093960
C18   C     C_R   0.722582 0.608187 0.482126 -0.021910
C19   C     C_R   0.745037 0.496881 0.491484 0.245298
C20   C     C_R   0.024512 0.451001 0.378900 0.017630
C21   C     C_R   0.050629 0.523382 0.479037 0.034483
C22   C     C_R   0.026048 0.591116 0.580891 0.017387
C23   C     C_R   0.254118 0.527947 0.486250 0.229919
C24   C     C_R   0.050723 0.379616 0.284976 -0.139607
C25   C     C_R   0.103933 0.674237 0.667596 -0.107788
C26   C     C_R   0.948556 0.632264 0.697413 -0.139410
C27   C     C_R   0.898414 0.623799 0.700673 -0.107210
C28   C     C_R   0.591941 0.498552 0.499098 0.561555
C29   C     C_R   0.053798 0.668710 0.671820 -0.139725
C30   C     C_R   0.448239 0.113510 0.729676 0.119766
C31   C     C_R   0.447785 0.062254 0.860167 -0.082524
C32   C     C_R   0.470429 0.954612 0.880843 -0.124487
C33   C     C_R   0.488845 0.891333 0.768586 -0.066573
C34   C     C_R   0.101929 0.527540 0.477865 -0.026864
C35   C     C_R   0.488427 0.939891 0.633144 0.019414
C36   C     C_R   0.475166 0.062390 0.620705 0.036829
C37   C     C_R   0.488580 0.127727 0.499440 0.006941
C38   C     C_R   0.501555 0.062987 0.381176 -0.149118
C39   C     C_R   0.504212 0.936760 0.384592 -0.136462
C40   C     C_R   0.177460 0.458046 0.386145 0.402992
C41   C     C_R   0.499258 0.873265 0.509257 0.011731
C42   C     C_R   0.587102 0.555448 0.136202 0.105565
C43   C     C_R   0.629742 0.522418 0.073328 -0.106465
C44   C     C_R   0.630382 0.511766 0.931107 0.222232
C45   C     C_R   0.126852 0.455962 0.382352 0.026332
C46   C     C_R   0.588955 0.543280 0.862814 0.163057
C47   C     C_R   0.543277 0.514589 0.925466 0.073029
C48   C     C_R   0.542841 0.519702 0.073075 0.116894
C49   C     C_R   0.458685 0.495992 0.075885 0.020602
C50   C     C_R   0.458842 0.510188 0.931040 0.191838
C51   C     C_R   0.179030 0.604383 0.570994 0.401496
C52   C     C_R   0.283185 0.560679 0.371882 -0.045878
C53   C     C_R   0.333086 0.552770 0.377142 -0.133259
C54   C     C_R   0.325488 0.483031 0.612428 -0.103085
C55   C     C_R   0.100824 0.382041 0.287084 -0.108018
C56   C     C_R   0.128408 0.602655 0.572843 0.025292
C57   C     C_R   0.354829 0.513201 0.497491 0.019978
C58   C     C_R   0.644330 0.497660 0.496536 0.034841
Cl1   Cl    Cl    0.686307 0.508618 0.844647 -0.509359
Cu1   Cu    Cu3+1 0.500000 0.499990 0.640660 1.029765
Cu2   Cu    Cu3+1 0.500000 0.500010 0.359340 0.988246
H1    H     H_    0.340646 0.451954 0.706269 0.182667
H2    H     H_    0.427819 0.102359 0.944052 0.144348
H3    H     H_    0.253485 0.462938 0.695322 0.151691
H4    H     H_    0.470721 0.915274 0.982641 0.138696
H5    H     H_    0.504034 0.807210 0.795036 0.191396
H6    H     H_    0.511690 0.889566 0.288853 0.170408
H7    H     H_    0.424801 0.497680 0.131464 0.144787
H8    H     H_    0.663602 0.534713 0.127545 0.185025
H9    H     H_    0.119102 0.325013 0.213473 0.170363
H10   H     H_    0.644914 0.299950 0.514095 0.121618
H11   H     H_    0.733842 0.299359 0.510702 0.148031
H12   H     H_    0.267064 0.591606 0.278624 0.152729
H13   H     H_    0.875995 0.343055 0.189662 0.174988
H14   H     H_    0.961566 0.349313 0.182487 0.113967
H15   H     H_    0.033577 0.317847 0.210402 0.113891
H16   H     H_    0.354623 0.578289 0.286999 0.139869
H17   H     H_    0.123466 0.734568 0.740091 0.171279
H18   H     H_    0.965677 0.678289 0.784344 0.113919
H19   H     H_    0.655595 0.695330 0.480046 0.157682
H20   H     H_    0.880063 0.665832 0.786535 0.173955
H21   H     H_    0.744083 0.694412 0.473253 0.145534
H22   H     H_    0.037885 0.728702 0.746147 0.114267
H23   H     H_    0.510115 0.109952 0.285443 0.150287
I1    I     I_    0.390790 0.224646 0.692076 -0.351484
I2    I     I_    0.596316 0.736223 0.220528 -0.355026
I3    I     I_    0.600980 0.724672 0.781342 -0.275454
I4    I     I_    0.401614 0.618622 0.874987 -0.370925
N1    N     N_R   0.202501 0.531301 0.479887 -0.397638
N2    N     N_R   0.796773 0.497502 0.491370 -0.402561
N3    N     N_R   0.500460 0.501210 0.147910 -0.250044
N4    N     N_R   0.500480 0.501290 0.852040 -0.233082
O1    O     O_R   0.500000 0.319640 0.618810 -0.481375
O2    O     O_R   0.569730 0.499970 0.618800 -0.481514
O3    O     O_R   0.569740 0.499990 0.381230 -0.492412
O4    O     O_2   0.201385 0.385803 0.298368 -0.488383
O5    O     O_2   0.794668 0.386066 0.282249 -0.479471
O6    O     O_2   0.204626 0.678562 0.659569 -0.482354
O7    O     O_2   0.797640 0.607819 0.701268 -0.429557
O8    O     O_R   0.500000 0.319660 0.381240 -0.504287
O9    O     O_R   0.430260 0.500010 0.618770 -0.457648
O10   O     O_R   0.430270 0.500030 0.381200 -0.522402
O11   O     O_R   0.500000 0.680340 0.618760 -0.498699
O12   O     O_R   0.500000 0.680360 0.381190 -0.482426

loop_
_geom_bond_atom_site_label_1
_geom_bond_atom_site_label_2
_ccdc_geom_bond_type
C10   C27   A    
C34   C56   A    
C8    C13   A    
C49   H7    S    
C13   N2    A    
C47   N4    A    
C35   C36   A    
C25   C56   A    
C6    H14   S    
C39   C41   A    
C31   C32   A    
C24   C55   A    
C12   C23   A    
C26   C27   A    
C28   O3    A    
C11   O7    S    
C36   C37   A    
C22   C29   A    
C40   O4    S    
C29   H22   S    
C30   C31   A    
C12   H3    S    
C44   Cl1   S    
C28   O2    A    
C18   C19   A    
C33   C35   A    
C16   O12   A    
C20   C24   A    
C8    C9    A    
C48   N3    A    
C4    O10   A    
C4    C57   S    
C23   N1    S    
C42   I2    S    
C40   N1    A    
Cu1   O11   S    
C9    C10   A    
C50   I4    S    
C17   C58   A    
Cu1   O1    S    
C51   O6    S    
C43   H8    S    
C21   C22   A    
C2    C6    A    
C39   H6    S    
C49   N3    A    
C1    O8    A    
C44   C46   A    
C33   H5    S    
C7    H13   S    
Cu1   N4    S    
C25   C29   A    
C40   C45   A    
C2    C20   A    
C25   H17   S    
C31   H2    S    
C27   H20   S    
Cu2   O12   S    
C52   H12   S    
C53   C57   A    
C24   H15   S    
C21   C34   A    
C54   H1    S    
C17   H19   S    
Cu1   Cu2   S    
C53   H16   S    
C43   C44   A    
C5    C9    A    
C37   C38   A    
C16   O11   A    
C47   C48   A    
C4    O9    A    
C17   C18   A    
C34   C45   A    
C42   C48   A    
C30   I1    S    
C50   N4    A    
C15   C58   A    
Cu2   O8    S    
C42   C43   A    
Cu1   O9    S    
C52   C53   A    
C46   I3    S    
C46   C47   A    
C38   H23   S    
C14   H11   S    
C14   C19   A    
C3    C26   A    
C51   C56   A    
C3    C5    A    
Cu2   O3    S    
C6    C7    A    
C28   C58   S    
C15   H10   S    
C26   H18   S    
C30   C36   A    
C32   C33   A    
Cu2   O10   S    
C19   N2    S    
C51   N1    A    
C11   N2    A    
C23   C52   A    
C38   C39   A    
C18   H21   S    
C13   O5    S    
C35   C41   A    
C55   H9    S    
C7    C8    A    
C10   C11   A    
C2    C5    A    
C20   C21   A    
C45   C55   A    
C1    O1    A    
C49   C50   A    
C14   C15   A    
C32   H4    S    
C3    C22   A    
C16   C41   S    
C12   C54   A    
Cu2   N3    S    
C1    C37   S    
C54   C57   A    
Cu1   O2    S    
