data_mof_unit_35631.cif
_audit_creation_date              2013-03-05T16:18:53-0500
_audit_creation_method            fapswitch 2.2
_symmetry_space_group_name_H-M    P1
_symmetry_Int_Tables_number       1
_space_group_crystal_system       triclinic
_cell_length_a                    9.70426
_cell_length_b                    10.630679
_cell_length_c                    16.63992
_cell_angle_alpha                 90.140799
_cell_angle_beta                  85.380294
_cell_angle_gamma                 89.753562
_cell_volume                      1711.0224578

loop_
_atom_site_label
_atom_site_type_symbol
_atom_site_description
_atom_site_fract_x
_atom_site_fract_y
_atom_site_fract_z
_atom_type_partial_charge
O1    O     O_R   0.383960 0.685090 0.500020 -0.595001
O2    O     O_R   0.616040 0.685320 0.499960 -0.637709
C1    C     C_R   0.500080 0.742225 0.496109 0.874738
O3    O     O_R   0.370240 0.499890 0.615830 -0.516776
O4    O     O_R   0.602330 0.500120 0.615770 -0.636159
C2    C     C_R   0.481404 0.501359 0.653786 0.900947
Zn1   Zn    Zn3+2 0.345040 0.499850 0.500040 1.019568
Zn2   Zn    Zn3+2 0.654960 0.500150 0.499960 0.913780
O5    O     O_R   0.383960 0.314680 0.500040 -0.616905
O6    O     O_R   0.616040 0.314910 0.499980 -0.633077
O7    O     O_R   0.397670 0.499880 0.384230 -0.631912
O8    O     O_R   0.629760 0.500110 0.384170 -0.625138
C3    C     C_R   0.500461 0.257596 0.497296 0.861924
C4    C     C_R   0.518690 0.507903 0.346695 0.886841
C5    C     C_R   0.472179 0.520137 0.740839 -0.082828
C6    C     C_R   0.593437 0.542229 0.779087 -0.191928
C7    C     C_R   0.585827 0.576129 0.859655 -0.133714
C8    C     C_R   0.456540 0.589406 0.903109 0.165613
C9    C     C_R   0.335696 0.561775 0.866065 -0.144576
C10   C     C_R   0.343392 0.527301 0.785183 -0.107240
C11   C     C_R   0.426587 0.684655 0.164083 0.348769
C12   C     C_R   0.417050 0.625671 0.238944 -0.210675
C13   C     C_R   0.652616 0.548661 0.215919 -0.182308
C14   C     C_R   0.661735 0.602967 0.139792 -0.175085
C15   C     C_R   0.547475 0.665961 0.112328 0.051989
C16   C     C_2   0.445574 0.619466 0.989089 -0.166872
C17   C     C_2   0.544866 0.679679 0.025282 -0.140753
C18   C     C_R   0.528307 0.555654 0.264494 -0.114542
H1    H     H_    0.694531 0.535638 0.746551 0.180291
H2    H     H_    0.323680 0.637658 0.278337 0.219647
H3    H     H_    0.741045 0.498589 0.235944 0.160929
H4    H     H_    0.635560 0.717066 0.991267 0.154623
H5    H     H_    0.235425 0.567808 0.899617 0.154244
H6    H     H_    0.248983 0.508010 0.757260 0.238882
H7    H     H_    0.357228 0.580933 0.025117 0.159295
H8    H     H_    0.681544 0.589597 0.887574 0.139069
H9    H     H_    0.754689 0.588368 0.100181 0.162125
C19   C     C_3   0.359523 0.929794 0.465347 0.175872
H10   H     H_    0.273911 0.898079 0.509295 0.135308
C20   C     C_3   0.359681 0.073527 0.468082 -0.436617
H11   H     H_    0.340432 0.114161 0.408354 0.205157
H12   H     H_    0.273099 0.105534 0.511491 0.171056
H13   H     H_    0.426376 0.895213 0.622125 0.214571
H14   H     H_    0.438500 0.109310 0.624892 0.190170
C21   C     C_3   0.514925 0.927133 0.580578 -0.451092
C22   C     C_3   0.623936 0.927645 0.438339 -0.348909
C23   C     C_3   0.499271 0.878529 0.493847 0.034159
H15   H     H_    0.722723 0.899345 0.463066 0.178423
H16   H     H_    0.626548 0.886192 0.376930 0.213112
C24   C     C_3   0.500019 0.121267 0.495086 0.105744
C25   C     C_3   0.520496 0.071365 0.580607 -0.403973
C26   C     C_3   0.617986 0.071661 0.434496 -0.383744
H17   H     H_    0.599875 0.102018 0.372236 0.196335
H18   H     H_    0.719807 0.109966 0.448779 0.177733
H19   H     H_    0.610952 0.888940 0.603983 0.193316
H20   H     H_    0.622077 0.102721 0.599973 0.187038
C27   C     C_3   0.910190 0.618353 0.537354 -0.308264
H21   H     H_    0.855841 0.632818 0.598052 0.198692
H22   H     H_    0.879236 0.699998 0.501064 0.148986
C28   C     C_3   0.072738 0.619010 0.539726 0.254128
H23   H     H_    0.111270 0.701887 0.504064 0.125097
H24   H     H_    0.873486 0.402626 0.613053 0.207054
C29   C     C_3   0.913928 0.394230 0.548770 -0.290708
C30   C     C_3   0.929911 0.491513 0.418548 -0.286946
N1    N     N_3   0.861190 0.500250 0.501720 -0.079960
H25   H     H_    0.900209 0.401946 0.389960 0.168762
H26   H     H_    0.892284 0.568751 0.380864 0.198050
N2    N     N_3   0.138550 0.503270 0.501080 -0.126876
C31   C     C_3   0.076653 0.389472 0.542064 0.605262
C32   C     C_3   0.092361 0.498717 0.417890 -0.464880
H27   H     H_    0.130090 0.582898 0.383475 0.231290
H28   H     H_    0.139560 0.416106 0.384784 0.183024
H29   H     H_    0.873916 0.303823 0.526595 0.124846
H30   H     H_    0.110144 0.304059 0.506741 0.050809
N3    N     N_R   0.330782 0.884200 0.384860 0.204832
O9    O     O_R   0.217459 0.822558 0.376215 -0.428992
O10   O     O_R   0.405864 0.919490 0.320607 -0.394830
N4    N     N_R   0.112006 0.637817 0.622393 0.240709
O11   O     O_R   0.043093 0.583818 0.683114 -0.399091
O12   O     O_R   0.195782 0.728698 0.637152 -0.432240
F1    F     F_    0.125523 0.372987 0.617127 -0.633943
N5    N     N_R   0.313147 0.760599 0.140672 0.218869
O13   O     O_R   0.189526 0.746489 0.175944 -0.369620
O14   O     O_R   0.334869 0.851707 0.089163 -0.347796

loop_
_geom_bond_atom_site_label_1
_geom_bond_atom_site_label_2
_geom_bond_distance
_ccdc_geom_bond_type
C29   N1    1.486293 S    
C9    C10   1.390100 A    
C8    C16   1.460578 S    
Zn1   O7    1.953435 S    
C22   H16   1.110192 S    
C28   N4    1.470069 S    
C16   C17   1.340806 D    
C25   H20   1.113632 S    
C19   H10   1.115549 S    
O7    C4    1.288243 A    
N4    O12   1.300926 A    
C27   H22   1.112542 S    
C21   C25   1.534472 S    
C5    C6    1.402560 A    
C22   C26   1.533518 S    
C8    C9    1.399997 A    
O5    C3    1.278335 A    
Zn1   N2    2.002685 S    
C29   C31   1.574656 S    
C6    C7    1.383509 A    
C24   C26   1.552863 S    
C13   C14   1.389881 A    
C32   H27   1.111038 S    
C7    H8    1.081397 S    
C30   C32   1.577805 S    
C10   H6    1.080287 S    
C20   H12   1.114485 S    
C2    C5    1.457298 S    
Zn2   N1    2.003885 S    
C12   C18   1.403232 A    
C11   C12   1.392550 A    
O3    Zn1   1.961634 S    
C26   H18   1.113308 S    
C24   C25   1.547378 S    
C19   N3    1.471243 S    
C21   C23   1.550867 S    
C5    C10   1.400925 A    
C22   H15   1.113779 S    
C30   H26   1.112461 S    
C14   C15   1.401245 A    
O3    C2    1.293338 A    
C9    H5    1.083715 S    
N4    O11   1.301911 A    
N2    C31   1.494561 S    
C27   C28   1.581118 S    
C29   H29   1.111370 S    
C6    H1    1.083579 S    
C28   H23   1.112587 S    
O1    C1    1.279540 A    
C30   H25   1.112742 S    
N3    O9    1.300265 A    
H24   C29   1.112559 S    
N3    O10   1.301379 A    
Zn2   O8    1.961635 S    
C7    C8    1.403100 A    
C31   H30   1.113381 S    
C13   C18   1.398545 A    
H13   C21   1.113305 S    
C28   N2    1.502833 S    
C19   C23   1.568305 S    
H14   C25   1.113650 S    
Zn2   O6    2.006710 S    
C20   H11   1.113814 S    
O8    C4    1.290440 A    
N5    O14   1.301481 A    
C26   H17   1.113019 S    
C14   H9    1.083852 S    
Zn1   O5    2.002792 S    
C11   C15   1.411323 A    
C22   C23   1.554707 S    
C12   H2    1.081592 S    
C17   H4    1.084806 S    
O1    Zn1   2.006711 S    
O2    Zn2   2.002794 S    
C27   N1    1.483550 S    
O6    C3    1.282593 A    
O4    Zn2   1.953435 S    
C15   C17   1.458359 S    
C30   N1    1.489609 S    
O2    C1    1.281530 A    
C19   C20   1.528557 S    
C27   H21   1.111159 S    
O4    C2    1.287508 A    
C20   C24   1.554853 S    
C1    C23   1.449589 S    
C31   F1    1.382578 S    
C3    C24   1.449677 S    
C16   H7    1.087958 S    
C11   N5    1.441665 S    
C21   H19   1.113955 S    
N2    C32   1.489715 S    
N5    O13   1.301809 A    
C32   H28   1.112675 S    
C4    C18   1.456219 S    
C13   H3    1.083406 S    
