data_mof_unit_18420.cif
_audit_creation_date              2012-12-10T17:49:34-0500
_audit_creation_method            fapswitch 2.2
_symmetry_space_group_name_H-M    P1
_symmetry_Int_Tables_number       1
_space_group_crystal_system       triclinic
_cell_length_a                    14.710374
_cell_length_b                    14.715381
_cell_length_c                    15.875381
_cell_angle_alpha                 76.973047
_cell_angle_beta                  102.696335
_cell_angle_gamma                 114.798489
_cell_volume                      3008.72294649

loop_
_atom_site_label
_atom_site_type_symbol
_atom_type_description
_atom_site_fract_x
_atom_site_fract_y
_atom_site_fract_z
_atom_type_partial_charge
C1    C     C_R   0.880336 0.312326 0.514960 0.793693
C2    C     C_3   0.038763 0.421363 0.072912 -0.465324
C3    C     C_3   0.999055 0.500378 0.082515 0.238621
C4    C     C_3   0.068759 0.605926 0.040433 -0.352201
C5    C     C_3   0.067483 0.606085 0.942567 -0.371440
C6    C     C_1   0.000475 0.499981 0.175138 -0.040835
C7    C     C_1   0.998633 0.500250 0.824644 -0.088062
C8    C     C_1   0.998924 0.500199 0.749143 -0.173730
C9    C     C_R   0.812696 0.204767 0.526086 -0.050856
C10   C     C_R   0.187306 0.794881 0.483979 -0.050567
C11   C     C_R   0.784047 0.027080 0.554792 -0.195048
C12   C     C_R   0.999660 0.500037 0.659638 0.827581
C13   C     C_R   0.850450 0.128338 0.546256 -0.196057
C14   C     C_R   0.708346 0.178909 0.516446 -0.250761
C15   C     C_R   0.639941 0.077457 0.527517 0.088506
C16   C     C_R   0.679330 0.001134 0.544560 0.162818
C17   C     C_R   0.533629 0.050005 0.519525 0.065710
C18   C     C_R   0.467501 0.946435 0.519533 0.064066
C19   C     C_R   0.510124 0.872577 0.537641 -0.219780
C20   C     C_R   0.613987 0.899707 0.550716 -0.223067
C21   C     C_R   0.491421 0.122336 0.513234 -0.217534
C22   C     C_R   0.387619 0.095070 0.502097 -0.226971
C23   C     C_R   0.119643 0.687653 0.486133 0.793095
C24   C     C_R   0.321874 0.995262 0.495856 0.162094
C25   C     C_R   0.360935 0.920071 0.503475 0.090011
C26   C     C_R   0.217029 0.969674 0.482662 -0.197362
C27   C     C_R   0.150062 0.869825 0.477591 -0.193512
C28   C     C_R   0.291668 0.821015 0.493962 -0.247113
C29   C     C_R   0.717744 0.671545 0.358667 -0.307108
C30   C     C_R   0.798375 0.640712 0.380216 0.096562
C31   C     C_R   0.713986 0.508043 0.487121 0.011106
C32   C     C_R   0.628764 0.535125 0.467908 -0.021209
C33   C     C_R   0.633111 0.619603 0.402582 0.159021
C34   C     C_R   0.000332 0.499971 0.340361 0.825310
C35   C     C_R   0.540782 0.482784 0.511298 0.080954
C36   C     C_R   0.459344 0.517272 0.489020 0.076815
C37   C     C_R   0.468849 0.603053 0.424480 -0.237583
C38   C     C_R   0.553655 0.652477 0.381989 -0.191851
C39   C     C_R   0.531332 0.397091 0.575931 -0.236479
C40   C     C_R   0.446404 0.347509 0.618260 -0.199936
C41   C     C_R   0.366897 0.380324 0.597584 0.164176
C42   C     C_R   0.371306 0.464866 0.532319 -0.021403
C43   C     C_R   0.282185 0.328324 0.641394 -0.318844
C44   C     C_R   0.201581 0.359215 0.619839 0.079990
C45   C     C_3   0.038238 0.421154 0.975252 -0.382365
C46   C     C_R   0.286054 0.491912 0.513009 0.008901
C47   C     C_3   0.889956 0.473674 0.934069 -0.391842
C48   C     C_3   0.889528 0.472271 0.032168 0.250621
C49   C     C_1   0.000896 0.499846 0.250821 -0.146319
C50   C     C_3   0.998566 0.500246 0.916804 0.259712
Cu1   Cu    Cu3+1 0.081750 0.475690 0.522550 0.937784
Cu2   Cu    Cu3+1 0.918250 0.524310 0.477450 0.949451
H1    H     H_    0.990692 0.344468 0.102755 0.168387
H2    H     H_    0.116248 0.438620 0.963808 0.180782
H3    H     H_    0.117073 0.439080 0.108230 0.188971
H4    H     H_    0.044085 0.665486 0.047120 0.210379
H5    H     H_    0.643307 0.840650 0.564624 0.151311
H6    H     H_    0.316916 0.762417 0.493265 0.145029
H7    H     H_    0.069502 0.851159 0.469791 0.154030
H8    H     H_    0.358630 0.152870 0.497955 0.151938
H9    H     H_    0.814524 0.968929 0.568808 0.135398
H10   H     H_    0.930967 0.146709 0.554203 0.152841
H11   H     H_    0.681951 0.239560 0.497715 0.152123
H12   H     H_    0.989591 0.344286 0.958169 0.169509
H13   H     H_    0.465553 0.792362 0.544816 0.147236
H14   H     H_    0.536547 0.200671 0.519408 0.141650
H15   H     H_    0.186872 0.026776 0.477442 0.134470
H16   H     H_    0.557283 0.717755 0.332626 0.144285
H17   H     H_    0.281402 0.553152 0.462816 0.121642
H18   H     H_    0.135631 0.318455 0.652895 0.125729
H19   H     H_    0.442744 0.282183 0.667576 0.145225
H20   H     H_    0.721900 0.736185 0.308461 0.143282
H21   H     H_    0.864279 0.681439 0.347099 0.133633
H22   H     H_    0.718639 0.446773 0.537282 0.122101
H23   H     H_    0.860197 0.529519 0.892014 0.210196
H24   H     H_    0.411914 0.634539 0.405146 0.130876
H25   H     H_    0.588421 0.365816 0.595475 0.129107
H26   H     H_    0.277967 0.263625 0.691548 0.139374
H27   H     H_    0.838851 0.398026 0.915533 0.140363
H28   H     H_    0.841323 0.394494 0.060224 0.111275
H29   H     H_    0.145919 0.627528 0.929913 0.168522
H30   H     H_    0.039765 0.664131 0.902022 0.179481
H31   H     H_    0.147604 0.625506 0.074887 0.157828
N1    N     N_R   0.795410 0.560790 0.443550 -0.180541
N2    N     N_R   0.204590 0.439170 0.556520 -0.176925
O1    O     O_R   0.977910 0.338120 0.529720 -0.591550
O2    O     O_R   0.839850 0.379180 0.491640 -0.589564
O3    O     O_R   0.069060 0.479460 0.639610 -0.575409
O4    O     O_R   0.931000 0.520530 0.601530 -0.578327
O5    O     O_R   0.160150 0.620820 0.508360 -0.589866
O6    O     O_R   0.022090 0.661880 0.470280 -0.592339
O7    O     O_R   0.069000 0.479470 0.398470 -0.584180
O8    O     O_R   0.930940 0.520540 0.360390 -0.558794
Cl1   Cl    Cl    0.832292 0.554405 0.043809 -0.640917

loop_
_geom_bond_atom_site_label_1
_geom_bond_atom_site_label_2
_ccdc_geom_bond_type
C10   C27   A    
C1    O2    A    
C40   H19   S    
C21   H14   S    
C41   C42   A    
C36   C42   A    
C19   C20   A    
C34   O8    A    
C47   H27   S    
C9    C14   A    
C3    C6    S    
Cu1   N2    S    
C7    C8    T    
C25   C28   A    
C26   C27   A    
C29   C30   A    
C48   Cl1   S    
C26   H15   S    
C39   H25   S    
C36   C37   A    
C24   C26   A    
C2    H3    S    
Cu1   O5    S    
C22   H8    S    
C15   C16   A    
C29   C33   A    
C3    C48   S    
C18   C19   A    
C42   C46   A    
Cu2   N1    S    
C9    C13   A    
C46   H17   S    
C13   H10   S    
C31   C32   A    
C44   H18   S    
C16   C20   A    
C29   H20   S    
C21   C22   A    
C4    H4    S    
C41   C43   A    
Cu2   O4    S    
C18   C25   A    
Cu1   O1    S    
C47   C50   S    
C2    C45   S    
C12   O3    A    
Cu1   Cu2   S    
C32   C35   A    
C12   O4    A    
C1    C9    S    
C24   C25   A    
C39   C40   A    
C30   H21   S    
C31   H22   S    
C17   C21   A    
C31   N1    A    
C43   H26   S    
C35   C36   A    
C35   C39   A    
C43   C44   A    
C37   C38   A    
Cu1   O7    S    
C5    H29   S    
C11   C16   A    
C47   C48   S    
C8    C12   S    
C17   C18   A    
C23   O5    A    
Cu2   O8    S    
C40   C41   A    
C37   H24   S    
C38   H16   S    
C45   H2    S    
C23   O6    A    
C5    C50   S    
C3    C4    S    
C10   C28   A    
C1    O1    A    
C15   C17   A    
C34   C49   S    
Cu2   O2    S    
C7    C50   S    
C4    C5    S    
C11   H9    S    
C2    H1    S    
Cu1   O3    S    
C28   H6    S    
C10   C23   S    
C45   H12   S    
C33   C38   A    
C32   C33   A    
C46   N2    A    
C2    C3    S    
C47   H23   S    
C27   H7    S    
C5    H30   S    
C11   C13   A    
C48   H28   S    
C4    H31   S    
C45   C50   S    
C14   H11   S    
C19   H13   S    
C22   C24   A    
C6    C49   T    
C30   N1    A    
C34   O7    A    
C14   C15   A    
Cu2   O6    S    
C20   H5    S    
C44   N2    A    
