data_mof_unit_29364.cif
_audit_creation_date              2012-12-11T14:08:37-0500
_audit_creation_method            fapswitch 2.2
_symmetry_space_group_name_H-M    P1
_symmetry_Int_Tables_number       1
_space_group_crystal_system       triclinic
_cell_length_a                    8.353958
_cell_length_b                    15.104156
_cell_length_c                    18.975251
_cell_angle_alpha                 95.437876
_cell_angle_beta                  93.169031
_cell_angle_gamma                 99.799153
_cell_volume                      2342.50607886

loop_
_atom_site_label
_atom_site_type_symbol
_atom_type_description
_atom_site_fract_x
_atom_site_fract_y
_atom_site_fract_z
_atom_type_partial_charge
Ba1   Ba    Ba6+2 0.852120 0.544010 0.466690 1.746354
Ba2   Ba    Ba6+2 0.337720 0.456070 0.533320 1.771159
C1    C     C_3   0.560366 0.847532 0.226547 0.668732
C2    C     C_3   0.619283 0.791911 0.284958 0.689605
C3    C     C_3   0.442437 0.331175 0.317586 0.316553
C4    C     C_3   0.415151 0.308668 0.237541 -0.321416
C5    C     C_3   0.068924 0.235417 0.729209 0.500213
C6    C     C_3   0.087499 0.195497 0.801064 0.628795
C7    C     C_3   0.488692 0.213929 0.674115 0.367504
C8    C     C_3   0.462005 0.115405 0.688594 -0.236313
C9    C     C_R   0.308965 0.533147 0.297254 -0.286493
C10   C     C_R   0.153296 0.486628 0.274826 0.047124
C11   C     C_R   0.101484 0.475842 0.201943 -0.128901
C12   C     C_3   0.125225 0.724718 0.271610 0.446873
C13   C     C_R   0.206287 0.511509 0.151190 -0.009520
C14   C     C_R   0.365460 0.556132 0.175737 -0.135455
C15   C     C_R   0.416182 0.566095 0.248351 -0.008041
C16   C     C_R   0.203872 0.572871 0.030996 -0.055953
C17   C     C_R   0.151634 0.566050 0.958640 -0.055742
C18   C     C_R   0.043914 0.489408 0.925802 0.044820
C19   C     C_R   0.990877 0.419569 0.967956 -0.050078
C20   C     C_R   0.043222 0.426368 0.040432 -0.050500
C21   C     C_R   0.150547 0.503253 0.073358 0.043913
C22   C     C_R   0.822118 0.444496 0.825136 -0.088109
C23   C     C_3   0.069200 0.728504 0.194200 0.314523
C24   C     C_R   0.766069 0.442195 0.753545 0.074564
C25   C     C_R   0.035019 0.514228 0.725790 0.062416
C26   C     C_R   0.091070 0.518016 0.797662 -0.111503
C27   C     C_R   0.985405 0.483328 0.848557 -0.016407
C28   C     C_R   0.872805 0.477806 0.705366 -0.213247
C29   C     C_R   0.753843 0.230936 0.527635 0.077357
C30   C     C_R   0.850812 0.170690 0.549626 0.057070
C31   C     C_R   0.791375 0.077455 0.537919 -0.145443
C32   C     C_R   0.636251 0.043273 0.501565 0.024383
C33   C     C_R   0.551323 0.106987 0.472723 -0.132461
C34   C     C_3   0.215146 0.738854 0.626138 0.219797
C35   C     C_R   0.609350 0.199648 0.485676 -0.037367
C36   C     C_R   0.409831 0.910555 0.456087 0.033587
C37   C     C_R   0.345100 0.818407 0.444764 0.008558
C38   C     C_R   0.583601 0.785638 0.509391 0.084290
C39   C     C_R   0.649237 0.878171 0.519289 -0.059325
C40   C     C_R   0.565913 0.943018 0.491393 0.069501
C41   C     C_R   0.433783 0.755967 0.470357 -0.257169
C42   C     C_3   0.167684 0.828496 0.653778 0.183665
C43   C     C_3   0.942816 0.270110 0.379811 0.255384
C44   C     C_3   0.915760 0.168457 0.359304 0.256277
C45   C     C_3   0.751169 0.660916 0.681540 0.302269
C46   C     C_3   0.774637 0.688474 0.761204 -0.347695
H1    H     H_    0.247365 0.858791 0.701846 0.132673
H2    H     H_    0.039571 0.816623 0.668436 0.093115
H3    H     H_    0.827596 0.289328 0.396219 -0.040073
H4    H     H_    0.037586 0.288238 0.424581 0.085946
H5    H     H_    0.860234 0.132026 0.402220 0.018073
H6    H     H_    0.832749 0.151329 0.310445 0.151639
H7    H     H_    0.869112 0.648974 0.662184 -0.028685
H8    H     H_    0.657743 0.598461 0.671301 0.037351
H9    H     H_    0.866657 0.751340 0.772660 0.153716
H10   H     H_    0.817367 0.634653 0.789028 0.037168
H11   H     H_    0.657473 0.700449 0.781869 0.142102
H12   H     H_    0.513812 0.765192 0.314431 -0.249978
H13   H     H_    0.327245 0.346190 0.338353 0.020335
H14   H     H_    0.539872 0.391722 0.328947 0.029678
H15   H     H_    0.315787 0.249409 0.224517 0.175415
H16   H     H_    0.380747 0.366962 0.212768 0.050837
H17   H     H_    0.528581 0.292890 0.215363 0.134454
H18   H     H_    0.456758 0.802897 0.195160 -0.045265
H19   H     H_    0.151182 0.301795 0.731537 0.035089
H20   H     H_    0.027148 0.234113 0.841346 0.028433
H21   H     H_    0.592065 0.224561 0.640461 0.058604
H22   H     H_    0.381096 0.227110 0.643754 0.069085
H23   H     H_    0.568357 0.101668 0.720406 0.199296
H24   H     H_    0.446906 0.071487 0.637492 0.094682
H25   H     H_    0.061198 0.658812 0.285390 -0.034823
H26   H     H_    0.351431 0.098567 0.717562 0.222288
H27   H     H_    0.216162 0.548462 0.813733 0.091676
H28   H     H_    0.193191 0.622090 0.928736 0.087287
H29   H     H_    0.283826 0.634013 0.054075 0.107323
H30   H     H_    0.979723 0.440155 0.185278 0.089036
H31   H     H_    0.910195 0.358777 0.944682 0.108225
H32   H     H_    0.001201 0.370479 0.070395 0.092998
H33   H     H_    0.738211 0.416857 0.862215 0.098150
H34   H     H_    0.451314 0.581629 0.138640 0.096066
H35   H     H_    0.826773 0.481135 0.651792 0.110491
H36   H     H_    0.257774 0.725514 0.275460 -0.134276
H37   H     H_    0.349871 0.540023 0.352928 0.058254
H38   H     H_    0.331224 0.955131 0.439268 0.131264
H39   H     H_    0.869966 0.033767 0.556632 0.122460
H40   H     H_    0.763585 0.897444 0.550533 0.093384
H41   H     H_    0.441451 0.087331 0.438557 0.148262
H42   H     H_    0.381494 0.684808 0.463839 0.051237
H43   H     H_    0.111967 0.674616 0.160640 -0.068162
H44   H     H_    0.935256 0.715264 0.187510 0.138323
H45   H     H_    0.340959 0.751639 0.609079 0.004156
H46   H     H_    0.130962 0.706943 0.580271 0.074780
O1    O     O_2   0.860810 0.457220 0.330270 -0.455391
O2    O     O_3   0.699468 0.731168 0.648906 -0.625594
O3    O     O_3   0.086817 0.797066 0.316473 -0.472894
O4    O     O_2   0.328890 0.542810 0.669780 -0.459989
O5    O     O_3   0.074140 0.545440 0.583400 -0.471064
O6    O     O_3   0.534240 0.380100 0.625630 -0.461225
O7    O     O_3   0.212557 0.686851 0.683516 -0.659524
O8    O     O_3   0.605420 0.392640 0.463580 -0.419392
O9    O     O_3   0.108810 0.335010 0.590270 -0.414752
O10   O     O_2   0.178290 0.174999 0.539784 -0.469286
O11   O     O_3   0.102996 0.176710 0.671620 -0.601206
O12   O     O_3   0.115570 0.454630 0.416610 -0.487743
O13   O     O_3   0.584290 0.607440 0.536430 -0.489479
O14   O     O_2   0.331880 0.280530 0.464130 -0.445238
O15   O     O_3   0.488531 0.256834 0.347231 -0.601813
O16   O     O_2   0.422204 0.428412 0.749982 -0.499199
O17   O     O_3   0.519614 0.271705 0.738009 -0.508340
O18   O     O_3   0.655480 0.619980 0.374380 -0.460988
O19   O     O_2   0.743028 0.557352 0.249733 -0.494268
O20   O     O_3   0.988849 0.312813 0.320112 -0.625028
O21   O     O_3   0.696676 0.723315 0.253648 -0.600920
O22   O     O_2   0.857830 0.719490 0.535920 -0.465914
O23   O     O_3   0.080900 0.665060 0.409740 -0.516445
O24   O     O_2   0.011710 0.822587 0.449354 -0.362977
P1    P     P_3+3 0.028530 0.430100 0.340790 1.010793
P2    P     P_3+3 0.683360 0.705380 0.556640 1.015422
P3    P     P_3+3 0.134169 0.779546 0.405138 1.124795
P4    P     P_3+3 0.161190 0.569970 0.659220 1.003356
P5    P     P_3+3 0.060724 0.215566 0.588469 1.065941
P6    P     P_3+3 0.625900 0.616773 0.281687 0.982638
P7    P     P_3+3 0.508804 0.280032 0.439699 1.050211
P8    P     P_3+3 0.559787 0.384120 0.718064 1.049182
Cl1   Cl    Cl    0.761991 0.861200 0.348795 -0.524414
Cl2   Cl    Cl    0.186907 0.908058 0.590400 -0.746669
Cl3   Cl    Cl    0.103016 0.131353 0.342813 -0.548418
S1    S     S_3+6 0.710523 0.877505 0.164710 0.063201
O25   O     O_2   0.866981 0.925262 0.204083 -0.138713
O26   O     O_2   0.651731 0.938844 0.114993 -0.187910
O27   O     O_3   0.740461 0.783446 0.116273 -0.549329
H47   H     H_    0.808200 0.805220 0.078072 0.385130
S2    S     S_3+6 0.488567 0.948146 0.261291 0.022401
O28   O     O_2   0.348165 0.923085 0.305362 -0.296077
O29   O     O_2   0.621164 0.011769 0.305998 -0.295759
O30   O     O_3   0.424841 0.002020 0.194333 -0.381881
H48   H     H_    0.385802 0.055025 0.217716 0.388041
Cl4   Cl    Cl    0.144915 0.832842 0.161720 -0.470282
Cl5   Cl    Cl    0.866050 0.253380 0.721050 -0.779915
Cl6   Cl    Cl    0.292600 0.210492 0.836645 -0.589962
S3    S     S_3+6 0.994436 0.078654 0.798847 0.033646
O31   O     O_2   0.044764 0.043074 0.866439 -0.169305
O32   O     O_2   0.812348 0.070527 0.793713 -0.276764
O33   O     O_3   0.051291 0.015491 0.729985 -0.479514
H49   H     H_    0.958760 0.005758 0.693488 0.358457
Cl7   Cl    Cl    0.810591 0.345996 0.554982 -0.669871

loop_
_geom_bond_atom_site_label_1
_geom_bond_atom_site_label_2
_ccdc_geom_bond_type
C42   H1    S    
C7    O17   S    
S3    O33   S    
O12   P1    S    
S2    O30   S    
C1    S1    S    
C39   C40   A    
C2    O21   S    
C17   C18   A    
C32   C40   S    
C12   H36   S    
O8    P7    S    
O9    P5    S    
Ba1   O5    S    
C44   Cl3   S    
S2    O28   D    
O10   P5    D    
C43   C44   S    
C36   H38   S    
O6    P8    S    
C26   C27   A    
C33   C35   A    
C22   C24   A    
O18   P6    S    
Ba1   O18   S    
Ba1   P1    S    
C36   C37   A    
C32   C33   A    
C43   H3    S    
S3    O31   D    
Ba2   O13   S    
O11   P5    S    
S3    O32   D    
Ba1   Ba2   S    
C24   P8    S    
C4    H16   S    
C28   H35   S    
O23   P3    S    
C22   C27   A    
O3    P3    S    
C34   H45   S    
C4    H17   S    
C42   Cl2   S    
C29   C30   A    
C14   C15   A    
C45   O2    S    
C5    O11   S    
Ba1   O22   S    
O14   P7    D    
C7    C8    S    
O20   P1    S    
Ba1   O12   S    
C8    H23   S    
C13   C21   S    
Ba2   O6    S    
C19   C20   A    
C25   C28   A    
C30   P5    S    
C2    H12   S    
C43   O20   S    
C25   P4    S    
C35   P7    S    
C18   C27   S    
Ba2   P4    S    
C23   H43   S    
C41   H42   S    
C16   C21   A    
C12   H25   S    
C46   H9    S    
C23   Cl4   S    
C7    H22   S    
C16   C17   A    
C37   C41   A    
C43   H4    S    
O1    P1    D    
Ba2   O12   S    
O22   P2    D    
C34   O7    S    
O24   P3    D    
C4    H15   S    
S1    O26   D    
C22   H33   S    
C34   H46   S    
C10   P1    S    
C15   P6    S    
C45   C46   S    
Ba1   O1    S    
C19   H31   S    
O17   P8    S    
C14   H34   S    
C31   C32   A    
C3    H13   S    
C46   H11   S    
Ba1   O23   S    
C10   C11   A    
O16   P8    D    
O5    P4    S    
O4    P4    D    
C29   Cl7   S    
C33   H41   S    
O15   P7    S    
C38   C39   A    
C38   P2    S    
C44   H6    S    
Ba1   O13   S    
Ba2   O5    S    
C6    H20   S    
C11   C13   A    
O27   H47   S    
C34   C42   S    
C1    H18   S    
C1    C2    S    
O13   P2    S    
C5    Cl5   S    
C12   O3    S    
C45   H7    S    
O33   H49   S    
C42   H2    S    
S2    O29   D    
C39   H40   S    
C11   H30   S    
C17   H28   S    
C23   H44   S    
O21   P6    S    
C2    Cl1   S    
O2    P2    S    
C7    H21   S    
C9    C15   A    
C9    C10   A    
C46   H10   S    
O7    P4    S    
C37   P3    S    
C38   C41   A    
S1    O25   D    
C31   H39   S    
C20   H32   S    
C30   C31   A    
C8    H26   S    
C3    C4    S    
O19   P6    D    
C3    O15   S    
Ba2   O9    S    
C9    H37   S    
C16   H29   S    
C44   H5    S    
Ba2   O14   S    
C3    H14   S    
C6    S3    S    
C1    S2    S    
C12   C23   S    
C5    C6    S    
O30   H48   S    
C5    H19   S    
S1    O27   S    
C36   C40   A    
C29   C35   A    
C18   C19   A    
Ba2   O4    S    
C25   C26   A    
Ba2   O8    S    
C20   C21   A    
C6    Cl6   S    
C26   H27   S    
Ba1   O8    S    
Ba1   P2    S    
C13   C14   A    
C45   H8    S    
C24   C28   A    
C8    H24   S    
