data_mof_unit_14814.cif
_audit_creation_date              2012-12-10T18:03:59-0500
_audit_creation_method            fapswitch 2.2
_symmetry_space_group_name_H-M    P1
_symmetry_Int_Tables_number       1
_space_group_crystal_system       triclinic
_cell_length_a                    10.774621
_cell_length_b                    9.525059
_cell_length_c                    10.859614
_cell_angle_alpha                 90.039736
_cell_angle_beta                  90.151077
_cell_angle_gamma                 89.891828
_cell_volume                      1114.50412228

loop_
_atom_site_label
_atom_site_type_symbol
_atom_type_description
_atom_site_fract_x
_atom_site_fract_y
_atom_site_fract_z
_atom_type_partial_charge
C1    C     C_R   0.262449 0.500134 0.495423 0.775016
C2    C     C_R   0.737605 0.499848 0.496618 0.769053
C3    C     C_R   0.427145 0.074503 0.419417 -0.010642
C4    C     C_R   0.572995 0.074296 0.580481 -0.013560
C5    C     C_R   0.427199 0.925749 0.419387 -0.012235
C6    C     C_R   0.572990 0.925506 0.580479 -0.007749
C7    C     C_R   0.499680 0.499832 0.262657 0.780089
C8    C     C_R   0.500070 0.499907 0.737374 0.812985
C9    C     C_R   0.499733 0.621257 0.062180 0.137631
C10   C     C_R   0.500088 0.621365 0.938219 0.140888
C11   C     C_R   0.499365 0.498090 0.130116 -0.098459
C12   C     C_R   0.499845 0.498231 0.869991 -0.105491
C13   C     C_R   0.498935 0.370050 0.064521 -0.198387
C14   C     C_R   0.499188 0.370117 0.935377 -0.211357
C15   C     C_3   0.501095 0.777473 0.929614 -0.463904
C16   C     C_3   0.500603 0.777264 0.071476 -0.461072
C17   C     C_R   0.064527 0.422056 0.575430 -0.157144
C18   C     C_R   0.936681 0.419596 0.574210 -0.161041
C19   C     C_R   0.871425 0.499356 0.488045 -0.121278
C20   C     C_R   0.128585 0.500640 0.487996 -0.117798
C21   C     C_R   0.933784 0.578198 0.396888 -0.027642
C22   C     C_R   0.064993 0.573996 0.393575 -0.015958
Cu1   Cu    Cu3+1 0.500000 0.640660 0.500000 0.948474
Cu2   Cu    Cu3+1 0.500000 0.359340 0.500000 0.952399
H1    H     H_    0.498508 0.270205 0.112193 0.168598
H2    H     H_    0.498932 0.270299 0.887538 0.166637
H3    H     H_    0.588745 0.817941 0.889333 0.194862
H4    H     H_    0.413433 0.819209 0.111981 0.199703
H5    H     H_    0.414299 0.819727 0.888184 0.210413
H6    H     H_    0.587929 0.817568 0.113104 0.214992
H7    H     H_    0.113948 0.363352 0.645680 0.149944
H8    H     H_    0.888216 0.359062 0.643525 0.143248
H9    H     H_    0.368702 0.130581 0.354865 0.126209
H10   H     H_    0.631560 0.130233 0.644923 0.119004
H11   H     H_    0.368908 0.869965 0.354738 0.111325
H12   H     H_    0.631567 0.869405 0.644883 0.121493
N1    N     N_R   0.500000 0.852070 0.500000 -0.160558
N2    N     N_R   0.500000 0.147940 0.500000 -0.161832
O1    O     O_R   0.319640 0.618740 0.499990 -0.590691
O2    O     O_R   0.680360 0.618740 0.500010 -0.584346
O3    O     O_R   0.319620 0.381170 0.499990 -0.572609
O4    O     O_R   0.680380 0.381170 0.500010 -0.571164
O5    O     O_R   0.499990 0.618810 0.319660 -0.595143
O6    O     O_R   0.500010 0.618810 0.680340 -0.578943
O7    O     O_R   0.499960 0.381240 0.319650 -0.587062
O8    O     O_R   0.500040 0.381240 0.680350 -0.591410
C23   C     C_2   0.860785 0.663153 0.307094 0.471226
H13   H     H_    0.771958 0.625360 0.273541 0.040790
O9    O     O_2   0.896721 0.778491 0.273745 -0.516057
C24   C     C_2   0.135708 0.632757 0.287423 0.392308
H14   H     H_    0.228565 0.673516 0.299567 0.064242
O10   O     O_2   0.093120 0.629715 0.183157 -0.517994

loop_
_geom_bond_atom_site_label_1
_geom_bond_atom_site_label_2
_ccdc_geom_bond_type
C16   H4    S    
C24   O10   D    
Cu1   Cu2   S    
C6    H12   S    
C2    O2    A    
C7    O5    A    
Cu2   O4    S    
C9    C10   A    
Cu2   N2    S    
C23   H13   S    
C22   C24   S    
C8    C12   S    
Cu2   O8    S    
C3    C5    A    
C17   C18   A    
C6    N1    A    
C23   O9    D    
C21   C22   A    
C14   H2    S    
C7    C11   S    
Cu2   O3    S    
C11   C13   A    
C13   H1    S    
C10   C12   A    
C2    O4    A    
Cu1   O1    S    
Cu2   O7    S    
C5    H11   S    
C1    O3    A    
C19   C21   A    
C9    C16   S    
C20   C22   A    
C15   H5    S    
C4    H10   S    
C10   C15   S    
C9    C11   A    
C8    O6    A    
C17   H7    S    
C8    O8    A    
C18   H8    S    
C5    N1    A    
C3    H9    S    
C16   H6    S    
Cu1   O2    S    
C7    O7    A    
C17   C20   A    
Cu1   O5    S    
C4    C6    A    
C18   C19   A    
C4    N2    A    
C1    O1    A    
C1    C20   S    
C13   C14   A    
C24   H14   S    
C2    C19   S    
Cu1   N1    S    
C15   H3    S    
Cu1   O6    S    
C15   C16   S    
C3    N2    A    
C12   C14   A    
C21   C23   S    
