data_mof_unit_40325.cif
_audit_creation_date              2013-03-05T15:50:44-0500
_audit_creation_method            fapswitch 2.2
_symmetry_space_group_name_H-M    P1
_symmetry_Int_Tables_number       1
_space_group_crystal_system       triclinic
_cell_length_a                    10.771895
_cell_length_b                    12.073883
_cell_length_c                    13.002051
_cell_angle_alpha                 91.665913
_cell_angle_beta                  93.637962
_cell_angle_gamma                 85.923564
_cell_volume                      1682.83900935

loop_
_atom_site_label
_atom_site_type_symbol
_atom_site_description
_atom_site_fract_x
_atom_site_fract_y
_atom_site_fract_z
_atom_type_partial_charge
O1    O     O_R   0.506240 0.421700 0.658830 -0.668869
O2    O     O_R   0.491240 0.609310 0.646410 -0.574265
C1    C     C_R   0.488494 0.520060 0.699386 0.939883
O3    O     O_R   0.692710 0.406190 0.506230 -0.642562
O4    O     O_R   0.677700 0.593810 0.493810 -0.606662
C2    C     C_R   0.742192 0.499619 0.507744 0.979756
Zn1   Zn    Zn3+2 0.510020 0.374730 0.508290 1.018350
Zn2   Zn    Zn3+2 0.489980 0.625270 0.491710 1.000468
O5    O     O_R   0.508760 0.390690 0.353590 -0.559520
O6    O     O_R   0.493760 0.578300 0.341170 -0.600246
O7    O     O_R   0.322300 0.406190 0.506190 -0.545166
O8    O     O_R   0.307290 0.593810 0.493770 -0.655212
C3    C     C_R   0.503319 0.480121 0.300060 0.937648
C4    C     C_R   0.258389 0.501099 0.506417 0.850395
C5    C     C_3   0.942095 0.385784 0.569498 0.105871
C6    C     C_3   0.087787 0.381071 0.553091 0.261084
H1    H     H_    0.898206 0.425633 0.358403 0.215591
C7    C     C_3   0.918806 0.502175 0.403235 -0.533471
C8    C     C_3   0.923683 0.604834 0.576414 0.119935
C9    C     C_3   0.879450 0.496562 0.516649 -0.100968
H2    H     H_    0.892124 0.674187 0.524018 0.141550
C10   C     C_3   0.121773 0.502260 0.512426 -0.042976
C11   C     C_3   0.057831 0.526527 0.399576 0.168213
C12   C     C_3   0.070531 0.601802 0.588635 0.067131
H3    H     H_    0.859104 0.567915 0.361723 0.179768
C13   C     C_R   0.508191 0.471517 0.189294 -0.201114
C14   C     C_R   0.466842 0.529641 0.808880 -0.110435
C15   C     C_R   0.417578 0.640420 0.960074 -0.142540
C16   C     C_R   0.428701 0.632981 0.854422 0.048854
C17   C     C_R   0.484121 0.434551 0.870588 0.049196
C18   C     C_R   0.501824 0.448671 0.976456 0.106958
C19   C     C_R   0.457983 0.550060 0.021909 -0.041113
C20   C     C_R   0.453604 0.558830 0.128152 0.234487
C21   C     C_R   0.573870 0.379663 0.144364 0.043609
C22   C     C_R   0.565271 0.364968 0.037149 0.089550
H4    H     H_    0.382979 0.719118 0.993048 0.213506
N1    N     N_R   0.523380 0.207800 0.519350 -0.179397
N2    N     N_R   0.476620 0.792180 0.480650 -0.132098
C23   C     C_R   0.385574 0.954150 0.394605 0.270044
C24   C     C_R   0.396162 0.839042 0.407751 -0.048420
C25   C     C_R   0.543687 0.855433 0.548562 0.193248
C26   C     C_R   0.530343 0.974463 0.544675 -0.088127
C27   C     C_R   0.457988 0.024350 0.461348 -0.177201
C28   C     C_R   0.461696 0.141596 0.447227 0.440585
C29   C     C_R   0.593138 0.158653 0.600365 0.144324
C30   C     C_R   0.590063 0.044062 0.618647 0.043357
H5    H     H_    0.338964 0.786050 0.359414 0.205569
N3    N     N_3   0.887657 0.283943 0.525939 -0.419067
H6    H     H_    0.866811 0.282819 0.446633 0.248732
H7    H     H_    0.940488 0.211761 0.548801 0.211888
N4    N     N_3   0.109288 0.711897 0.560240 -0.421990
H8    H     H_    0.049708 0.775512 0.589975 0.214819
H9    H     H_    0.196932 0.726893 0.595084 0.215695
N5    N     N_3   0.062692 0.643783 0.371344 -0.424397
H10   H     H_    0.154479 0.661586 0.361357 0.242711
H11   H     H_    0.015103 0.657232 0.299606 0.210397
N6    N     N_R   0.394043 0.656742 0.173354 0.205837
O9    O     O_R   0.274381 0.662574 0.183291 -0.434715
O10   O     O_R   0.454747 0.746010 0.186100 -0.366884
N7    N     N_3   0.656683 0.307457 0.207442 -0.410926
H12   H     H_    0.639697 0.224956 0.189469 0.247905
H13   H     H_    0.748150 0.319196 0.189963 0.176226
N8    N     N_3   0.629089 0.270360 0.989346 -0.446064
H14   H     H_    0.724196 0.269403 0.011228 0.191207
H15   H     H_    0.593708 0.198155 0.014557 0.219226
N9    N     N_3   0.395125 0.729181 0.793893 -0.441481
H16   H     H_    0.449938 0.792923 0.821729 0.197993
H17   H     H_    0.302042 0.754669 0.805075 0.183204
N10   N     N_3   0.464781 0.324695 0.830550 -0.428063
H18   H     H_    0.385689 0.325978 0.779571 0.213162
H19   H     H_    0.543735 0.293218 0.795142 0.250300
N11   N     N_R   0.418340 0.186950 0.349786 0.238905
O11   O     O_R   0.464209 0.145192 0.265847 -0.399385
O12   O     O_R   0.324460 0.260445 0.342502 -0.270153
N12   N     N_3   0.914075 0.388455 0.679262 -0.416450
H20   H     H_    0.940522 0.312042 0.712886 0.173033
H21   H     H_    0.958061 0.449076 0.723145 0.241225
N13   N     N_3   0.676537 0.220211 0.666157 -0.475758
H22   H     H_    0.766673 0.184201 0.658639 0.182897
H23   H     H_    0.678304 0.300877 0.643533 0.282820
N14   N     N_R   0.294415 0.996690 0.318037 0.244980
O13   O     O_R   0.293786 0.954961 0.224632 -0.289785
O14   O     O_R   0.196015 0.055107 0.346644 -0.277439
N15   N     N_3   0.640354 0.999555 0.715546 -0.460126
H24   H     H_    0.692067 0.054802 0.760550 0.220855
H25   H     H_    0.564443 0.984419 0.758163 0.188531
N16   N     N_3   0.635081 0.797924 0.615473 -0.334657
H26   H     H_    0.607694 0.803234 0.691060 0.229173
H27   H     H_    0.720635 0.832060 0.609325 0.228302
N17   N     N_3   0.162629 0.351334 0.650156 -0.454397
H28   H     H_    0.144294 0.271506 0.671510 0.204586
H29   H     H_    0.146719 0.398935 0.715786 0.170244
N18   N     N_R   0.122384 0.289577 0.477472 0.264292
O15   O     O_R   0.063646 0.277282 0.387897 -0.355628
O16   O     O_R   0.200547 0.207646 0.507085 -0.358473
N19   N     N_3   0.116890 0.457188 0.318521 -0.334258
H30   H     H_    0.206247 0.481774 0.307955 0.205594
H31   H     H_    0.065520 0.469060 0.248180 0.208078
N20   N     N_R   0.864153 0.635011 0.674070 0.198548
O17   O     O_R   0.886594 0.729051 0.720570 -0.434347
O18   O     O_R   0.774559 0.580675 0.706217 -0.407025
N21   N     N_3   0.116603 0.583730 0.696220 -0.476981
H32   H     H_    0.213855 0.572213 0.699334 0.160522
H33   H     H_    0.098323 0.654817 0.741940 0.247992

loop_
_geom_bond_atom_site_label_1
_geom_bond_atom_site_label_2
_geom_bond_distance
_ccdc_geom_bond_type
C24   H5    1.080501 S    
N9    H17   1.045581 S    
N16   H26   1.042808 S    
N8    H15   1.045194 S    
C6    N17   1.492545 S    
N18   O15   1.299457 A    
C14   C16   1.411124 A    
C25   C26   1.436167 A    
C5    N12   1.476330 S    
C8    C9    1.588166 S    
N12   H20   1.045819 S    
N14   O13   1.301030 A    
N17   H28   1.046260 S    
C29   C30   1.413669 A    
Zn1   O7    2.029362 S    
C6    N18   1.500247 S    
C15   C16   1.386223 A    
C8    H2    1.115421 S    
N15   H25   1.045796 S    
C17   C18   1.384863 A    
O7    C4    1.294210 A    
N13   H23   1.027365 S    
N6    O10   1.301070 A    
C5    C6    1.593979 S    
C11   N19   1.474561 S    
N7    H13   1.045295 S    
C21   C22   1.398177 A    
C26   C30   1.412930 A    
N10   H19   1.035979 S    
O5    C3    1.297426 A    
C13   C21   1.405346 A    
C18   C19   1.407845 A    
N19   H31   1.046568 S    
C20   N6    1.433255 S    
C28   N11   1.432481 S    
C29   N13   1.432373 S    
C12   N21   1.471344 S    
C12   N4    1.484784 S    
N3    H7    1.046350 S    
N9    H16   1.045566 S    
N18   O16   1.303178 A    
C14   C17   1.414477 A    
C21   N7    1.437568 S    
N10   H18   1.045228 S    
C7    H3    1.115001 S    
Zn2   N2    2.018816 S    
C5    N3    1.482045 S    
O3    Zn1   2.032549 S    
N14   O14   1.299158 A    
C5    C9    1.607106 S    
C25   N16   1.427391 S    
N5    H11   1.046641 S    
N4    H8    1.046639 S    
C15   C19   1.401842 A    
N15   H24   1.042313 S    
C23   N14   1.432871 S    
N2    C25   1.357621 A    
N11   O12   1.297769 A    
C23   C24   1.400917 A    
C8    N20   1.483035 S    
N13   H22   1.044434 S    
C23   C27   1.430122 A    
N8    H14   1.045060 S    
C7    C11   1.550439 S    
N7    H12   1.042724 S    
O1    C1    1.291924 A    
C27   C28   1.436437 A    
C13   C20   1.410803 A    
N17   H29   1.031453 S    
N20   O17   1.301433 A    
Zn2   O8    2.032549 S    
N19   H30   1.045598 S    
H1    C7    1.106584 S    
Zn1   N1    2.019057 S    
N21   H33   1.044024 S    
N12   H21   1.037537 S    
C30   N15   1.442543 S    
O3    C2    1.280569 A    
N3    H6    1.041191 S    
N20   O18   1.301418 A    
O8    C4    1.289599 A    
N16   H27   1.044430 S    
C10   C12   1.623831 S    
C3    C13   1.444924 S    
C26   C27   1.417079 A    
N1    C29   1.377978 A    
C17   N10   1.434958 S    
C11   N5    1.478168 S    
Zn1   O5    2.025294 S    
N5    H10   1.043447 S    
C6    C10   1.643247 S    
O1    Zn1   2.024029 S    
O2    Zn2   2.025296 S    
N11   O11   1.300171 A    
O6    C3    1.286181 A    
O4    Zn2   2.029361 S    
C2    C9    1.473622 S    
C19   C20   1.385891 A    
C4    C10   1.477688 S    
N1    C28   1.382992 A    
C1    C14   1.457145 S    
C8    C12   1.577650 S    
N2    C24   1.351624 A    
N6    O9    1.300321 A    
O4    C2    1.300947 A    
C18   C22   1.410995 A    
O2    C1    1.298765 A    
C7    C9    1.564615 S    
N21   H32   1.045295 S    
C16   N9    1.434081 S    
C15   H4    1.082513 S    
Zn2   O6    2.024029 S    
C10   C11   1.606620 S    
C22   N8    1.437009 S    
N4    H9    1.046229 S    
