data_mof_unit_20456.cif
_audit_creation_date              2012-12-11T14:17:47-0500
_audit_creation_method            fapswitch 2.2
_symmetry_space_group_name_H-M    P1
_symmetry_Int_Tables_number       1
_space_group_crystal_system       triclinic
_cell_length_a                    6.942343
_cell_length_b                    13.621204
_cell_length_c                    20.415334
_cell_angle_alpha                 102.092269
_cell_angle_beta                  90.143619
_cell_angle_gamma                 90.60379
_cell_volume                      1887.57421813

loop_
_atom_site_label
_atom_site_type_symbol
_atom_type_description
_atom_site_fract_x
_atom_site_fract_y
_atom_site_fract_z
_atom_type_partial_charge
O1    O     O_R   0.506860 0.599390 0.449240 -0.541464
O2    O     O_R   0.180220 0.594600 0.586780 -0.541321
O3    O     O_R   0.004500 0.400610 0.550760 -0.536954
C1    C     C_R   0.349135 0.615608 0.613636 0.742542
O4    O     O_R   0.177490 0.611290 0.451970 -0.543070
O5    O     O_R   0.001750 0.417420 0.414990 -0.548036
C2    C     C_R   0.346540 0.636739 0.434129 0.716815
O6    O     O_R   0.509610 0.582580 0.585010 -0.543909
O7    O     O_3   0.337420 0.436370 0.488020 -0.369426
V1    V     V_3+5 0.064680 0.511800 0.502220 1.408805
O8    O     O_R   0.671710 0.405400 0.413220 -0.537598
C3    C     C_R   0.839858 0.381165 0.387707 0.719049
O9    O     O_R   0.674440 0.388710 0.548030 -0.543494
C4    C     C_R   0.843090 0.362692 0.565451 0.697908
V2    V     V_3+5 0.564010 0.488200 0.497780 1.412657
O10   O     O_3   0.841140 0.563630 0.511980 -0.373244
C5    C     C_R   0.934609 0.116213 0.613583 -0.161059
H1    H     H_    0.928412 0.167284 0.521058 0.106841
H2    H     H_    0.956853 0.991181 0.696802 0.123714
H3    H     H_    0.967133 0.039797 0.588838 0.114274
C6    C     C_R   0.855407 0.285217 0.605232 -0.040543
C7    C     C_R   0.850669 0.315203 0.928641 -0.200730
C8    C     C_R   0.878200 0.392685 0.894915 -0.159383
C9    C     C_R   0.912636 0.373275 0.825545 0.140225
C10   C     C_R   0.890757 0.271930 0.787723 0.058188
C11   C     C_R   0.886119 0.192895 0.824221 0.038344
C12   C     C_R   0.884597 0.244215 0.715969 0.072743
C13   C     C_R   0.919405 0.142989 0.683624 0.139375
C14   C     C_R   0.933804 0.068855 0.721136 -0.202814
C15   C     C_R   0.908808 0.092608 0.789971 -0.184093
C16   C     C_R   0.834294 0.311521 0.674902 -0.215190
C17   C     C_R   0.909502 0.187982 0.574838 -0.173388
C18   C     C_R   0.864518 0.215675 0.894694 -0.076342
H4    H     H_    0.772339 0.383113 0.695552 0.105716
H5    H     H_    0.832782 0.333166 0.982548 0.113478
H6    H     H_    0.885001 0.468660 0.924452 0.120288
H7    H     H_    0.911759 0.031467 0.816352 0.116352
C19   C     C_2   0.991197 0.296373 0.281870 -0.135971
C20   C     C_2   0.844104 0.300877 0.326083 0.023991
H8    H     H_    0.109622 0.349948 0.293748 0.106005
C21   C     C_2   0.008968 0.221177 0.217716 -0.133568
C22   C     C_2   0.858160 0.190865 0.176720 -0.320527
H9    H     H_    0.152629 0.195470 0.202260 0.134653
H10   H     H_    0.716909 0.221872 0.189887 0.147684
C23   C     C_2   0.203717 0.787787 0.783160 -0.139870
C24   C     C_2   0.363270 0.814731 0.820297 -0.303039
H11   H     H_    0.065398 0.816524 0.802781 0.130243
H12   H     H_    0.502279 0.785993 0.802036 0.127670
C25   C     C_2   0.202537 0.719180 0.715716 -0.131717
C26   C     C_2   0.361068 0.683302 0.680598 -0.320101
H13   H     H_    0.061174 0.698485 0.693959 0.135763
H14   H     H_    0.504250 0.703233 0.700406 0.125884
C27   C     C_R   0.470032 0.877434 0.382293 -0.166829
H15   H     H_    0.495510 0.821496 0.472310 0.118375
H16   H     H_    0.492571 0.004120 0.300143 0.125041
H17   H     H_    0.529221 0.950353 0.405687 0.121326
C28   C     C_R   0.359655 0.712824 0.393023 -0.046965
C29   C     C_R   0.333628 0.681414 0.069412 0.159991
C30   C     C_R   0.334973 0.606002 0.106406 -0.118816
C31   C     C_R   0.347680 0.630082 0.175995 -0.220760
C32   C     C_R   0.351206 0.730887 0.211444 0.081947
C33   C     C_R   0.370870 0.807379 0.173956 0.028140
C34   C     C_R   0.355125 0.757416 0.283016 0.073408
C35   C     C_R   0.424039 0.854769 0.313948 0.111118
C36   C     C_R   0.447833 0.928573 0.276334 -0.194203
C37   C     C_R   0.413087 0.906485 0.207820 -0.186193
C38   C     C_R   0.296388 0.691770 0.325554 0.088098
C39   C     C_R   0.448634 0.804769 0.420448 -0.214080
C40   C     C_R   0.355495 0.782512 0.103129 -0.089490
H18   H     H_    0.361911 0.568430 0.201283 0.141944
H19   H     H_    0.328296 0.527643 0.081306 0.121735
H20   H     H_    0.430431 0.966905 0.181234 0.119344
O11   O     O_R   0.203230 0.917310 0.915020 -0.539870
O12   O     O_R   0.535500 0.888690 0.048040 -0.542065
O13   O     O_R   0.711080 0.082610 0.085000 -0.544914
C41   C     C_R   0.366183 0.861472 0.064222 0.709630
O14   O     O_R   0.532630 0.905370 0.913230 -0.547924
O15   O     O_R   0.708190 0.099410 0.949230 -0.538874
C42   C     C_R   0.364144 0.883807 0.886659 0.745799
O16   O     O_R   0.206120 0.900510 0.050790 -0.539056
O17   O     O_3   0.375360 0.063570 0.011990 -0.372584
V3    V     V_3+5 0.648170 0.988200 0.997780 1.410011
O18   O     O_R   0.038240 0.111390 0.951940 -0.540686
C43   C     C_R   0.869983 0.137514 0.934606 0.694042
O19   O     O_R   0.041120 0.094710 0.086750 -0.541222
C44   C     C_R   0.872522 0.117417 0.112695 0.745322
V4    V     V_3+5 0.148810 0.011930 0.002180 1.417996
O20   O     O_3   0.871750 0.936430 0.988010 -0.373111
C45   C     C_3   0.687446 0.220966 0.318687 -0.773745
H21   H     H_    0.638037 0.211492 0.368735 0.194126
H22   H     H_    0.561643 0.243301 0.291717 0.200643
H23   H     H_    0.740495 0.146457 0.292607 0.220527
C46   C     C_3   0.147645 0.608840 0.303960 -0.800011
H24   H     H_    0.030088 0.616276 0.341323 0.223216
H25   H     H_    0.073843 0.613786 0.256597 0.215870
H26   H     H_    0.215064 0.534209 0.299522 0.188444
C47   C     C_3   0.315809 0.653029 0.994117 -0.808234
H27   H     H_    0.300059 0.570537 0.975957 0.209157
H28   H     H_    0.187098 0.689130 0.977488 0.205130
H29   H     H_    0.446259 0.678450 0.970714 0.201794
C48   C     C_3   0.007139 0.459312 0.799292 -0.361725
C49   C     C_3   0.205698 0.431589 0.769080 -0.725014
H30   H     H_    0.298936 0.404646 0.805832 0.227785
H31   H     H_    0.195165 0.372594 0.722701 0.232151
H32   H     H_    0.274996 0.498908 0.756199 0.214196
H33   H     H_    0.915054 0.490048 0.764585 0.160921
H34   H     H_    0.031449 0.525176 0.841131 0.176786

loop_
_geom_bond_atom_site_label_1
_geom_bond_atom_site_label_2
_ccdc_geom_bond_type
C48   H34   S    
O18   V4    S    
V4    O20   S    
C46   H24   S    
C21   C22   D    
C1    O6    A    
O17   V3    S    
O19   C44   A    
C7    H5    S    
C6    C16   A    
C48   C49   S    
O12   C41   A    
C49   H32   S    
C4    C6    S    
C13   C14   A    
O12   V3    S    
O16   V4    S    
O5    C3    A    
C24   C42   S    
C27   C35   A    
H15   C39   S    
V2    O10   S    
C8    H6    S    
C5    H3    S    
C40   C41   S    
C9    C48   S    
C32   C34   A    
C27   C39   A    
O11   V4    S    
O13   C44   A    
C47   H28   S    
O8    V2    S    
C37   H20   S    
C25   H13   S    
C26   H14   S    
C8    C9    A    
C22   C44   S    
C23   C25   S    
C45   H22   S    
O7    V1    S    
C23   H11   S    
C30   C31   A    
C46   H25   S    
O9    C4    A    
C21   H9    S    
C32   C33   A    
C29   C47   S    
C22   H10   S    
C28   C38   A    
H16   C36   S    
C47   H27   S    
C34   C38   A    
O14   C42   A    
C6    C17   A    
C24   H12   S    
C33   C37   A    
O19   V4    S    
C12   C16   A    
C9    C10   A    
C19   C21   S    
O4    C2    A    
C10   C11   A    
C23   C24   D    
C33   C40   A    
C1    C26   S    
C31   C32   A    
O2    C1    A    
C14   C15   A    
O15   V3    S    
C11   C18   A    
O18   C43   A    
C31   H18   S    
O11   C42   A    
C16   H4    S    
C29   C40   A    
C45   H23   S    
C49   H31   S    
O17   V4    S    
O3    C4    A    
O1    V2    S    
C11   C15   A    
C46   H26   S    
O9    V2    S    
C10   C12   A    
H1    C17   S    
C28   C39   A    
O2    V1    S    
C47   H29   S    
C27   H17   S    
C48   H33   S    
C7    C18   A    
O1    C2    A    
C5    C13   A    
C41   O16   A    
O5    V1    S    
O8    C3    A    
O13   V3    S    
O6    V2    S    
C35   C36   A    
C3    C20   S    
C29   C30   A    
O4    V1    S    
O3    V1    S    
V1    O10   S    
C19   H8    S    
C19   C20   D    
O14   V3    S    
V3    O20   S    
C20   C45   S    
C36   C37   A    
O7    V2    S    
C49   H30   S    
C18   C43   S    
C34   C35   A    
O15   C43   A    
C15   H7    S    
C25   C26   D    
C12   C13   A    
C38   C46   S    
C5    C17   A    
C7    C8    A    
C45   H21   S    
C2    C28   S    
C30   H19   S    
H2    C14   S    
