data_mof_unit_5048.cif
_audit_creation_date              2012-12-10T17:44:35-0500
_audit_creation_method            fapswitch 2.2
_symmetry_space_group_name_H-M    P1
_symmetry_Int_Tables_number       1
_space_group_crystal_system       triclinic
_cell_length_a                    9.895979
_cell_length_b                    10.722087
_cell_length_c                    15.577216
_cell_angle_alpha                 91.818607
_cell_angle_beta                  67.558768
_cell_angle_gamma                 90.993203
_cell_volume                      1526.86903461

loop_
_atom_site_label
_atom_site_type_symbol
_atom_type_description
_atom_site_fract_x
_atom_site_fract_y
_atom_site_fract_z
_atom_type_partial_charge
C1    C     C_R   0.505984 0.738913 0.490868 0.861051
C2    C     C_R   0.717630 0.425022 0.037673 0.179695
C3    C     C_R   0.581901 0.483364 0.089331 0.093443
C4    C     C_R   0.408335 0.499038 0.675766 0.852715
C5    C     C_R   0.819179 0.404929 0.078771 -0.223846
C6    C     C_R   0.783793 0.436065 0.172249 -0.203248
C7    C     C_R   0.556708 0.525506 0.179824 -0.288211
C8    C     C_R   0.308273 0.874019 0.422742 -0.150355
C9    C     C_R   0.177732 0.928486 0.429519 -0.167478
C10   C     C_R   0.135757 0.041784 0.477372 -0.141036
C11   C     C_R   0.230921 0.105997 0.510216 -0.091761
C12   C     C_R   0.408022 0.478066 0.914517 0.096534
C13   C     C_R   0.371116 0.057332 0.495109 0.082304
C14   C     C_R   0.398579 0.933141 0.464183 0.096403
C15   C     C_R   0.512289 0.871359 0.479436 -0.117742
C16   C     C_R   0.494500 0.259800 0.505442 0.888001
C17   C     C_R   0.617776 0.937895 0.501227 -0.225620
C18   C     C_R   0.607347 0.064741 0.512755 -0.219212
C19   C     C_R   0.485884 0.125747 0.509323 -0.135736
C20   C     C_R   0.793720 0.669631 0.617749 -0.141665
C21   C     C_R   0.830864 0.750648 0.676901 -0.202407
C22   C     C_R   0.969199 0.746765 0.679088 -0.182379
C23   C     C_R   0.265282 0.520799 0.969116 0.179949
C24   C     C_R   0.071609 0.662735 0.621411 -0.121674
C25   C     C_R   0.038864 0.581580 0.558980 0.055974
C26   C     C_R   0.894940 0.583237 0.557955 0.151897
C27   C     C_R   0.959238 0.419412 0.445430 -0.268877
C28   C     C_R   0.591812 0.500838 0.324326 0.869206
C29   C     C_R   0.104917 0.420731 0.443322 0.505932
C30   C     C_R   0.350946 0.496707 0.776916 -0.056046
C31   C     C_R   0.649547 0.492548 0.223376 -0.054725
C32   C     C_R   0.164417 0.542693 0.927786 -0.217573
C33   C     C_R   0.207094 0.530467 0.831709 -0.211738
C34   C     C_R   0.510157 0.456299 0.956167 0.067245
C35   C     C_R   0.447854 0.467130 0.818574 -0.266884
C36   C     C_3   0.222818 0.331868 0.295819 0.081059
C37   C     C_3   0.182014 0.202996 0.267984 -0.361829
C38   C     C_3   0.197047 0.198795 0.166667 -0.938235
C39   C     C_R   0.474307 0.494010 0.050260 0.066514
C40   C     C_R   0.330498 0.536716 0.102874 -0.241389
C41   C     C_R   0.227012 0.546092 0.063415 -0.250703
C42   C     C_R   0.646663 0.398020 0.906774 -0.229345
C43   C     C_R   0.748315 0.383304 0.946929 -0.244479
H1    H     H_    0.118039 0.578190 0.106309 0.150413
H2    H     H_    0.684514 0.677411 0.621818 0.203984
H3    H     H_    0.751054 0.815925 0.722083 0.149045
H4    H     H_    0.461299 0.578902 0.220399 0.141809
H5    H     H_    0.997218 0.808686 0.726123 0.144482
H6    H     H_    0.174505 0.662895 0.628391 0.201633
H7    H     H_    0.857723 0.411098 0.205246 0.151808
H8    H     H_    0.850756 0.337100 0.907069 0.149865
H9    H     H_    0.054787 0.574438 0.969257 0.151169
H10   H     H_    0.130313 0.552812 0.800235 0.156892
H11   H     H_    0.557971 0.443582 0.773796 0.162891
H12   H     H_    0.922391 0.359304 0.040001 0.146052
H13   H     H_    0.292371 0.561568 0.175615 0.134208
H14   H     H_    0.676520 0.357752 0.837806 0.146491
H15   H     H_    0.339720 0.349155 0.253023 0.184841
H16   H     H_    0.159670 0.405178 0.278269 0.105397
H17   H     H_    0.255157 0.131891 0.277518 0.242805
H18   H     H_    0.067560 0.179514 0.313072 0.211570
H19   H     H_    0.121704 0.266811 0.156108 0.263580
H20   H     H_    0.168935 0.103850 0.147907 0.264020
H21   H     H_    0.311162 0.221180 0.120141 0.272534
H22   H     H_    0.707310 0.892023 0.511117 0.170238
H23   H     H_    0.337571 0.785688 0.384996 0.151592
H24   H     H_    0.107073 0.880858 0.400336 0.138841
H25   H     H_    0.030525 0.081204 0.487627 0.134118
H26   H     H_    0.189380 0.190458 0.550517 0.166507
H27   H     H_    0.694187 0.114761 0.525615 0.167324
H28   H     H_    0.927891 0.352700 0.402801 0.159891
N1    N     N_R   0.856800 0.501200 0.500850 -0.133287
N2    N     N_R   0.142390 0.501280 0.500880 -0.159756
O1    O     O_R   0.385310 0.683220 0.500000 -0.645582
O2    O     O_R   0.614640 0.683250 0.500010 -0.638397
O3    O     O_R   0.319840 0.499980 0.632240 -0.640704
O4    O     O_R   0.549160 0.500000 0.632250 -0.631898
O5    O     O_R   0.385360 0.316750 0.499990 -0.585597
O6    O     O_R   0.614690 0.316780 0.500000 -0.616930
O7    O     O_R   0.450840 0.500000 0.367750 -0.593880
O8    O     O_R   0.680160 0.500020 0.367760 -0.613920
O9    O     O_3   0.207113 0.333734 0.390152 -0.613198
Zn1   Zn    Zn3+2 0.346880 0.499980 0.499990 0.950465
Zn2   Zn    Zn3+2 0.653120 0.500020 0.500010 0.924956

loop_
_geom_bond_atom_site_label_1
_geom_bond_atom_site_label_2
_ccdc_geom_bond_type
C18   H27   S    
C22   H5    S    
C8    H23   S    
C27   C29   A    
C26   N1    A    
C34   C42   A    
O1    Zn1   S    
C36   H16   S    
C12   C23   A    
C30   C35   A    
C1    O1    A    
C36   C37   S    
C38   H20   S    
C3    C7    A    
C5    C6    A    
O2    Zn2   S    
C29   N2    A    
C42   H14   S    
C18   C19   A    
C32   H9    S    
O5    Zn1   S    
C36   O9    S    
C8    C9    A    
C40   H13   S    
C1    C15   S    
C9    C10   A    
C25   N2    A    
C20   H2    S    
C6    C31   A    
C3    C39   A    
C13   C14   A    
C35   H11   S    
O7    Zn1   S    
O3    Zn1   S    
C38   H21   S    
C33   H10   S    
C7    C31   A    
C13   C19   A    
C34   C39   A    
C1    O2    A    
C24   C25   A    
C39   C40   A    
O4    Zn2   S    
C25   C26   A    
C7    H4    S    
C9    H24   S    
C37   C38   S    
C2    C43   A    
C17   C18   A    
C6    H7    S    
C12   C35   A    
N1    Zn2   S    
C40   C41   A    
C41   H1    S    
C22   C24   A    
C2    C5    A    
C42   C43   A    
C12   C34   A    
O8    Zn2   S    
C27   H28   S    
C21   H3    S    
C24   H6    S    
C15   C17   A    
C8    C14   A    
C30   C33   A    
C28   O8    A    
C17   H22   S    
C5    H12   S    
C28   C31   S    
C37   H18   S    
C11   H26   S    
C10   H25   S    
C36   H15   S    
C23   C41   A    
C16   O6    A    
C23   C32   A    
C2    C3    A    
C4    O4    A    
C32   C33   A    
C11   C13   A    
C43   H8    S    
O6    Zn2   S    
C20   C26   A    
C16   C19   S    
C16   O5    A    
C28   O7    A    
C4    O3    A    
C37   H17   S    
C10   C11   A    
C29   O9    S    
C20   C21   A    
C14   C15   A    
C21   C22   A    
N2    Zn1   S    
C4    C30   S    
C27   N1    A    
C38   H19   S    
