data_mof_unit_23839.cif
_audit_creation_date              2012-12-11T17:41:38-0500
_audit_creation_method            fapswitch 2.2
_symmetry_space_group_name_H-M    P1
_symmetry_Int_Tables_number       1
_space_group_crystal_system       triclinic
_cell_length_a                    15.53513
_cell_length_b                    15.212148
_cell_length_c                    15.042708
_cell_angle_alpha                 109.793045
_cell_angle_beta                  121.200174
_cell_angle_gamma                 58.341816
_cell_volume                      2577.37993004

loop_
_atom_site_label
_atom_site_type_symbol
_atom_type_description
_atom_site_fract_x
_atom_site_fract_y
_atom_site_fract_z
_atom_type_partial_charge
C1    C     C_R   0.756582 0.992097 0.790726 -0.097873
C2    C     C_R   0.564865 0.324628 0.135740 0.611817
C3    C     C_R   0.403646 0.781564 0.879709 -0.221006
C4    C     C_R   0.570747 0.224716 0.098646 -0.216048
C5    C     C_R   0.491813 0.797838 0.895280 0.028523
C6    C     C_R   0.491233 0.199876 0.090335 0.015918
C7    C     C_R   0.577749 0.715806 0.868382 -0.141189
C8    C     C_R   0.402787 0.278014 0.115851 -0.150699
C9    C     C_R   0.574778 0.619827 0.825357 -0.147677
C10   C     C_R   0.396478 0.377806 0.153099 -0.159095
C11   C     C_R   0.486065 0.604683 0.808605 -0.277224
C12   C     C_R   0.199503 0.055598 0.223562 -0.126419
C13   C     C_R   0.477042 0.401290 0.163336 -0.260898
C14   C     C_R   0.498582 0.932144 0.044642 -0.234716
C15   C     C_R   0.495448 0.060702 0.947621 -0.248888
C16   C     C_R   0.204175 0.278910 0.450334 -0.113465
C17   C     C_R   0.769400 0.711584 0.517764 -0.115556
C18   C     C_R   0.499181 0.028517 0.093600 0.106013
C19   C     C_R   0.496087 0.964134 0.899373 0.050687
C20   C     C_R   0.495499 0.095234 0.044888 0.072213
C21   C     C_R   0.496540 0.898584 0.946294 0.054634
C22   C     C_2   0.032015 0.361671 0.484700 0.459357
C23   C     C_R   0.144654 0.281567 0.496030 -0.078401
C24   C     C_2   0.873629 0.603420 0.403518 0.487082
C25   C     C_2   0.965187 0.416456 0.401105 -0.102088
C26   C     C_2   0.871976 0.516310 0.404310 -0.140421
C27   C     C_2   0.849212 0.113425 0.898456 -0.198295
C28   C     C_2   0.021103 0.036577 0.151645 -0.178721
C29   C     C_R   0.257667 0.823972 0.619169 -0.296752
C30   C     C_R   0.761761 0.135895 0.332331 -0.290706
C31   C     C_R   0.343800 0.737754 0.596503 -0.160755
C32   C     C_R   0.669442 0.220763 0.346485 -0.172899
C33   C     C_R   0.319486 0.669887 0.506552 0.110546
C34   C     C_R   0.804842 0.702286 0.445651 -0.099905
C35   C     C_R   0.680794 0.306410 0.417424 0.104317
C36   C     C_R   0.207346 0.688438 0.441379 -0.266657
C37   C     C_R   0.788008 0.303792 0.475728 -0.251612
C38   C     C_R   0.121317 0.774181 0.464572 -0.140067
C39   C     C_R   0.880521 0.218415 0.462396 -0.114702
C40   C     C_R   0.593957 0.218446 0.496999 -0.198740
C41   C     C_R   0.404945 0.771629 0.456453 -0.179695
C42   C     C_R   0.145509 0.842734 0.553145 0.646457
C43   C     C_R   0.868257 0.134323 0.390320 0.638067
C44   C     C_R   0.415261 0.483670 0.465203 -0.278129
C45   C     C_R   0.501972 0.300646 0.443071 -0.112294
C46   C     C_R   0.573497 0.496479 0.440754 -0.297286
C47   C     C_R   0.499259 0.394660 0.441708 0.070019
C48   C     C_R   0.491563 0.584195 0.467805 0.082299
C49   C     C_R   0.582378 0.398977 0.431754 0.084559
C50   C     C_R   0.409869 0.579335 0.478928 0.063546
C51   C     C_2   0.863743 0.100350 0.989685 -0.077754
C52   C     C_2   0.959133 0.108353 0.083920 -0.084545
C53   C     C_R   0.406040 0.990665 0.716145 -0.199122
C54   C     C_R   0.593031 0.004534 0.280045 -0.256710
C55   C     C_R   0.409004 0.287924 0.413626 0.504271
C56   C     C_R   0.496341 0.679117 0.486936 -0.125819
C57   C     C_R   0.590603 0.696877 0.548852 0.498013
C58   C     C_R   0.589908 0.914683 0.789830 0.513400
C59   C     C_R   0.409317 0.080513 0.207021 0.505980
C60   C     C_R   0.203152 0.188958 0.540818 -0.092913
C61   C     C_R   0.766297 0.801687 0.424065 -0.073421
C62   C     C_R   0.757783 0.082540 0.700764 -0.100768
C63   C     C_R   0.198207 0.967562 0.314643 -0.125504
C64   C     C_R   0.787966 0.066347 0.800408 0.099618
C65   C     C_R   0.136917 0.016870 0.224623 0.138371
C66   C     C_R   0.497014 0.937652 0.800116 -0.101600
C67   C     C_R   0.501115 0.054389 0.194292 -0.038448
C68   C     C_R   0.399564 0.685859 0.835768 0.611039
H1    H     H_    0.771089 0.959435 0.852952 0.158733
H2    H     H_    0.328480 0.437355 0.173360 0.144194
H3    H     H_    0.499819 0.882981 0.083858 0.139791
H4    H     H_    0.493445 0.109972 0.907844 0.142340
H5    H     H_    0.814969 0.519081 0.427582 0.120160
H6    H     H_    0.989798 0.397937 0.338946 0.126460
H7    H     H_    0.177499 0.333523 0.400368 0.170197
H8    H     H_    0.793166 0.649962 0.557222 0.187590
H9    H     H_    0.278319 0.876149 0.687907 0.128565
H10   H     H_    0.750065 0.071835 0.275773 0.116214
H11   H     H_    0.429277 0.725501 0.647439 0.158258
H12   H     H_    0.170845 0.106800 0.169644 0.119961
H13   H     H_    0.588978 0.219426 0.302118 0.158690
H14   H     H_    0.186410 0.637185 0.371610 0.158996
H15   H     H_    0.800619 0.367372 0.532767 0.172963
H16   H     H_    0.035369 0.787811 0.413062 0.126399
H17   H     H_    0.962319 0.217387 0.508460 0.144126
H18   H     H_    0.356375 0.478548 0.479450 0.165254
H19   H     H_    0.632914 0.504487 0.430025 0.143264
H20   H     H_    0.680862 0.199880 0.526259 0.145122
H21   H     H_    0.318144 0.786809 0.411025 0.141733
H22   H     H_    0.318877 0.020699 0.698113 0.133708
H23   H     H_    0.990104 0.984789 0.146925 0.134567
H24   H     H_    0.679610 0.975588 0.297128 0.137892
H25   H     H_    0.173692 0.160585 0.571487 0.099668
H26   H     H_    0.781441 0.822762 0.373566 0.094985
H27   H     H_    0.772455 0.134002 0.681249 0.104879
H28   H     H_    0.166948 0.942288 0.346288 0.134494
H29   H     H_    0.988844 0.160581 0.087558 0.129217
H30   H     H_    0.820161 0.065162 0.992847 0.122352
H31   H     H_    0.319252 0.603099 0.787825 0.315511
H32   H     H_    0.631516 0.417455 0.174034 0.307971
H33   H     H_    0.648268 0.724735 0.882375 0.148744
H34   H     H_    0.894015 0.148172 0.896505 0.141254
H35   H     H_    0.337168 0.262921 0.104567 0.196852
H36   H     H_    0.944754 0.666730 0.386950 0.312855
H37   H     H_    0.061129 0.344691 0.621292 0.315767
H38   H     H_    0.089208 0.967886 0.637468 0.307900
H39   H     H_    0.938743 0.999285 0.325172 0.300678
H40   H     H_    0.303727 0.382046 0.305651 0.316146
H41   H     H_    0.688650 0.572105 0.620735 0.314966
H42   H     H_    0.703780 0.845663 0.914756 0.301490
H43   H     H_    0.265383 0.184539 0.197019 0.330166
H44   H     H_    0.484708 0.530056 0.774377 0.129579
H45   H     H_    0.470932 0.478965 0.192633 0.129067
H46   H     H_    0.337257 0.843825 0.900968 0.151559
H47   H     H_    0.638456 0.165823 0.077500 0.136443
H48   H     H_    0.641260 0.557118 0.804642 0.149364
N1    N     N_R   0.705410 0.966550 0.689210 -0.042636
N2    N     N_R   0.556610 0.796750 0.548620 -0.069949
N3    N     N_R   0.556610 0.951620 0.703500 -0.078402
N4    N     N_R   0.443390 0.048380 0.296500 -0.104152
N5    N     N_R   0.294590 0.131500 0.522480 -0.038693
N6    N     N_R   0.705410 0.868500 0.477520 -0.039086
N7    N     N_R   0.705410 0.023370 0.632390 -0.047165
N8    N     N_R   0.294590 0.976630 0.367610 -0.046932
N9    N     N_R   0.294590 0.033450 0.310790 -0.055889
N10   N     N_R   0.294590 0.188320 0.465660 -0.041587
N11   N     N_R   0.705410 0.811680 0.534340 -0.038054
N12   N     N_R   0.556610 0.157790 0.497330 -0.066860
N13   N     N_R   0.443390 0.842210 0.502670 -0.069503
N14   N     N_R   0.443390 0.997080 0.657540 -0.072540
N15   N     N_R   0.556610 0.002920 0.342460 -0.062112
N16   N     N_R   0.443390 0.203250 0.451380 -0.076106
Ni1   Ni    Ni4+2 0.629830 0.882720 0.617850 0.299993
Ni2   Ni    Ni4+2 0.370170 0.117280 0.382150 0.229403
Ni3   Ni    Ni4+2 0.629830 0.013030 0.487540 0.219231
Ni4   Ni    Ni4+2 0.370170 0.986970 0.512460 0.208991
O1    O     O_3   0.310232 0.674311 0.820083 -0.749443
O2    O     O_3   0.302724 0.148175 0.149527 -0.786379
O3    O     O_3   0.646460 0.344406 0.145232 -0.759317
O4    O     O_3   0.947243 0.597231 0.373401 -0.750356
O5    O     O_3   0.998573 0.387906 0.563028 -0.762511
O6    O     O_3   0.058293 0.926942 0.572850 -0.757392
O7    O     O_3   0.961370 0.052180 0.378651 -0.777490
O8    O     O_3   0.302680 0.336722 0.338969 -0.800497
O9    O     O_3   0.691715 0.635526 0.620998 -0.767544
O10   O     O_3   0.699456 0.853356 0.849608 -0.775370

loop_
_geom_bond_atom_site_label_1
_geom_bond_atom_site_label_2
_ccdc_geom_bond_type
N9    Ni2   S    
C41   H21   S    
C63   C65   A    
C59   N4    A    
C57   O9    S    
C29   C42   A    
N4    N15   A    
C14   H3    S    
C14   C18   A    
C4    H47   S    
C43   O7    S    
C3    C68   A    
N1    Ni1   S    
C33   C36   A    
C63   N8    A    
C47   C49   A    
C24   O4    S    
C15   C19   A    
C54   N15   A    
C46   C49   A    
N3    Ni1   S    
C2    O3    S    
C14   C21   A    
C35   C37   A    
C24   C26   D    
C38   C42   A    
N15   Ni3   S    
H37   O5    S    
C40   N12   A    
C12   H12   S    
C52   H29   S    
N3    N14   A    
C56   C57   A    
C19   C66   S    
C7    C9    A    
C25   H6    S    
N6    N11   A    
C2    C13   A    
C62   C64   A    
C33   C50   S    
C59   C67   A    
C58   C66   A    
C36   H14   S    
C22   C25   D    
C35   C49   S    
C17   H8    S    
C31   C33   A    
N4    Ni2   S    
C44   C47   A    
C60   H25   S    
C51   H30   S    
C48   C50   A    
C62   H27   S    
C68   O1    S    
C23   C60   A    
N14   Ni4   S    
C44   H18   S    
N12   N16   A    
C62   N7    A    
C27   C51   D    
H38   O6    S    
C45   C47   S    
C15   C20   A    
C37   C39   A    
C46   C48   A    
N8    N9    A    
N8    Ni4   S    
C51   C52   S    
C32   C35   A    
C4    C6    A    
N12   Ni3   S    
C5    C7    A    
C61   H26   S    
C17   N11   A    
C39   C43   A    
C12   N9    A    
C59   O2    S    
C25   C26   S    
C26   H5    S    
C10   C13   A    
C34   C61   A    
C24   C34   S    
H36   O4    S    
N7    Ni3   S    
C61   N6    A    
C2    C4    A    
C41   C56   A    
C42   O6    S    
C32   H13   S    
H32   O3    S    
C41   N13   A    
N13   Ni4   S    
C29   H9    S    
C1    N1    A    
C16   H7    S    
C53   C66   A    
C9    C11   A    
C45   C55   A    
N2    Ni1   S    
C10   H2    S    
N16   Ni2   S    
C16   C23   A    
C30   C43   A    
C17   C34   A    
C39   H17   S    
H39   O7    S    
C1    C64   A    
H40   O8    S    
C11   C68   A    
C46   H19   S    
C44   C50   A    
C48   C56   S    
C55   O8    S    
C38   H16   S    
C11   H44   S    
C9    H48   S    
H41   O9    S    
N11   Ni1   S    
C3    C5    A    
C3    H46   S    
C6    C8    A    
C58   O10   S    
C31   H11   S    
C54   C67   A    
C6    C20   S    
C12   C65   A    
C27   H34   S    
C40   H20   S    
C36   C38   A    
C28   C65   S    
C18   C67   S    
N5    N10   A    
C29   C31   A    
N2    N13   A    
C30   C32   A    
C28   C52   D    
H31   O1    S    
C63   H28   S    
C22   O5    S    
C58   N3    A    
C15   H4    S    
C28   H23   S    
C18   C20   A    
N5    Ni4   S    
N1    N7    A    
C60   N5    A    
C8    H35   S    
C1    H1    S    
N6    Ni3   S    
C27   C64   S    
C30   H10   S    
C5    C21   S    
C40   C45   A    
N10   Ni2   S    
C8    C10   A    
C55   N16   A    
C7    H33   S    
C53   H22   S    
C22   C23   S    
C37   H15   S    
C53   N14   A    
H42   O10   S    
C16   N10   A    
C54   H24   S    
C13   H45   S    
H43   O2    S    
C57   N2    A    
C19   C21   A    
