data_mof_unit_19398.cif
_audit_creation_date              2013-03-05T15:55:20-0500
_audit_creation_method            fapswitch 2.2
_symmetry_space_group_name_H-M    P1
_symmetry_Int_Tables_number       1
_space_group_crystal_system       triclinic
_cell_length_a                    14.767587
_cell_length_b                    14.748644
_cell_length_c                    33.233883
_cell_angle_alpha                 96.292411
_cell_angle_beta                  96.254137
_cell_angle_gamma                 61.037442
_cell_volume                      6281.98576494

loop_
_atom_site_label
_atom_site_type_symbol
_atom_site_description
_atom_site_fract_x
_atom_site_fract_y
_atom_site_fract_z
_atom_type_partial_charge
O1    O     O_R   0.679450 0.499830 0.463150 -0.546460
O2    O     O_R   0.480650 0.664000 0.464630 -0.537981
C1    C     C_R   0.392058 0.697392 0.445459 0.773959
O3    O     O_R   0.323930 0.675950 0.455370 -0.557750
O4    O     O_R   0.354700 0.475360 0.451930 -0.535373
C2    C     C_R   0.433606 0.407750 0.431734 0.809819
O5    O     O_R   0.494470 0.320860 0.448390 -0.545530
O6    O     O_R   0.662580 0.357570 0.460050 -0.553401
C3    C     C_R   0.699769 0.410300 0.447145 0.755588
O7    O     O_R   0.680900 0.502040 0.551870 -0.549179
O8    O     O_R   0.481990 0.666040 0.546870 -0.535996
C4    C     C_R   0.393302 0.701677 0.561201 0.777768
O9    O     O_R   0.325370 0.678160 0.544080 -0.549428
O10   O     O_R   0.356040 0.477400 0.534170 -0.534595
C5    C     C_R   0.407234 0.388875 0.548997 0.798263
O11   O     O_R   0.495910 0.323070 0.537100 -0.547476
O12   O     O_R   0.663920 0.359620 0.542290 -0.537766
C6    C     C_R   0.701520 0.413606 0.562652 0.778244
Cr1   Cr    Cr6+3 0.576280 0.580550 0.506370 0.931067
Cr2   Cr    Cr6+3 0.346780 0.572400 0.496520 0.931802
Cr3   Cr    Cr6+3 0.576960 0.347070 0.497150 0.927617
O13   O     O_3   0.500010 0.500010 0.500010 -0.350551
H1    H     H_    0.460380 0.185713 0.103016 0.139455
H2    H     H_    0.495510 0.237954 0.172848 0.125312
H3    H     H_    0.525708 0.246655 0.303258 0.124377
H4    H     H_    0.550961 0.251399 0.377353 0.137522
C7    C     C_R   0.416971 0.402996 0.387013 -0.062973
C8    C     C_R   0.335671 0.487811 0.367423 -0.162966
C9    C     C_R   0.322162 0.485104 0.325120 -0.113103
C10   C     C_R   0.390130 0.398051 0.301894 0.124500
C11   C     C_R   0.472577 0.314372 0.321020 -0.118884
C12   C     C_R   0.486260 0.316894 0.363293 -0.151319
C13   C     C_R   0.418569 0.280663 0.158334 -0.124179
C14   C     C_R   0.398176 0.250856 0.118536 -0.158670
C15   C     C_R   0.219105 0.386148 0.120923 -0.165603
C16   C     C_R   0.239695 0.415638 0.160856 -0.120834
C17   C     C_R   0.338951 0.361544 0.179841 0.124224
C18   C     C_1   0.356819 0.380723 0.222495 -0.027577
C19   C     C_1   0.372081 0.391201 0.258603 -0.025087
C20   C     C_R   0.297592 0.301584 0.099736 -0.051475
H5    H     H_    0.282415 0.556271 0.384756 0.143466
H6    H     H_    0.177353 0.477916 0.177393 0.124163
H7    H     H_    0.140861 0.426539 0.107324 0.138855
H8    H     H_    0.258212 0.550375 0.310580 0.125551
N1    N     N_R   0.791628 0.411562 0.222824 -0.270395
N2    N     N_R   0.786532 0.417439 0.262739 -0.239001
C21   C     C_R   0.748717 0.376852 0.408162 -0.051288
C22   C     C_R   0.773827 0.442960 0.390198 -0.140346
C23   C     C_R   0.793289 0.426897 0.349321 -0.081093
C24   C     C_R   0.788581 0.344141 0.325702 0.007147
C25   C     C_R   0.772447 0.272795 0.344433 -0.137235
C26   C     C_R   0.752760 0.288981 0.385409 -0.163621
N3    N     N_R   0.805510 0.250052 0.258598 -0.295549
N4    N     N_R   0.810997 0.244028 0.218606 -0.294266
C27   C     C_R   0.804321 0.324699 0.199951 0.513817
C28   C     C_R   0.794540 0.336456 0.281476 0.525538
C29   C     C_R   0.816098 0.398738 0.138135 -0.131475
C30   C     C_R   0.855052 0.384100 0.100317 -0.144187
C31   C     C_R   0.898727 0.202594 0.096959 -0.159226
C32   C     C_R   0.859886 0.217209 0.134899 -0.134749
C33   C     C_R   0.822925 0.314284 0.156645 0.018541
C34   C     C_R   0.901137 0.284858 0.080308 -0.045219
H9    H     H_    0.771915 0.511044 0.406976 0.155137
H10   H     H_    0.734121 0.236425 0.398503 0.132145
H11   H     H_    0.854247 0.449331 0.087832 0.145411
H12   H     H_    0.807710 0.481997 0.335891 0.176951
H13   H     H_    0.769500 0.207645 0.327038 0.140671
H14   H     H_    0.786135 0.475034 0.153805 0.148327
H15   H     H_    0.932926 0.125384 0.081979 0.137708
H16   H     H_    0.865013 0.150913 0.148187 0.141712
N5    N     N_R   0.314676 0.749510 0.213031 -0.294631
N6    N     N_R   0.319247 0.739013 0.252555 -0.295725
C35   C     C_R   0.379317 0.739534 0.405839 -0.098213
C36   C     C_R   0.290051 0.761910 0.380325 -0.158890
C37   C     C_R   0.289658 0.773527 0.339284 -0.194233
C38   C     C_R   0.378586 0.762274 0.322898 -0.099504
C39   C     C_R   0.467728 0.743612 0.348737 0.399321
C40   C     C_R   0.465800 0.735658 0.390105 -0.215624
N7    N     N_R   0.427551 0.814740 0.264786 -0.208193
N8    N     N_R   0.423292 0.824857 0.225288 -0.272301
C41   C     C_R   0.366867 0.792410 0.198625 0.515188
C42   C     C_R   0.375732 0.771549 0.279146 0.580186
C43   C     C_R   0.272885 0.809290 0.130533 -0.132729
C44   C     C_R   0.246490 0.850279 0.092582 -0.154577
C45   C     C_R   0.387157 0.892588 0.102613 -0.153650
C46   C     C_R   0.413153 0.852164 0.140632 -0.129975
C47   C     C_R   0.353342 0.814430 0.155639 0.022028
C48   C     C_R   0.300611 0.896352 0.079100 -0.043399
H17   H     H_    0.222409 0.765014 0.391572 0.144086
H18   H     H_    0.536197 0.716423 0.409193 0.174356
H19   H     H_    0.180228 0.850899 0.074810 0.137504
H20   H     H_    0.220243 0.788991 0.320066 0.154499
H21   H     H_    0.226092 0.779609 0.141119 0.141148
H22   H     H_    0.431037 0.926546 0.092804 0.139530
H23   H     H_    0.476789 0.855439 0.159066 0.146058
N9    N     N_R   0.239913 0.423766 0.767074 -0.293406
N10   N     N_R   0.243390 0.424068 0.727236 -0.295145
C49   C     C_R   0.371276 0.369378 0.585077 -0.048492
C50   C     C_R   0.284844 0.449400 0.604095 -0.156758
C51   C     C_R   0.265669 0.440221 0.643203 -0.137760
C52   C     C_R   0.332720 0.350966 0.663829 0.021584
C53   C     C_R   0.413308 0.267338 0.643335 -0.136461
C54   C     C_R   0.432337 0.276397 0.604274 -0.154172
N11   N     N_R   0.403806 0.273344 0.729104 -0.294329
N12   N     N_R   0.400515 0.273263 0.768874 -0.293733
C55   C     C_R   0.318768 0.348577 0.788696 0.525481
C56   C     C_R   0.325157 0.348353 0.707444 0.522791
C57   C     C_R   0.218717 0.404467 0.850844 -0.133339
C58   C     C_R   0.207490 0.384688 0.889566 -0.152654
C59   C     C_R   0.386503 0.248754 0.893032 -0.149292
C60   C     C_R   0.397681 0.268469 0.854394 -0.130810
C61   C     C_R   0.312483 0.343016 0.832188 0.016253
C62   C     C_R   0.289901 0.303188 0.910110 -0.047767
H24   H     H_    0.235961 0.521793 0.589909 0.135303
H25   H     H_    0.498798 0.212921 0.590184 0.135894
H26   H     H_    0.132228 0.428419 0.902122 0.151549
H27   H     H_    0.202150 0.505467 0.658069 0.137160
H28   H     H_    0.465033 0.196646 0.658165 0.137670
H29   H     H_    0.152048 0.463367 0.834645 0.145284
H30   H     H_    0.451808 0.186439 0.908414 0.138688
H31   H     H_    0.471644 0.221333 0.841138 0.141267
H32   H     H_    0.986961 0.118901 0.872078 0.157937
H33   H     H_    0.941619 0.140001 0.799827 0.126000
H34   H     H_    0.797689 0.203538 0.670127 0.115850
H35   H     H_    0.745169 0.237770 0.598609 0.135361
C63   C     C_R   0.755103 0.380768 0.602786 -0.049151
C64   C     C_R   0.781737 0.447345 0.628806 -0.163858
C65   C     C_R   0.811187 0.427589 0.669610 -0.128054
C66   C     C_R   0.814860 0.340996 0.684745 0.126525
C67   C     C_R   0.794771 0.270929 0.658619 -0.130889
C68   C     C_R   0.765306 0.290451 0.617805 -0.163990
C69   C     C_R   0.914187 0.208327 0.820729 -0.127397
C70   C     C_R   0.938753 0.196706 0.862116 -0.224237
C71   C     C_R   0.846513 0.384751 0.875482 0.381306
C72   C     C_R   0.823569 0.395098 0.833522 -0.197263
C73   C     C_R   0.859500 0.307369 0.806326 0.062237
C74   C     C_1   0.843850 0.318781 0.763461 -0.013435
C75   C     C_1   0.831660 0.328228 0.727509 -0.049103
C76   C     C_R   0.909350 0.284181 0.889813 -0.165736
H36   H     H_    0.774420 0.517633 0.618236 0.135617
H37   H     H_    0.778376 0.471579 0.821988 0.161502
H38   H     H_    0.826881 0.482104 0.689680 0.119899
H39   H     H_    0.428480 0.932431 0.893283 0.143425
H40   H     H_    0.463518 0.883567 0.821616 0.123635
H41   H     H_    0.515873 0.783492 0.686355 0.117193
H42   H     H_    0.533702 0.730795 0.613953 0.136278
C77   C     C_R   0.375819 0.756131 0.601860 -0.048501
C78   C     C_R   0.280481 0.791566 0.619029 -0.162924
C79   C     C_R   0.270984 0.821187 0.660311 -0.131680
C80   C     C_R   0.356346 0.816076 0.684771 0.130239
C81   C     C_R   0.449462 0.787510 0.667551 -0.129807
C82   C     C_R   0.459148 0.758057 0.626214 -0.165904
C83   C     C_R   0.398422 0.881787 0.833011 -0.115761
C84   C     C_R   0.378469 0.909103 0.873893 -0.141327
C85   C     C_R   0.227551 0.882649 0.862501 -0.165428
C86   C     C_R   0.247773 0.855291 0.821671 -0.130351
C87   C     C_R   0.331389 0.857762 0.806717 0.124051
C88   C     C_1   0.343500 0.842895 0.763957 -0.044381
C89   C     C_1   0.350422 0.831661 0.727879 -0.046121
C90   C     C_R   0.290714 0.913253 0.888738 -0.049796
H43   H     H_    0.214936 0.791043 0.601089 0.135236
H44   H     H_    0.195695 0.836432 0.801439 0.118621
H45   H     H_    0.159351 0.885209 0.872947 0.138905
H46   H     H_    0.198510 0.843522 0.673478 0.113939
O14   O     O_R   0.170070 0.978950 0.027680 -0.550331
O15   O     O_R   0.001760 0.175230 0.026640 -0.540076
C91   C     C_R   0.962644 0.264782 0.045297 0.790247
O16   O     O_R   0.984760 0.333570 0.037150 -0.541847
O17   O     O_R   0.183410 0.309240 0.041890 -0.537511
C92   C     C_R   0.273208 0.260247 0.059895 0.771930
O18   O     O_R   0.340240 0.172500 0.045430 -0.549683
O19   O     O_R   0.309670 0.000990 0.032050 -0.536518
C93   C     C_R   0.259596 0.959017 0.043517 0.777251
O20   O     O_R   0.168330 0.982130 0.939200 -0.552024
O21   O     O_R   0.000140 0.178170 0.944610 -0.546338
C94   C     C_R   0.961396 0.267974 0.930993 0.852323
O22   O     O_R   0.983010 0.336750 0.948660 -0.512364
O23   O     O_R   0.181800 0.312190 0.959860 -0.538019
C95   C     C_R   0.270903 0.264144 0.945413 0.768055
O24   O     O_R   0.338500 0.175680 0.956950 -0.549868
O25   O     O_R   0.308050 0.003930 0.950020 -0.535608
C96   C     C_R   0.256217 0.964785 0.928977 0.774374
Cr4   Cr    Cr6+3 0.087320 0.083240 0.984860 0.938576
Cr5   Cr    Cr6+3 0.087720 0.316210 0.996740 0.980947
Cr6   Cr    Cr6+3 0.317350 0.090340 0.995890 0.942355
O26   O     O_3   0.164130 0.163270 0.992500 -0.335861
N13   N     N_R   0.563635 0.722479 0.333227 0.089418
O27   O     O_R   0.623170 0.755406 0.354004 -0.375362
O28   O     O_R   0.600646 0.654501 0.302801 -0.359648
N14   N     N_R   0.805666 0.476111 0.902830 0.095041
O29   O     O_R   0.786467 0.565254 0.890922 -0.376414
O30   O     O_R   0.774520 0.473500 0.937637 -0.371620

loop_
_geom_bond_atom_site_label_1
_geom_bond_atom_site_label_2
_geom_bond_distance
_ccdc_geom_bond_type
C52   C56   1.471950 S    
C43   C47   1.403939 A    
C30   C34   1.402940 A    
N14   O29   1.301585 A    
H33   C69   1.083826 S    
C60   H31   1.082925 S    
C35   C36   1.400766 A    
C16   H6    1.083484 S    
C77   C78   1.406400 A    
C65   C66   1.398136 A    
O20   C96   1.273119 A    
C50   H24   1.083101 S    
C20   C92   1.478612 S    
O23   C95   1.274415 A    
Cr6   O26   1.975693 S    
C72   C73   1.398502 A    
O17   Cr5   1.920970 S    
O4    Cr2   1.915411 S    
C55   C61   1.472137 S    
C39   C40   1.397079 A    
C40   H18   1.083431 S    
H4    C12   1.082668 S    
C4    O9    1.272726 A    
O8    Cr1   1.917366 S    
C52   C53   1.404416 A    
C43   C44   1.392834 A    
C14   C20   1.407301 A    
C78   H43   1.083016 S    
C4    C77   1.474734 S    
C16   C17   1.399776 A    
C17   C18   1.435969 S    
C10   C11   1.399169 A    
C49   C50   1.405309 A    
C69   C73   1.393426 A    
N3    C28   1.357497 A    
C92   O18   1.269819 A    
O14   C93   1.271710 A    
C5    O11   1.269242 A    
C43   H21   1.082862 S    
O25   C96   1.277171 A    
C8    H5    1.082586 S    
C57   C58   1.394358 A    
O17   C92   1.277729 A    
H40   C83   1.083586 S    
C59   C60   1.391108 A    
C58   H26   1.083137 S    
C87   C88   1.431305 S    
O23   Cr5   1.926480 S    
C66   C75   1.432998 S    
C60   C61   1.404375 A    
N3    N4    1.331010 A    
C69   C70   1.391246 A    
O16   Cr5   2.042910 S    
C49   C54   1.403423 A    
C81   C82   1.395813 A    
C44   H19   1.083076 S    
C15   H7    1.082980 S    
O19   Cr6   1.927486 S    
C53   H28   1.082929 S    
C58   C62   1.405083 A    
C34   C91   1.469976 S    
C85   C90   1.406543 A    
C86   H44   1.083708 S    
C31   C32   1.394129 A    
Cr3   O13   1.970391 S    
C57   H29   1.082834 S    
C76   C94   1.478324 S    
C90   C96   1.475179 S    
N11   N12   1.328043 A    
O12   C6    1.276097 A    
C18   C19   1.203697 T    
O1    Cr1   2.036433 S    
C80   C89   1.431284 S    
O18   Cr6   2.032579 S    
C15   C20   1.407139 A    
C25   C26   1.394204 A    
O14   Cr4   2.040804 S    
C21   C22   1.403748 A    
O10   Cr2   1.925860 S    
Cr1   O13   1.978160 S    
O1    C3    1.270279 A    
C78   C79   1.394274 A    
C26   H10   1.082886 S    
Cr4   O26   1.978001 S    
C38   C42   1.469499 S    
C71   C76   1.419006 A    
O25   Cr6   1.914410 S    
C46   C47   1.404106 A    
O6    C3    1.276099 A    
C22   H9    1.083154 S    
C85   H45   1.082965 S    
C45   C46   1.391781 A    
O12   Cr3   1.919252 S    
C48   C93   1.470004 S    
C57   C61   1.404166 A    
C32   C33   1.404419 A    
C15   C16   1.398758 A    
O3    Cr2   2.043216 S    
C21   C26   1.405329 A    
C54   H25   1.083119 S    
C37   C38   1.404857 A    
H32   C70   1.083496 S    
C84   C90   1.407999 A    
C9    C10   1.398290 A    
C45   H22   1.083126 S    
H35   C68   1.083006 S    
C30   H11   1.083175 S    
C67   C68   1.395609 A    
C2    C7    1.479359 S    
C32   H16   1.082813 S    
O7    Cr1   2.038760 S    
C35   C40   1.405714 A    
H1    C14   1.082964 S    
N9    N10   1.331108 A    
C13   C14   1.395456 A    
H34   C67   1.083630 S    
C24   C25   1.403636 A    
C79   H46   1.083727 S    
C25   H13   1.082877 S    
C38   C39   1.414474 A    
C29   C33   1.404599 A    
C59   C62   1.403250 A    
H41   C81   1.083582 S    
C37   H20   1.083340 S    
C31   H15   1.083126 S    
H42   C82   1.083051 S    
C94   O22   1.271890 A    
C62   C95   1.470734 S    
Cr2   O13   1.975844 S    
C70   C76   1.408724 A    
C9    H8    1.083593 S    
C88   C89   1.200942 T    
C39   N13   1.437050 S    
N7    N8    1.328589 A    
C64   H36   1.082959 S    
C29   H14   1.082927 S    
C59   H30   1.083164 S    
C64   C65   1.395839 A    
C8    C9    1.397202 A    
C91   O16   1.268702 A    
O19   C93   1.277382 A    
C36   H17   1.083016 S    
O21   Cr4   1.922682 S    
C66   C67   1.397825 A    
C74   C75   1.201978 T    
C45   C48   1.403699 A    
N9    C55   1.357896 A    
N4    C27   1.358115 A    
C22   C23   1.390281 A    
C31   C34   1.404571 A    
N14   O30   1.301529 A    
O9    Cr2   2.030297 S    
O2    Cr1   1.922901 S    
C80   C81   1.397643 A    
H3    C11   1.083656 S    
C11   C12   1.396389 A    
O15   Cr4   1.916833 S    
C44   C48   1.404273 A    
N8    C41   1.356800 A    
H39   C84   1.082997 S    
O6    Cr3   1.927197 S    
O20   Cr4   2.032085 S    
N7    C42   1.355524 A    
O8    C4    1.277810 A    
O11   Cr3   2.044558 S    
C3    C21   1.470716 S    
C2    O5    1.299278 A    
O22   Cr5   2.037202 S    
N12   C55   1.356223 A    
C71   C72   1.405827 A    
H2    C13   1.083743 S    
C50   C51   1.394134 A    
C13   C17   1.397914 A    
C71   N14   1.438536 S    
O2    C1    1.274066 A    
N5    N6    1.330046 A    
O21   C94   1.275731 A    
O5    Cr3   2.036666 S    
C79   C80   1.397773 A    
C6    C63   1.476549 S    
C41   C47   1.470675 S    
C29   C30   1.391016 A    
O4    C2    1.304237 A    
O15   C91   1.273663 A    
C63   C68   1.407545 A    
O7    C6    1.271347 A    
C63   C64   1.407305 A    
C27   C33   1.472155 S    
C51   C52   1.403853 A    
Cr5   O26   1.970040 S    
C10   C19   1.435899 S    
C77   C82   1.407845 A    
C83   C87   1.397302 A    
C53   C54   1.391343 A    
C1    C35   1.472300 S    
C24   C28   1.470690 S    
N13   O28   1.301489 A    
C46   H23   1.082977 S    
C7    C12   1.406738 A    
C95   O24   1.269141 A    
N10   C56   1.357890 A    
N1    N2    1.327820 A    
C72   H37   1.083808 S    
C86   C87   1.397978 A    
C36   C37   1.392212 A    
N1    C27   1.356181 A    
C23   C24   1.403904 A    
C23   H12   1.082951 S    
O24   Cr6   2.045080 S    
N2    C28   1.355920 A    
C85   C86   1.394566 A    
O10   C5    1.273951 A    
C73   C74   1.433274 S    
N13   O27   1.301269 A    
C51   H27   1.082841 S    
C5    C49   1.471249 S    
N5    C41   1.357457 A    
C83   C84   1.395495 A    
C65   H38   1.083626 S    
N11   C56   1.356104 A    
N6    C42   1.356892 A    
C1    O3    1.274321 A    
C7    C8    1.408466 A    
