data_mof_unit_12250.cif
_audit_creation_date              2012-12-10T16:49:24-0500
_audit_creation_method            fapswitch 2.2
_symmetry_space_group_name_H-M    P1
_symmetry_Int_Tables_number       1
_space_group_crystal_system       triclinic
_cell_length_a                    19.318635
_cell_length_b                    8.684809
_cell_length_c                    7.511206
_cell_angle_alpha                 103.214012
_cell_angle_beta                  94.87062
_cell_angle_gamma                 93.415041
_cell_volume                      1218.36453602

loop_
_atom_site_label
_atom_site_type_symbol
_atom_type_description
_atom_site_fract_x
_atom_site_fract_y
_atom_site_fract_z
_atom_type_partial_charge
C1    C     C_R   0.497818 0.199776 0.453054 0.890324
C2    C     C_R   0.502183 0.800224 0.546946 0.890334
C3    C     C_2   0.496715 0.031475 0.427160 -0.328180
C4    C     C_2   0.503287 0.968525 0.572839 -0.328217
C5    C     C_R   0.367876 0.499101 0.501228 0.787114
C6    C     C_R   0.632121 0.500898 0.498773 0.787146
C7    C     C_R   0.262651 0.615807 0.630809 -0.044399
C8    C     C_R   0.737342 0.383998 0.369448 -0.044420
C9    C     C_R   0.190371 0.615029 0.630037 -0.177989
C10   C     C_R   0.809622 0.384764 0.370231 -0.177956
C11   C     C_R   0.146450 0.497831 0.504328 0.023021
C12   C     C_R   0.853540 0.502136 0.495711 0.023006
C13   C     C_R   0.175736 0.379850 0.379717 -0.178628
C14   C     C_R   0.824251 0.620296 0.620086 -0.178600
C15   C     C_R   0.247840 0.378859 0.378794 -0.036336
C16   C     C_R   0.752146 0.621296 0.620992 -0.036331
C17   C     C_R   0.291981 0.497787 0.503977 -0.101562
C18   C     C_R   0.708013 0.502204 0.496031 -0.101502
C19   C     C_R   0.929789 0.501181 0.497598 0.431553
C20   C     C_R   0.070201 0.498780 0.502448 0.431551
Cu1   Cu    Cu3+1 0.507710 0.517380 0.684380 0.981468
Cu2   Cu    Cu3+1 0.492290 0.482620 0.315620 0.981470
H1    H     H_    0.168501 0.707132 0.727043 0.164617
H2    H     H_    0.831493 0.292510 0.273426 0.164624
H3    H     H_    0.142512 0.287610 0.282942 0.163789
H4    H     H_    0.857473 0.712669 0.716679 0.163787
H5    H     H_    0.490469 0.959103 0.287160 0.186234
H6    H     H_    0.509534 0.040897 0.712839 0.186214
N1    N     N_R   0.027522 0.387128 0.379220 -0.231446
N2    N     N_R   0.972468 0.612834 0.620825 -0.231441
N3    N     N_R   0.958681 0.388253 0.376870 -0.231953
N4    N     N_R   0.041309 0.611707 0.623176 -0.231954
N5    N     N_2   0.480680 0.456420 0.038530 -0.221757
N6    N     N_2   0.519320 0.543580 0.961470 -0.221757
O1    O     O_R   0.505010 0.286130 0.619770 -0.595675
O2    O     O_R   0.494990 0.713870 0.380230 -0.595659
O3    O     O_R   0.491990 0.256780 0.308370 -0.583936
O4    O     O_R   0.508010 0.743220 0.691630 -0.583928
O5    O     O_R   0.406650 0.514660 0.655750 -0.590831
O6    O     O_R   0.593350 0.485340 0.344250 -0.590837
O7    O     O_R   0.393640 0.485310 0.344340 -0.585758
O8    O     O_R   0.606360 0.514690 0.655660 -0.585768
C21   C     C_1   0.305560 0.742166 0.758883 0.263059
N7    N     N_1   0.340075 0.843136 0.861188 -0.241209
C22   C     C_1   0.694431 0.257458 0.241651 0.262939
N8    N     N_1   0.659915 0.156341 0.139574 -0.241145
C23   C     C_1   0.275240 0.251088 0.252177 0.252900
N9    N     N_1   0.297171 0.148618 0.151074 -0.243905
C24   C     C_1   0.724734 0.749224 0.747355 0.252848
N10   N     N_1   0.702789 0.851815 0.848250 -0.243951
C25   C     C_1   0.430296 0.347972 0.927878 0.569642
N11   N     N_1   0.387969 0.256742 0.837383 -0.320128
C26   C     C_1   0.569709 0.652021 0.072115 0.569631
N12   N     N_1   0.612040 0.743245 0.162600 -0.320111

loop_
_geom_bond_atom_site_label_1
_geom_bond_atom_site_label_2
_ccdc_geom_bond_type
C2    C4    S    
C21   N7    T    
C15   C17   A    
Cu1   O1    S    
C1    O3    A    
N5    C25   S    
C9    C11   A    
C2    O4    A    
C23   N9    T    
Cu1   O5    S    
C15   C23   S    
Cu2   O6    S    
C3    H5    S    
N5    N6    D    
C3    C4    D    
C19   N3    A    
N1    N3    A    
C26   N12   T    
C14   H4    S    
N2    N4    A    
C11   C13   A    
C13   H3    S    
C10   C12   A    
Cu2   N5    S    
C12   C19   S    
C8    C10   A    
C4    H6    S    
C12   C14   A    
C7    C21   S    
C20   N1    A    
C13   C15   A    
C6    O8    A    
C6    C18   S    
C14   C16   A    
C11   C20   S    
Cu2   O7    S    
C5    C17   S    
C25   N11   T    
C22   N8    T    
C6    O6    A    
Cu2   O2    S    
C16   C24   S    
C1    O1    A    
N6    C26   S    
C16   C18   A    
C24   N10   T    
C20   N4    A    
C2    O2    A    
C7    C9    A    
C5    O5    A    
C5    O7    A    
C8    C22   S    
C9    H1    S    
Cu1   N6    S    
C10   H2    S    
Cu1   Cu2   S    
C19   N2    A    
Cu2   O3    S    
C8    C18   A    
Cu1   O4    S    
Cu1   O8    S    
C1    C3    S    
C7    C17   A    
