data_mof_unit_36994.cif
_audit_creation_date              2012-12-11T15:24:28-0500
_audit_creation_method            fapswitch 2.2
_symmetry_space_group_name_H-M    P1
_symmetry_Int_Tables_number       1
_space_group_crystal_system       triclinic
_cell_length_a                    8.461775
_cell_length_b                    14.38758
_cell_length_c                    19.099386
_cell_angle_alpha                 93.395057
_cell_angle_beta                  94.679429
_cell_angle_gamma                 90.474102
_cell_volume                      2313.22582205

loop_
_atom_site_label
_atom_site_type_symbol
_atom_type_description
_atom_site_fract_x
_atom_site_fract_y
_atom_site_fract_z
_atom_type_partial_charge
Ba1   Ba    Ba6+2 0.150350 0.545800 0.464500 1.789956
Ba2   Ba    Ba6+2 0.659830 0.454190 0.535450 1.784684
C1    C     C_3   0.306973 0.763620 0.189352 0.324327
C2    C     C_R   0.817086 0.808528 0.502540 -0.044256
C3    C     C_R   0.655108 0.789898 0.485544 0.063453
C4    C     C_3   0.816362 0.790060 0.291475 -0.315378
C5    C     C_R   0.562550 0.842208 0.438778 -0.099773
C6    C     C_R   0.618171 0.930556 0.425060 -0.215745
C7    C     C_R   0.765640 0.964216 0.457014 0.033959
C8    C     C_R   0.870053 0.902360 0.493870 -0.051505
C9    C     C_R   0.943268 0.098043 0.492989 -0.044133
C10   C     C_R   0.053421 0.035392 0.523891 0.027757
C11   C     C_R   0.978312 0.196261 0.501386 0.017828
C12   C     C_3   0.332011 0.740366 0.266114 0.487154
C13   C     C_R   0.113994 0.227736 0.540738 -0.212053
C14   C     C_R   0.232663 0.166521 0.558402 -0.023011
C15   C     C_R   0.202992 0.069916 0.551455 -0.090323
C16   C     C_3   0.783786 0.882017 0.257088 0.340787
C17   C     C_R   0.804650 0.060013 0.455657 0.045463
C18   C     C_R   0.608849 0.530944 0.297852 -0.208757
C19   C     C_R   0.463331 0.486852 0.278011 0.032708
C20   C     C_R   0.403790 0.481965 0.207244 -0.138930
C21   C     C_R   0.489559 0.521066 0.155678 0.001892
C22   C     C_R   0.638958 0.563180 0.176561 -0.137892
C23   C     C_3   0.479994 0.725177 0.754572 0.772520
C24   C     C_R   0.699121 0.566814 0.247490 -0.001065
C25   C     C_R   0.439771 0.591889 0.038095 -0.101115
C26   C     C_R   0.381512 0.586078 0.967043 -0.053464
C27   C     C_R   0.311292 0.503015 0.935917 0.060703
C28   C     C_3   0.746379 0.310529 0.323761 0.721045
C29   C     C_R   0.289914 0.428596 0.978794 -0.103809
C30   C     C_R   0.345359 0.435051 0.050084 -0.083526
C31   C     C_R   0.424011 0.516093 0.080413 0.056457
C32   C     C_R   0.124469 0.457552 0.831187 -0.176821
C33   C     C_R   0.087135 0.444015 0.758549 0.063833
C34   C     C_3   0.335653 0.737947 0.797064 -0.340554
C35   C     C_R   0.343234 0.505870 0.736239 -0.076899
C36   C     C_R   0.391601 0.508423 0.809791 0.330242
C37   C     C_R   0.275847 0.490076 0.857987 -0.055939
C38   C     C_R   0.195807 0.468105 0.711881 -0.266680
C39   C     C_3   0.635610 0.242997 0.276456 -0.314568
C40   C     C_3   0.002105 0.656421 0.673961 0.360110
C41   C     C_3   0.950112 0.670633 0.748301 -0.286593
C42   C     C_3   0.211568 0.270072 0.352481 0.306654
C43   C     C_3   0.215548 0.164141 0.345106 -0.296764
C44   C     C_3   0.390669 0.859865 0.107064 0.159198
C45   C     C_3   0.022846 0.214477 0.728309 0.730389
C46   C     C_3   0.225727 0.248603 0.818954 0.083932
C47   C     C_3   0.096244 0.963600 0.731111 0.161766
C48   C     C_3   0.571363 0.168947 0.745976 0.120328
C49   C     C_3   0.623846 0.468831 0.873567 0.253321
C50   C     C_3   0.879856 0.341903 0.222597 0.132299
C51   C     C_3   0.007508 0.113432 0.749962 0.274937
C52   C     C_3   0.592812 0.106834 0.632246 0.701882
C53   C     C_3   0.698644 0.022171 0.631067 -0.259518
C54   C     C_R   0.016005 0.939364 0.524856 0.006777
H1    H     H_    0.235039 0.692571 0.277090 0.059187
H2    H     H_    0.115110 0.292714 0.315544 0.073757
H3    H     H_    0.189295 0.293397 0.407075 0.034295
H4    H     H_    0.310354 0.697831 0.155970 -0.056836
H5    H     H_    0.216697 0.140401 0.288752 0.156543
H6    H     H_    0.109110 0.134875 0.366363 0.147329
H7    H     H_    0.322431 0.137111 0.374307 0.121190
H8    H     H_    0.446898 0.704407 0.274128 -0.267651
H9    H     H_    0.568211 0.680220 0.781025 -0.017733
H10   H     H_    0.372649 0.764724 0.851671 0.119453
H11   H     H_    0.253107 0.788175 0.772319 0.110548
H12   H     H_    0.571050 0.197531 0.309788 0.119424
H13   H     H_    0.270974 0.671852 0.799764 -0.004539
H14   H     H_    0.187292 0.794255 0.180444 0.104069
H15   H     H_    0.679118 0.914852 0.279342 -0.016731
H16   H     H_    0.001923 0.210842 0.670038 0.014317
H17   H     H_    0.036008 0.108355 0.807456 -0.024869
H18   H     H_    0.882745 0.091143 0.740230 0.017911
H19   H     H_    0.473023 0.079815 0.641468 -0.053040
H20   H     H_    0.647312 0.968196 0.591622 0.107575
H21   H     H_    0.706914 0.992381 0.683062 0.152632
H22   H     H_    0.873233 0.803141 0.345704 0.119227
H23   H     H_    0.550162 0.282419 0.242788 0.054419
H24   H     H_    0.819135 0.041947 0.618275 0.085692
H25   H     H_    0.542552 0.974835 0.393217 0.109761
H26   H     H_    0.296673 0.021170 0.562864 0.076119
H27   H     H_    0.140600 0.301775 0.546102 0.049942
H28   H     H_    0.098411 0.895456 0.553292 0.111021
H29   H     H_    0.721644 0.105065 0.428543 0.093328
H30   H     H_    0.398903 0.644673 0.935462 0.086703
H31   H     H_    0.498753 0.655410 0.059810 0.078257
H32   H     H_    0.698930 0.756784 0.295575 0.622093
H33   H     H_    0.290050 0.448201 0.192695 0.065819
H34   H     H_    0.701861 0.195876 0.241810 0.129512
H35   H     H_    0.236599 0.363756 0.956505 0.048395
H36   H     H_    0.331969 0.375033 0.080810 0.054618
H37   H     H_    0.037488 0.439522 0.866838 0.060814
H38   H     H_    0.709374 0.591714 0.137913 0.069586
H39   H     H_    0.162379 0.461067 0.655848 0.029133
H40   H     H_    0.656396 0.532880 0.352148 0.032161
H41   H     H_    0.754431 0.868761 0.199607 0.058546
H42   H     H_    0.669439 0.349888 0.358868 0.015175
H43   H     H_    0.288464 0.907792 0.108472 0.080807
H44   H     H_    0.365135 0.802934 0.065582 0.014020
H45   H     H_    0.131631 0.647209 0.676344 -0.049196
H46   H     H_    0.494069 0.900301 0.092592 0.069652
H47   H     H_    0.664562 0.943994 0.829407 0.339342
H48   H     H_    0.128509 0.265954 0.853121 0.042847
H49   H     H_    0.324210 0.299286 0.832668 0.053372
H50   H     H_    0.274419 0.179185 0.830336 0.050368
H51   H     H_    0.971745 0.938591 0.731181 0.076084
H52   H     H_    0.159991 0.957764 0.783878 0.067521
H53   H     H_    0.153874 0.917154 0.692699 0.131280
H54   H     H_    0.443739 0.181765 0.733675 0.088680
H55   H     H_    0.617486 0.223935 0.785671 0.088730
H56   H     H_    0.942124 0.592094 0.649862 0.040238
H57   H     H_    0.588288 0.100361 0.769255 0.033290
H58   H     H_    0.609448 0.615686 0.455921 0.260336
H59   H     H_    0.606541 0.478638 0.930130 0.012654
H60   H     H_    0.753333 0.478558 0.871570 0.068657
H61   H     H_    0.591220 0.396166 0.853853 0.017204
H62   H     H_    0.999934 0.965319 0.163242 0.310774
H63   H     H_    0.930393 0.271112 0.225913 0.044920
H64   H     H_    0.975261 0.388330 0.207874 0.090956
H65   H     H_    0.782212 0.341769 0.180031 0.019133
H66   H     H_    0.984263 0.741221 0.771397 0.131571
H67   H     H_    0.004448 0.618961 0.782918 0.014523
H68   H     H_    0.820030 0.662096 0.747096 0.154887
O1    O     O_2   0.108370 0.727470 0.525290 -0.418433
O2    O     O_2   0.756580 0.428318 0.748637 -0.476764
O3    O     O_3   0.903319 0.270269 0.756374 -0.636794
O4    O     O_3   0.865330 0.611210 0.531230 -0.478501
O5    O     O_3   0.438280 0.453360 0.418700 -0.436505
O6    O     O_2   0.627420 0.543410 0.667830 -0.423500
O7    O     O_3   0.432671 0.692327 0.684846 -0.563692
O8    O     O_2   0.425316 0.239650 0.478500 -0.482104
O9    O     O_3   0.592813 0.145243 0.566408 -0.598935
O10   O     O_3   0.346360 0.671710 0.401620 -0.461672
O11   O     O_2   0.228655 0.837240 0.434807 -0.412033
O12   O     O_3   0.355818 0.306359 0.335072 -0.654930
O13   O     O_3   0.965075 0.736704 0.638072 -0.579922
O14   O     O_3   0.329556 0.822303 0.309914 -0.568487
O15   O     O_2   0.182890 0.456530 0.332150 -0.462268
O16   O     O_3   0.933230 0.625130 0.368420 -0.502494
O17   O     O_2   0.032332 0.565320 0.244802 -0.484957
O18   O     O_3   0.428395 0.825111 0.173771 -0.663014
O19   O     O_2   0.724791 0.828129 0.718555 -0.322576
O20   O     O_2   0.462269 0.899036 0.710864 -0.332684
O21   O     O_3   0.608513 0.884456 0.834844 -0.568812
O22   O     O_3   0.177839 0.252178 0.746367 -0.699918
O23   O     O_3   0.913281 0.733141 0.250777 -0.581781
O24   O     O_3   0.105515 0.055640 0.710216 -0.672547
O25   O     O_3   0.653481 0.173994 0.684957 -0.639837
O26   O     O_2   0.650904 0.708459 0.606559 -0.267465
O27   O     O_2   0.400334 0.758718 0.552712 -0.246418
O28   O     O_3   0.535195 0.614986 0.493325 -0.426625
O29   O     O_3   0.545016 0.537075 0.833429 -0.673412
O30   O     O_2   0.882628 0.060018 0.273857 -0.352842
O31   O     O_2   0.039906 0.948554 0.340383 -0.257640
O32   O     O_3   0.066469 0.950477 0.206128 -0.496928
O33   O     O_3   0.825403 0.377705 0.286814 -0.670531
O34   O     O_2   0.701930 0.272470 0.474700 -0.440493
O35   O     O_3   0.944970 0.388780 0.468720 -0.494127
O36   O     O_3   0.463940 0.328280 0.598320 -0.440400
O37   O     O_3   0.858670 0.258101 0.361996 -0.664089
O38   O     O_3   0.372010 0.546630 0.581240 -0.371183
O39   O     O_3   0.877070 0.374860 0.631520 -0.472723
P1    P     P_3+3 0.937730 0.712710 0.546710 1.098194
P2    P     P_3+3 0.357970 0.428340 0.344000 0.991974
P3    P     P_3+3 0.895130 0.619095 0.276882 0.919910
P4    P     P_3+3 0.872570 0.287280 0.453240 0.977923
P5    P     P_3+3 0.906124 0.381744 0.723225 0.994558
P6    P     P_3+3 0.368013 0.793536 0.397534 1.040962
P7    P     P_3+3 0.446046 0.570160 0.671041 1.105150
P8    P     P_3+3 0.429458 0.217562 0.556662 1.015209
S1    S     S_3+6 0.571623 0.837150 0.752433 -0.102744
S2    S     S_3+6 0.556994 0.717987 0.537875 -0.014953
S3    S     S_3+6 0.946398 0.962945 0.271714 -0.075233

loop_
_geom_bond_atom_site_label_1
_geom_bond_atom_site_label_2
_ccdc_geom_bond_type
C42   O12   S    
C28   O33   S    
C44   H43   S    
O7    P7    S    
O27   S2    D    
C41   H67   S    
C51   H18   S    
C14   P8    S    
Ba1   O4    S    
H58   O28   S    
Ba2   O38   S    
C34   H11   S    
C19   P2    S    
C5    C6    A    
C44   O18   S    
C25   C31   A    
C44   H46   S    
O32   S3    S    
O17   P3    D    
C26   C27   A    
Ba1   O1    S    
O19   S1    D    
C15   H26   S    
C35   C38   A    
Ba1   O5    S    
C36   C37   A    
C53   H21   S    
C34   H10   S    
C4    H22   S    
C14   C15   A    
O12   P2    S    
C42   H3    S    
C13   C14   A    
C46   H48   S    
C43   H6    S    
O4    P1    S    
Ba2   O5    S    
C4    H32   S    
C32   C33   A    
O15   P2    D    
C40   H56   S    
O28   S2    S    
C7    C17   A    
C46   H50   S    
C12   O14   S    
Ba1   P1    S    
C42   H2    S    
O3    P5    S    
C21   C31   S    
O10   P6    S    
C46   O22   S    
C10   C15   A    
C21   C22   A    
C2    P1    S    
C28   C39   S    
H62   O32   S    
O8    P8    D    
C52   O25   S    
C8    C54   A    
C7    C8    A    
Ba1   O15   S    
C45   C51   S    
C1    H4    S    
C39   H34   S    
C18   H40   S    
O21   S1    S    
C12   H8    S    
C19   C20   A    
C40   O13   S    
C1    O18   S    
C48   H54   S    
O34   P4    D    
C54   H28   S    
C39   H12   S    
O16   P3    S    
C4    C16   S    
C4    O23   S    
O30   S3    D    
C6    H25   S    
Ba1   O35   S    
C1    H14   S    
C23   H9    S    
C47   H51   S    
C35   P7    S    
C3    C5    A    
C6    C7    A    
C13   H27   S    
C52   O9    S    
C43   H7    S    
C51   O24   S    
C49   H59   S    
C32   C37   A    
C47   O24   S    
C35   C36   A    
O23   P3    S    
C22   H38   S    
C24   P3    S    
C50   H65   S    
C46   H49   S    
O38   P7    S    
Ba1   P2    S    
C47   H52   S    
Ba2   O34   S    
C9    C17   A    
C27   C37   S    
C33   P5    S    
O37   P4    S    
C20   H33   S    
C25   H31   S    
Ba1   O16   S    
C41   H66   S    
C10   C54   A    
C1    C12   S    
C53   H20   S    
C16   S3    S    
O31   S3    D    
C16   H41   S    
Ba1   O38   S    
C29   H35   S    
C11   C13   A    
C26   H30   S    
O1    P1    D    
C40   C41   S    
Ba2   O35   S    
C38   H39   S    
C2    C8    A    
Ba1   O10   S    
C23   O7    S    
C40   H45   S    
C50   H64   S    
Ba2   O6    S    
C34   H13   S    
C23   S1    S    
C47   H53   S    
C28   H42   S    
C16   H15   S    
C12   H1    S    
C44   H44   S    
C52   C53   S    
C50   O33   S    
C3    S2    S    
C29   C30   A    
C51   H17   S    
C42   C43   S    
C22   C24   A    
C2    C3    A    
C17   H29   S    
Ba2   O39   S    
C39   H23   S    
O13   P1    S    
C9    C10   A    
C45   O3    S    
O20   S1    D    
O2    P5    D    
C49   H60   S    
C36   O29   S    
O5    P2    S    
C48   H57   S    
C30   C31   A    
C5    P6    S    
O39   P5    S    
O9    P8    S    
C27   C29   A    
H47   O21   S    
C53   H24   S    
C9    C11   A    
C48   O25   S    
C30   H36   S    
C18   C24   A    
O6    P7    D    
Ba1   Ba2   S    
C43   H5    S    
C48   H55   S    
C49   H61   S    
O36   P8    S    
O35   P4    S    
C33   C38   A    
O11   P6    D    
C32   H37   S    
C45   H16   S    
C45   O22   S    
C11   P4    S    
C23   C34   S    
C52   H19   S    
C50   H63   S    
O26   S2    D    
C18   C19   A    
C41   H68   S    
Ba2   O36   S    
C25   C26   A    
C20   C21   A    
C28   O37   S    
C49   O29   S    
Ba2   P4    S    
O14   P6    S    
Ba2   O4    S    
