data_mof_unit_22869.cif
_audit_creation_date              2012-12-10T16:39:39-0500
_audit_creation_method            fapswitch 2.2
_symmetry_space_group_name_H-M    P1
_symmetry_Int_Tables_number       1
_space_group_crystal_system       triclinic
_cell_length_a                    16.984738
_cell_length_b                    16.795992
_cell_length_c                    16.833992
_cell_angle_alpha                 66.475747
_cell_angle_beta                  67.264827
_cell_angle_gamma                 66.306809
_cell_volume                      3883.13652062

loop_
_atom_site_label
_atom_site_type_symbol
_atom_type_description
_atom_site_fract_x
_atom_site_fract_y
_atom_site_fract_z
_atom_type_partial_charge
C1    C     C_R   0.323306 0.954560 0.455267 -0.013818
C2    C     C_R   0.306076 0.438470 0.012220 -0.014022
C3    C     C_R   0.542503 0.430764 0.961609 -0.004181
C4    C     C_R   0.021681 0.448769 0.585399 0.000302
C5    C     C_R   0.977469 0.546672 0.419049 0.005958
C6    C     C_3   0.290805 0.891411 0.284557 -0.660316
C7    C     C_3   0.766439 0.936973 0.762260 -0.727084
C8    C     C_3   0.877363 0.290133 0.288737 -0.717093
C9    C     C_3   0.113756 0.712777 0.715464 -0.686765
C10   C     C_3   0.246046 0.231480 0.067168 -0.733110
C11   C     C_3   0.714007 0.705644 0.115916 -0.689020
C12   C     C_R   0.040362 0.675110 0.547615 -0.024381
C13   C     C_R   0.953462 0.323695 0.456475 -0.040622
C14   C     C_R   0.443243 0.997983 0.456346 0.026528
C15   C     C_R   0.541261 0.006803 0.552557 0.029624
C16   C     C_R   0.976961 0.455974 0.459591 0.032870
C17   C     C_R   0.020649 0.540325 0.545102 0.032459
C18   C     C_R   0.448535 0.460696 0.986051 0.032776
C19   C     C_R   0.544071 0.553699 0.004520 0.034613
C20   C     C_R   0.963400 0.179286 0.437137 0.917397
C21   C     C_R   0.679759 0.016639 0.557057 -0.045517
C22   C     C_R   0.034164 0.820567 0.563929 0.897275
C23   C     C_R   0.169735 0.427053 0.995223 0.932241
C24   C     C_R   0.823424 0.569194 0.020795 0.920831
C25   C     C_R   0.431605 0.978256 0.176592 0.898110
C26   C     C_R   0.571761 0.008138 0.829229 0.941215
C27   C     C_R   0.561954 0.820618 0.038520 0.896870
C28   C     C_R   0.434050 0.178862 0.969858 0.949140
C29   C     C_R   0.037897 0.561680 0.820880 0.944703
C30   C     C_R   0.961597 0.438256 0.179591 0.892832
C31   C     C_R   0.823322 0.021438 0.568281 0.918745
C32   C     C_R   0.945251 0.458023 0.328389 0.002754
C33   C     C_R   0.178983 0.964004 0.437414 0.902416
C34   C     C_R   0.397912 0.987103 0.408670 0.023997
C35   C     C_R   0.592774 0.007773 0.600850 0.026878
C36   C     C_R   0.960209 0.411897 0.414083 0.022877
C37   C     C_R   0.037147 0.585212 0.589758 0.023607
C38   C     C_R   0.399878 0.411022 0.983176 0.029092
C39   C     C_R   0.591422 0.598296 0.017522 0.027063
C40   C     C_R   0.276089 0.948534 0.405791 -0.103670
C41   C     C_R   0.733519 0.010024 0.609008 -0.107369
C42   C     C_R   0.938009 0.409514 0.279334 -0.105516
C43   C     C_R   0.055269 0.539144 0.673894 -0.005658
C44   C     C_R   0.060978 0.589698 0.721921 -0.106040
C45   C     C_R   0.393249 0.272883 0.971932 -0.096639
C46   C     C_R   0.592889 0.721237 0.058470 -0.091633
C47   C     C_R   0.612778 0.993094 0.741259 -0.116398
C48   C     C_R   0.392687 0.976706 0.270724 -0.105201
C49   C     C_R   0.728886 0.606598 0.024690 -0.113404
C50   C     C_R   0.259280 0.387553 0.007596 -0.112432
C51   C     C_R   0.053469 0.721558 0.594607 -0.100010
C52   C     C_R   0.941177 0.278284 0.408080 -0.115456
C53   C     C_R   0.489525 0.951258 0.739107 0.179577
C54   C     C_R   0.444280 0.332434 0.953588 -0.026961
C55   C     C_R   0.496327 0.049676 0.269361 0.171257
C56   C     C_R   0.044914 0.710035 0.454930 0.203097
C57   C     C_R   0.950733 0.287221 0.548911 0.197149
C58   C     C_R   0.729623 0.504057 0.946920 0.177110
C59   C     C_R   0.262576 0.510389 0.051872 0.174556
C60   C     C_R   0.306836 0.915861 0.548812 0.167800
C61   C     C_R   0.715738 0.010354 0.468244 0.189974
C62   C     C_R   0.537450 0.314359 0.912241 0.177617
C63   C     C_R   0.452675 0.689588 0.090757 0.173063
C64   C     C_R   0.919535 0.553531 0.304454 0.182134
C65   C     C_R   0.544780 0.672690 0.052579 0.003985
C66   C     C_R   0.078538 0.442954 0.701387 0.187150
C67   C     C_R   0.319146 0.942798 0.319174 0.039554
C68   C     C_R   0.702599 0.985974 0.702649 0.089191
C69   C     C_R   0.921792 0.325575 0.325066 0.063645
C70   C     C_R   0.073977 0.674735 0.676936 0.045492
C71   C     C_R   0.300735 0.298365 0.010555 0.087888
C72   C     C_R   0.679336 0.678105 0.063361 0.040381
C73   C     C_R   0.658498 0.035581 0.414902 -0.057583
C74   C     C_R   0.340260 0.940264 0.597557 -0.039509
C75   C     C_R   0.051071 0.397826 0.664719 -0.043304
C76   C     C_R   0.561999 0.988504 0.694335 -0.024616
C77   C     C_R   0.950546 0.596301 0.338887 -0.030040
C78   C     C_R   0.404198 0.656561 0.066013 -0.031479
C79   C     C_R   0.588449 0.355127 0.926691 -0.037289
C80   C     C_R   0.552844 0.043276 0.315980 -0.040780
C81   C     C_R   0.431286 0.961998 0.692524 -0.046569
C82   C     C_R   0.309062 0.567864 0.042478 -0.047286
C83   C     C_R   0.683673 0.449432 0.947161 -0.042748
C84   C     C_R   0.989344 0.319618 0.586058 -0.060216
C85   C     C_R   0.008529 0.676680 0.416980 -0.048281
C86   C     C_R   0.689900 0.055267 0.320590 0.147591
C87   C     C_R   0.428553 0.006117 0.314643 -0.032793
C88   C     C_R   0.306493 0.925028 0.691702 0.158409
C89   C     C_R   0.052148 0.304648 0.702611 0.158198
C90   C     C_R   0.951200 0.687857 0.298278 0.163966
C91   C     C_R   0.311177 0.693737 0.079062 0.176460
C92   C     C_R   0.682611 0.319778 0.913981 0.166665
C93   C     C_R   0.638338 0.056285 0.271327 0.155461
C94   C     C_R   0.349136 0.942066 0.737818 0.152328
C95   C     C_R   0.264492 0.651688 0.062392 0.153963
C96   C     C_R   0.728777 0.365570 0.927543 0.138661
C97   C     C_R   0.019976 0.266747 0.663684 0.136314
C98   C     C_R   0.685092 0.569536 0.995235 -0.029832
C99   C     C_R   0.986070 0.725989 0.333925 0.173042
C100  C     C_R   0.522452 0.023236 0.410197 -0.000253
C101  C     C_R   0.459964 0.985251 0.598347 -0.004189
C102  C     C_R   0.996954 0.407789 0.543485 -0.005349
C103  C     C_R   0.000475 0.588489 0.461078 -0.000735
C104  C     C_R   0.402791 0.538624 0.016750 -0.003142
C105  C     C_R   0.590112 0.477818 0.971043 -0.003536
C106  C     C_R   0.573069 0.024124 0.458771 0.001140
C107  C     C_R   0.412547 0.977544 0.550636 -0.005983
C108  C     C_R   0.450416 0.584322 0.026953 0.000795
H1    H     H_    0.349795 0.847944 0.248210 0.255666
H2    H     H_    0.060495 0.753035 0.760290 0.261740
H3    H     H_    0.161793 0.657662 0.752417 0.245635
H4    H     H_    0.152255 0.757141 0.661084 0.255085
H5    H     H_    0.182592 0.261891 0.112391 0.214341
H6    H     H_    0.228979 0.209415 0.023422 0.270112
H7    H     H_    0.282770 0.172061 0.112842 0.231222
H8    H     H_    0.658845 0.742686 0.162634 0.241643
H9    H     H_    0.750661 0.643656 0.158385 0.249024
H10   H     H_    0.758196 0.749001 0.069914 0.265728
H11   H     H_    0.257341 0.844273 0.341672 0.252287
H12   H     H_    0.245865 0.938405 0.240841 0.266390
H13   H     H_    0.827961 0.890336 0.730605 0.226853
H14   H     H_    0.783711 0.986638 0.775769 0.274950
H15   H     H_    0.737187 0.892264 0.827411 0.221261
H16   H     H_    0.833578 0.347138 0.248163 0.233708
H17   H     H_    0.928289 0.245982 0.246545 0.265991
H18   H     H_    0.833063 0.251322 0.344692 0.234925
I1    I     I_    0.280871 0.959576 0.868611 -0.165546
I2    I     I_    0.244313 0.819520 0.111762 -0.192140
I3    I     I_    0.901573 0.768156 0.181971 -0.192273
I4    I     I_    0.091553 0.218877 0.823848 -0.170009
I5    I     I_    0.515700 0.823303 0.838377 -0.316691
I6    I     I_    0.462202 0.177157 0.173250 -0.336720
I7    I     I_    0.173841 0.719360 0.377654 -0.273532
I8    I     I_    0.833749 0.246573 0.634405 -0.214757
I9    I     I_    0.829186 0.537601 0.825430 -0.311528
I10   I     I_    0.160634 0.488537 0.174818 -0.329043
I11   I     I_    0.322795 0.774612 0.585515 -0.305228
I12   I     I_    0.700783 0.048930 0.136695 -0.168342
I13   I     I_    0.807192 0.879199 0.464936 -0.277072
I14   I     I_    0.580522 0.276727 0.791181 -0.230795
I15   I     I_    0.418634 0.674447 0.230098 -0.297342
I16   I     I_    0.779185 0.604627 0.323091 -0.312715
I17   I     I_    0.200438 0.381257 0.741939 -0.251430
I18   I     I_    0.999813 0.860036 0.263696 -0.139794
I19   I     I_    0.033306 0.124196 0.711081 -0.178109
I20   I     I_    0.857380 0.295577 0.951530 -0.185307
I21   I     I_    0.136453 0.726074 0.038902 -0.168666
I22   I     I_    0.188506 0.882138 0.764218 -0.222314
I23   I     I_    0.810669 0.093158 0.253290 -0.228103
I24   I     I_    0.754698 0.187953 0.894585 -0.153943
O1    O     O_R   0.982940 0.138950 0.510160 -0.605789
O2    O     O_R   0.982940 0.510160 0.138950 -0.603181
O3    O     O_R   0.861050 0.017060 0.489840 -0.610900
O4    O     O_R   0.138950 0.982940 0.510160 -0.610461
O5    O     O_R   0.867700 0.025880 0.612340 -0.607838
O6    O     O_R   0.132300 0.974120 0.387660 -0.613773
O7    O     O_R   0.025880 0.612340 0.867700 -0.624588
O8    O     O_R   0.974120 0.387660 0.132300 -0.633629
O9    O     O_R   0.612340 0.867700 0.025880 -0.632943
O10   O     O_R   0.387660 0.132300 0.974120 -0.616935
O11   O     O_R   0.387660 0.974120 0.132300 -0.633081
O12   O     O_R   0.017060 0.861050 0.489840 -0.602187
O13   O     O_R   0.612340 0.025880 0.867700 -0.602996
O14   O     O_R   0.132300 0.387660 0.974120 -0.603065
O15   O     O_R   0.867700 0.612340 0.025880 -0.626502
O16   O     O_R   0.974120 0.132300 0.387660 -0.617750
O17   O     O_R   0.025880 0.867700 0.612340 -0.632317
O18   O     O_R   0.138950 0.510160 0.982940 -0.614078
O19   O     O_R   0.861050 0.489840 0.017060 -0.609689
O20   O     O_R   0.510160 0.982940 0.138950 -0.605212
O21   O     O_R   0.489840 0.017060 0.861050 -0.606471
O22   O     O_R   0.489840 0.861050 0.017060 -0.600231
O23   O     O_R   0.510160 0.138950 0.982940 -0.588523
O24   O     O_R   0.017060 0.489840 0.861050 -0.591930
Zn1   Zn    Zn3+2 0.004880 0.004880 0.583590 1.056039
Zn2   Zn    Zn3+2 0.995120 0.995120 0.416410 1.064237
Zn3   Zn    Zn3+2 0.004880 0.583590 0.004880 1.051210
Zn4   Zn    Zn3+2 0.995120 0.416410 0.995120 1.058869
Zn5   Zn    Zn3+2 0.583590 0.004880 0.004880 1.063195
Zn6   Zn    Zn3+2 0.416410 0.995120 0.995120 1.056404

loop_
_geom_bond_atom_site_label_1
_geom_bond_atom_site_label_2
_ccdc_geom_bond_type
C25   O20   A    
C101  C107  A    
C63   C65   A    
C9    H3    S    
C55   C80   A    
C45   C71   A    
O15   Zn3   S    
C64   C77   A    
C26   O13   A    
C58   C98   A    
C59   C82   A    
C28   O10   A    
C29   O24   A    
C50   C71   A    
C3    C79   A    
C5    C103  A    
C56   I7    S    
C56   C85   A    
C33   O6    A    
C28   C45   S    
C81   C101  A    
C94   I1    S    
C3    C105  A    
O3    Zn2   S    
C8    C69   S    
O4    Zn1   S    
C84   C97   A    
C32   C36   A    
C15   C106  A    
C53   C81   A    
C47   C76   A    
C22   O12   A    
C28   O23   A    
O12   Zn2   S    
O23   Zn5   S    
C27   O9    A    
O18   Zn3   S    
C59   I10   S    
C92   C96   A    
C84   C102  A    
C3    C18   A    
C78   C108  A    
C15   C35   A    
O2    Zn3   S    
C2    C38   A    
O10   Zn6   S    
C5    C16   A    
C93   I12   S    
C2    C50   A    
C1    C40   A    
C7    C68   S    
C90   I3    S    
C21   C61   A    
C25   O11   A    
C4    C75   A    
C49   C72   A    
C4    C102  A    
C66   C75   A    
C44   C70   A    
C52   C69   A    
C51   C70   A    
O24   Zn4   S    
C46   C72   A    
C85   C103  A    
C60   I11   S    
C19   C108  A    
O22   Zn6   S    
C9    H4    S    
C100  C106  A    
C49   C98   A    
C80   C100  A    
C39   C65   A    
O8    Zn4   S    
C7    H13   S    
C6    H12   S    
C31   O3    A    
C1    C34   A    
C41   C68   A    
C88   I22   S    
C35   C76   A    
C88   C94   A    
C77   C90   A    
C48   C87   A    
C33   C40   S    
O1    Zn1   S    
C91   I2    S    
C62   C79   A    
C95   I21   S    
C9    C70   S    
C32   C64   A    
C13   C36   A    
C1    C60   A    
O9    Zn5   S    
C33   O4    A    
C8    H16   S    
C23   C50   S    
C29   O7    A    
C66   I17   S    
C54   C62   A    
C61   C73   A    
C90   C99   A    
C40   C67   A    
C42   C69   A    
C89   I4    S    
C83   C105  A    
C89   C97   A    
C17   C103  A    
C37   C43   A    
C43   C44   A    
C14   C34   A    
C85   C99   A    
C86   C93   A    
C13   C52   A    
C99   I18   S    
C30   O2    A    
C38   C54   A    
C63   I15   S    
C57   C84   A    
C18   C104  A    
C15   C101  A    
O11   Zn6   S    
C24   O19   A    
C25   C48   S    
C79   C92   A    
C12   C56   A    
C10   H5    S    
C19   C39   A    
C26   C47   S    
C46   C65   A    
C21   C41   A    
C4    C17   A    
C74   C107  A    
C27   C46   S    
C16   C102  A    
C14   C107  A    
C26   O21   A    
C29   C44   S    
C92   I24   S    
C58   I9    S    
C6    H1    S    
C57   I8    S    
C86   I23   S    
C53   C76   A    
C22   O17   A    
C7    H14   S    
C5    C77   A    
C11   H9    S    
C19   C105  A    
C47   C68   A    
C104  C108  A    
C12   C51   A    
O14   Zn4   S    
O17   Zn1   S    
C23   O14   A    
O5    Zn1   S    
C9    H2    S    
C30   O8    A    
O6    Zn2   S    
C82   C104  A    
C82   C95   A    
C31   C41   S    
C6    H11   S    
C2    C59   A    
C97   I19   S    
C20   O16   A    
C61   I13   S    
C53   I5    S    
C7    H15   S    
C39   C98   A    
C10   H6    S    
C45   C54   A    
C11   C72   S    
C31   O5    A    
C14   C100  A    
C21   C35   A    
C17   C37   A    
C78   C91   A    
C96   I20   S    
O16   Zn2   S    
C20   O1    A    
C11   H8    S    
O20   Zn5   S    
C74   C88   A    
C24   O15   A    
C18   C38   A    
C20   C52   S    
C6    C67   S    
C58   C83   A    
C16   C36   A    
O13   Zn5   S    
C81   C94   A    
C73   C106  A    
C64   I16   S    
C43   C66   A    
C83   C96   A    
C24   C49   S    
C60   C74   A    
C34   C87   A    
C48   C67   A    
C55   C87   A    
O21   Zn6   S    
O7    Zn3   S    
C73   C86   A    
O19   Zn4   S    
C75   C89   A    
C10   C71   S    
C91   C95   A    
C23   O18   A    
C8    H17   S    
C13   C57   A    
C55   I6    S    
C12   C37   A    
C32   C42   A    
C30   C42   S    
C62   I14   S    
C80   C93   A    
C11   H10   S    
C27   O22   A    
C10   H7    S    
C8    H18   S    
C22   C51   S    
C63   C78   A    
