data_mof_unit_59970.cif
_audit_creation_date              2012-12-10T17:02:19-0500
_audit_creation_method            fapswitch 2.2
_symmetry_space_group_name_H-M    P1
_symmetry_Int_Tables_number       1
_space_group_crystal_system       triclinic
_cell_length_a                    10.708712
_cell_length_b                    10.691561
_cell_length_c                    10.028895
_cell_angle_alpha                 86.585758
_cell_angle_beta                  90.332419
_cell_angle_gamma                 91.052041
_cell_volume                      1145.99272421

loop_
_atom_site_label
_atom_site_type_symbol
_atom_type_description
_atom_site_fract_x
_atom_site_fract_y
_atom_site_fract_z
_atom_type_partial_charge
C1    C     C_R   0.491412 0.262089 0.504604 0.885456
C2    C     C_2   0.464884 0.129450 0.523447 0.067344
C3    C     C_2   0.579389 0.564810 0.921487 -0.113590
C4    C     C_R   0.260608 0.500757 0.499730 0.955661
C5    C     C_2   0.583157 0.559875 0.071810 -0.142677
C6    C     C_R   0.503687 0.737493 0.494974 0.821768
C7    C     C_R   0.739468 0.507725 0.500296 1.039192
C8    C     C_R   0.142243 0.713429 0.598027 -0.291160
C9    C     C_R   0.085654 0.814752 0.653565 0.472579
C10   C     C_R   0.956965 0.815619 0.663158 -0.238743
C11   C     C_R   0.882706 0.716902 0.617675 0.350521
C12   C     C_R   0.070688 0.611918 0.551652 -0.089907
C13   C     C_R   0.939705 0.613788 0.557786 0.010944
C14   C     C_3   0.615510 0.084812 0.709372 -0.635559
C15   C     C_3   0.852978 0.307520 0.255566 -0.686976
C16   C     C_3   0.284574 0.049611 0.218352 -0.735962
C17   C     C_R   0.128339 0.507991 0.499445 -0.129283
C18   C     C_R   0.061638 0.406126 0.452614 0.390768
C19   C     C_R   0.931792 0.410105 0.449713 0.047273
C20   C     C_R   0.872416 0.512451 0.502486 -0.196108
C21   C     C_2   0.402427 0.928995 0.448654 -0.273694
C22   C     C_2   0.509282 0.870600 0.476466 0.294829
C23   C     C_2   0.403894 0.065232 0.429518 0.247027
H1    H     H_    0.648096 0.624402 0.868725 0.186996
H2    H     H_    0.654612 0.990767 0.733154 0.212241
H3    H     H_    0.610622 0.134813 0.802986 0.229918
H4    H     H_    0.679846 0.137291 0.638671 0.234686
H5    H     H_    0.243683 0.896447 0.692600 0.317858
H6    H     H_    0.733719 0.791827 0.687822 0.323100
H7    H     H_    0.871910 0.223440 0.448285 0.220546
H8    H     H_    0.945146 0.283898 0.214700 0.229426
H9    H     H_    0.824201 0.399900 0.210152 0.252912
H10   H     H_    0.783062 0.235707 0.227320 0.243963
H11   H     H_    0.689392 0.871316 0.453810 0.346630
H12   H     H_    0.439978 0.440141 0.901236 0.166383
H13   H     H_    0.314236 0.211332 0.320530 0.278734
H14   H     H_    0.257628 0.108684 0.128310 0.240658
H15   H     H_    0.198308 0.010029 0.266774 0.234446
H16   H     H_    0.343676 0.972931 0.185585 0.258016
H17   H     H_    0.658694 0.610387 0.118668 0.161677
H18   H     H_    0.426497 0.458121 0.104491 0.173137
H19   H     H_    0.242740 0.715391 0.591624 0.137891
H20   H     H_    0.914139 0.894272 0.707325 0.154800
H21   H     H_    0.314659 0.877575 0.439996 0.110037
H22   H     H_    0.071401 0.232155 0.400380 0.343506
H23   H     H_    0.438588 0.995539 0.689965 0.220144
N1    N     N_2   0.501340 0.501330 0.852150 -0.189073
N2    N     N_2   0.501380 0.501360 0.147810 -0.186956
N3    N     N_2   0.490857 0.071879 0.653929 -0.297478
N4    N     N_2   0.858572 0.309916 0.399692 -0.310254
N5    N     N_2   0.353210 0.125383 0.309807 -0.294129
O1    O     O_R   0.499980 0.319060 0.613040 -0.601486
O2    O     O_3   0.153631 0.913708 0.700833 -0.765632
O3    O     O_3   0.755499 0.720648 0.633974 -0.795071
O4    O     O_3   0.622604 0.933691 0.458191 -0.764566
O5    O     O_R   0.500020 0.319100 0.386900 -0.610471
O6    O     O_R   0.316750 0.499980 0.613090 -0.628217
O7    O     O_R   0.316790 0.500020 0.386950 -0.603016
O8    O     O_R   0.499980 0.680900 0.613100 -0.598975
O9    O     O_R   0.500020 0.680940 0.386960 -0.622225
O10   O     O_R   0.683210 0.499980 0.613050 -0.569009
O11   O     O_R   0.683250 0.500020 0.386910 -0.616244
O12   O     O_3   0.127534 0.304916 0.412226 -0.812790
Zn1   Zn    Zn3+2 0.499970 0.499970 0.650990 0.973134
Zn2   Zn    Zn3+2 0.500030 0.500030 0.349010 0.965053

loop_
_geom_bond_atom_site_label_1
_geom_bond_atom_site_label_2
_ccdc_geom_bond_type
C12   C17   A    
C4    O6    A    
O10   Zn1   S    
H5    O2    S    
C7    O11   A    
C15   H8    S    
C22   O4    S    
C2    N3    S    
O1    Zn1   S    
N2    Zn2   S    
C21   H21   S    
C9    C10   A    
O7    Zn2   S    
C23   N5    S    
C19   C20   A    
C19   N4    S    
C16   N5    S    
C16   H14   S    
C8    C12   A    
H12   N1    S    
C17   C18   A    
C3    H1    S    
C13   C20   A    
H11   O4    S    
C21   C22   D    
C14   H3    S    
C11   C13   A    
H23   N3    S    
O8    Zn1   S    
H13   N5    S    
H22   O12   S    
C4    C17   S    
C1    C2    S    
C3    N1    D    
C5    N2    D    
H18   N2    S    
C8    H19   S    
O9    Zn2   S    
C18   C19   A    
C21   C23   S    
C14   H2    S    
H7    N4    S    
C14   H4    S    
C1    O1    A    
C1    O5    A    
C18   O12   S    
C15   N4    S    
C14   N3    S    
C9    O2    S    
H6    O3    S    
C16   H16   S    
O5    Zn2   S    
C6    C22   S    
C6    O9    A    
C11   O3    S    
N1    Zn1   S    
C12   C13   A    
O6    Zn1   S    
C7    C20   S    
C10   C11   A    
C5    H17   S    
C4    O7    A    
C2    C23   D    
C7    O10   A    
O11   Zn2   S    
C10   H20   S    
C6    O8    A    
C15   H10   S    
C16   H15   S    
C8    C9    A    
C3    C5    S    
C15   H9    S    
