data_mof_unit_31840.cif
_audit_creation_date              2012-12-10T18:10:52-0500
_audit_creation_method            fapswitch 2.2
_symmetry_space_group_name_H-M    P1
_symmetry_Int_Tables_number       1
_space_group_crystal_system       triclinic
_cell_length_a                    12.718292
_cell_length_b                    13.261094
_cell_length_c                    15.738547
_cell_angle_alpha                 92.068449
_cell_angle_beta                  102.736631
_cell_angle_gamma                 82.669132
_cell_volume                      2567.87263426

loop_
_atom_site_label
_atom_site_type_symbol
_atom_type_description
_atom_site_fract_x
_atom_site_fract_y
_atom_site_fract_z
_atom_type_partial_charge
C1    C     C_R   0.440172 0.690182 0.484293 0.856573
C2    C     C_3   0.409983 0.430269 0.029990 -0.163800
C3    C     C_3   0.499687 0.493340 0.082845 0.199452
C4    C     C_3   0.614759 0.443643 0.069140 -0.087198
C5    C     C_3   0.623369 0.456779 0.971538 0.186540
C6    C     C_1   0.497016 0.493393 0.174196 -0.023115
C7    C     C_1   0.505860 0.493727 0.825735 0.022843
C8    C     C_1   0.505252 0.497257 0.750542 -0.195717
C9    C     C_R   0.728153 0.053177 0.525321 -0.190439
C10   C     C_R   0.592554 0.200443 0.503258 -0.062155
C11   C     C_R   0.299656 0.837223 0.476222 -0.202736
C12   C     C_R   0.501411 0.500040 0.661270 0.895397
C13   C     C_R   0.272803 0.940800 0.486905 -0.155720
C14   C     C_R   0.350812 0.006012 0.490508 -0.185531
C15   C     C_R   0.453989 0.969855 0.474293 0.032133
C16   C     C_R   0.480101 0.865619 0.458094 0.087284
C17   C     C_R   0.535890 0.033658 0.481713 0.026669
C18   C     C_R   0.645723 0.991074 0.497112 0.127355
C19   C     C_R   0.669625 0.890289 0.473391 -0.316258
C20   C     C_R   0.584264 0.833561 0.438839 0.180915
C21   C     C_R   0.512111 0.137904 0.468277 0.055328
C22   C     C_R   0.700515 0.157633 0.534054 -0.265503
C23   C     C_R   0.559771 0.309311 0.506754 0.884889
C24   C     C_R   0.404831 0.798325 0.467676 -0.105703
C25   C     C_R   0.082404 0.379239 0.353920 -0.300282
C26   C     C_R   0.802516 0.624223 0.608027 0.011292
C27   C     C_R   0.906577 0.652524 0.630273 -0.257548
C28   C     C_R   0.985558 0.609016 0.586788 -0.189126
C29   C     C_R   0.961070 0.536712 0.519636 -0.020861
C30   C     C_R   0.852933 0.510098 0.497599 0.203017
C31   C     C_R   0.040563 0.488602 0.474591 -0.019262
C32   C     C_R   0.008034 0.427385 0.400305 0.169840
C33   C     C_R   0.902797 0.407675 0.375747 -0.347296
C34   C     C_R   0.498902 0.498720 0.338714 0.896690
C35   C     C_R   0.829521 0.437671 0.427725 0.103353
C36   C     C_R   0.152257 0.495819 0.500750 -0.045090
C37   C     C_R   0.190621 0.388888 0.383353 0.000103
C38   C     C_3   0.422996 0.416264 0.933442 -0.088966
C39   C     C_3   0.463537 0.599710 0.945830 -0.477910
C40   C     C_3   0.474642 0.604790 0.046063 -0.043168
C41   C     C_1   0.496740 0.495227 0.249486 -0.204941
C42   C     C_3   0.504212 0.490686 0.916959 0.196029
H1    H     H_    0.330203 0.474877 0.031101 0.164298
H2    H     H_    0.459858 0.337275 0.925647 0.170620
H3    H     H_    0.763645 0.205031 0.560017 0.166494
H4    H     H_    0.752191 0.861215 0.469659 0.147832
H5    H     H_    0.812826 0.021188 0.540427 0.139343
H6    H     H_    0.240575 0.787085 0.481611 0.158040
H7    H     H_    0.331747 0.083008 0.511880 0.137867
H8    H     H_    0.193807 0.969716 0.498902 0.138308
H9    H     H_    0.249747 0.354351 0.347715 0.143301
H10   H     H_    0.880441 0.355880 0.321556 0.145684
H11   H     H_    0.057244 0.333165 0.296458 0.138239
H12   H     H_    0.185886 0.540889 0.556046 0.125574
H13   H     H_    0.741169 0.658173 0.641802 0.141265
H14   H     H_    0.064543 0.634808 0.605694 0.133773
H15   H     H_    0.926071 0.708486 0.681239 0.146128
H16   H     H_    0.507906 0.658268 0.925294 0.173036
H17   H     H_    0.377931 0.621325 0.911585 0.184642
H18   H     H_    0.545133 0.645642 0.074616 0.181469
H19   H     H_    0.613434 0.361038 0.076412 0.114827
N1    N     N_R   0.222200 0.444690 0.455710 -0.104580
N2    N     N_R   0.776960 0.554780 0.543830 -0.128514
O1    O     O_R   0.366740 0.627160 0.478850 -0.620131
O2    O     O_R   0.544830 0.662520 0.507140 -0.624962
O3    O     O_R   0.410920 0.482310 0.608710 -0.618569
O4    O     O_R   0.589010 0.517670 0.637000 -0.607939
O5    O     O_R   0.455170 0.337480 0.492860 -0.604883
O6    O     O_R   0.633260 0.372840 0.521150 -0.604316
O7    O     O_R   0.410990 0.482330 0.363000 -0.612739
O8    O     O_R   0.589080 0.517690 0.391290 -0.617795
Zn1   Zn    Zn3+2 0.381090 0.476390 0.481110 0.940320
Zn2   Zn    Zn3+2 0.618910 0.523610 0.518890 0.938203
N3    N     N_3   0.409373 0.332269 0.070871 -0.461822
H20   H     H_    0.473162 0.279124 0.060074 0.171049
H21   H     H_    0.337657 0.302745 0.041113 0.189912
C43   C     C_3   0.718155 0.458879 0.141601 -0.392614
C44   C     C_3   0.734005 0.566425 0.176710 -0.869127
H22   H     H_    0.746445 0.617567 0.127018 0.238677
H23   H     H_    0.665761 0.600130 0.205545 0.259652
H24   H     H_    0.808239 0.561913 0.229741 0.255885
H25   H     H_    0.716625 0.412519 0.198694 0.199873
H26   H     H_    0.792104 0.425628 0.119187 0.193032
N4    N     N_3   0.420445 0.176894 0.401103 -0.452728
H27   H     H_    0.351403 0.195759 0.426545 0.191753
H28   H     H_    0.404539 0.122988 0.351233 0.183545
C45   C     C_3   0.309821 0.426858 0.868248 -0.401960
C46   C     C_3   0.303634 0.347680 0.794601 -0.874219
H29   H     H_    0.367489 0.352267 0.757549 0.272839
H30   H     H_    0.313351 0.269973 0.821621 0.248454
H31   H     H_    0.223169 0.360982 0.748944 0.254279
H32   H     H_    0.244320 0.415799 0.902257 0.206792
H33   H     H_    0.288636 0.503422 0.838792 0.211817
C47   C     C_3   0.602035 0.760012 0.365732 -0.381738
C48   C     C_3   0.501944 0.758735 0.291466 -0.892525
H34   H     H_    0.438983 0.719630 0.310751 0.247710
H35   H     H_    0.467319 0.837450 0.270703 0.265061
H36   H     H_    0.525950 0.717416 0.235039 0.245563
H37   H     H_    0.666589 0.783813 0.335972 0.192253
H38   H     H_    0.634633 0.683585 0.391005 0.255272
N5    N     N_3   0.742447 0.378201 0.415209 -0.357760
H39   H     H_    0.775240 0.303417 0.432449 0.167373
H40   H     H_    0.705852 0.375861 0.348833 0.170567
C49   C     C_3   0.373159 0.669145 0.069314 -0.404183
C50   C     C_3   0.370242 0.782301 0.051822 -0.902412
H41   H     H_    0.444755 0.811530 0.089825 0.258056
H42   H     H_    0.363492 0.795463 0.981465 0.261835
H43   H     H_    0.298725 0.825541 0.071676 0.255248
H44   H     H_    0.296734 0.643484 0.031241 0.207789
H45   H     H_    0.372435 0.661515 0.139033 0.220628
N6    N     N_3   0.669256 0.359834 0.936853 -0.453048
H46   H     H_    0.629905 0.298750 0.947701 0.141672
H47   H     H_    0.749978 0.341823 0.970046 0.172988
N7    N     N_3   0.694363 0.533717 0.962122 -0.432952
H48   H     H_    0.775415 0.508943 0.990561 0.187931
H49   H     H_    0.673657 0.602534 0.991579 0.177369

loop_
_geom_bond_atom_site_label_1
_geom_bond_atom_site_label_2
_ccdc_geom_bond_type
C45   C46   S    
N5    H39   S    
C40   H18   S    
C5    N7    S    
C23   O6    A    
C48   H34   S    
C5    C42   S    
C3    C6    S    
C26   H13   S    
N7    H48   S    
C28   H14   S    
C48   H36   S    
C7    C8    T    
C43   C44   S    
C10   C22   A    
C33   H10   S    
C50   H42   S    
C26   C27   A    
N3    H21   S    
C30   C35   A    
C43   H25   S    
C28   C29   A    
C25   H11   S    
C38   C42   S    
C49   H44   S    
C37   H9    S    
C44   H23   S    
C9    C22   A    
C14   H7    S    
C43   H26   S    
C15   C16   A    
C11   C24   A    
O2    Zn2   S    
C18   C19   A    
C7    C42   S    
C25   C37   A    
O3    Zn1   S    
C19   C20   A    
C6    C41   T    
C1    O2    A    
C46   H31   S    
O6    Zn2   S    
O4    Zn2   S    
C34   O7    A    
C2    N3    S    
C16   C20   A    
C25   C32   A    
N5    H40   S    
C45   H32   S    
C11   H6    S    
C34   C41   S    
C36   N1    A    
C49   C50   S    
C12   O4    A    
C37   N1    A    
C39   C42   S    
C10   C21   A    
C50   H43   S    
C19   H4    S    
N3    H20   S    
N4    H27   S    
C27   H15   S    
C39   C40   S    
O8    Zn2   S    
C44   H22   S    
C5    N6    S    
C39   H16   S    
C12   O3    A    
C4    H19   S    
C17   C21   A    
O5    Zn1   S    
C23   O5    A    
C26   N2    A    
C38   H2    S    
C29   C30   A    
C40   C49   S    
C2    C38   S    
C31   C32   A    
C21   N4    S    
C47   H38   S    
C2    H1    S    
C8    C12   S    
C39   H17   S    
C17   C18   A    
N1    Zn1   S    
N6    H47   S    
C46   H30   S    
C3    C40   S    
C9    H5    S    
C3    C4    S    
C1    O1    A    
C15   C17   A    
C20   C47   S    
N6    H46   S    
C14   C15   A    
N4    H28   S    
C4    C5    S    
C35   N5    S    
N7    H49   S    
C48   H35   S    
C10   C23   S    
N2    Zn2   S    
C50   H41   S    
C38   C45   S    
C32   C33   A    
C2    C3    S    
C4    C43   S    
C29   C31   A    
C49   H45   S    
C11   C13   A    
C44   H24   S    
C47   H37   S    
C45   H33   S    
C30   N2    A    
C33   C35   A    
O1    Zn1   S    
C47   C48   S    
C36   H12   S    
C13   H8    S    
C9    C18   A    
C22   H3    S    
C46   H29   S    
C1    C24   S    
C16   C24   A    
C27   C28   A    
C31   C36   A    
O7    Zn1   S    
C13   C14   A    
C34   O8    A    
