data_mof_unit_18929.cif
_audit_creation_date              2012-12-10T20:44:00-0500
_audit_creation_method            fapswitch 2.2
_symmetry_space_group_name_H-M    P1
_symmetry_Int_Tables_number       1
_space_group_crystal_system       triclinic
_cell_length_a                    17.528281
_cell_length_b                    10.671308
_cell_length_c                    9.855498
_cell_angle_alpha                 90.025496
_cell_angle_beta                  89.802201
_cell_angle_gamma                 90.38512
_cell_volume                      1843.41500622

loop_
_atom_site_label
_atom_site_type_symbol
_atom_type_description
_atom_site_fract_x
_atom_site_fract_y
_atom_site_fract_z
_atom_type_partial_charge
C1    C     C_R   0.503039 0.260005 0.499879 0.880762
C2    C     C_R   0.886059 0.502043 0.502563 0.112334
C3    C     C_1   0.966325 0.507094 0.501950 -0.058171
C4    C     C_1   0.033998 0.510475 0.500624 -0.061447
C5    C     C_R   0.153224 0.599947 0.578650 -0.153089
C6    C     C_R   0.233166 0.601504 0.580313 0.140023
C7    C     C_R   0.271713 0.510656 0.501009 -0.089240
C8    C     C_R   0.231648 0.425929 0.419116 -0.241798
C9    C     C_R   0.152877 0.426862 0.418255 -0.162021
C10   C     C_R   0.114314 0.512840 0.498777 0.106454
C11   C     C_R   0.539081 0.064612 0.613250 -0.000910
C12   C     C_R   0.353878 0.503027 0.500370 0.858217
C13   C     C_R   0.516364 0.129008 0.497150 -0.117763
C14   C     C_R   0.509327 0.064713 0.373702 -0.216779
C15   C     C_R   0.508992 0.935694 0.373637 -0.216722
C16   C     C_R   0.515345 0.871604 0.497241 -0.117538
C17   C     C_R   0.538154 0.936455 0.613323 0.089183
C18   C     C_3   0.513421 0.928714 0.758870 -0.043772
C19   C     C_3   0.514565 0.073396 0.758951 -0.043299
C20   C     C_R   0.433041 0.504839 0.071639 0.231608
C21   C     C_R   0.566481 0.505481 0.071461 -0.135182
C22   C     C_R   0.566504 0.504957 0.927697 -0.162281
C23   C     C_R   0.502599 0.740145 0.499872 0.875833
C24   C     C_R   0.433030 0.504946 0.929038 0.211322
C25   C     C_3   0.369320 0.411762 0.923649 -0.511941
C26   C     C_3   0.369314 0.411765 0.077747 -0.519075
C27   C     C_R   0.646182 0.497688 0.499706 0.876944
C28   C     C_R   0.845623 0.584272 0.585032 -0.165036
C29   C     C_R   0.766717 0.580744 0.583971 -0.259262
C30   C     C_R   0.728486 0.495668 0.499535 -0.039133
C31   C     C_R   0.769400 0.410159 0.417921 0.176855
C32   C     C_R   0.848883 0.414807 0.420285 -0.159651
H1    H     H_    0.875049 0.651314 0.649216 0.141026
H2    H     H_    0.497291 0.887542 0.279064 0.169725
H3    H     H_    0.454750 0.889443 0.770094 0.149319
H4    H     H_    0.456468 0.114134 0.768297 0.142695
H5    H     H_    0.620174 0.508670 0.124753 0.153451
H6    H     H_    0.620253 0.507239 0.873719 0.158014
H7    H     H_    0.316565 0.452172 0.879964 0.204523
H8    H     H_    0.386873 0.320997 0.878219 0.210077
H9    H     H_    0.316680 0.452605 0.122196 0.209811
H10   H     H_    0.735351 0.645768 0.647279 0.152300
H11   H     H_    0.386844 0.320950 0.122847 0.206881
H12   H     H_    0.881930 0.350844 0.358348 0.134099
H13   H     H_    0.120401 0.665168 0.638868 0.147477
H14   H     H_    0.261517 0.357513 0.357770 0.149102
H15   H     H_    0.122038 0.359848 0.356145 0.139795
H16   H     H_    0.497338 0.112787 0.279541 0.173737
N1    N     N_R   0.499490 0.499140 0.142800 -0.107451
N2    N     N_R   0.499490 0.499180 0.857150 -0.107787
O1    O     O_R   0.500010 0.316790 0.614690 -0.625108
O2    O     O_R   0.500000 0.316760 0.385350 -0.617495
O3    O     O_R   0.389120 0.500020 0.614710 -0.623023
O4    O     O_R   0.389110 0.499990 0.385370 -0.610164
O5    O     O_R   0.500000 0.683240 0.614650 -0.624633
O6    O     O_R   0.499990 0.683210 0.385310 -0.617418
O7    O     O_R   0.610890 0.500010 0.614630 -0.634070
O8    O     O_R   0.610880 0.499980 0.385290 -0.617236
Zn1   Zn    Zn3+2 0.500010 0.500020 0.653130 0.920473
Zn2   Zn    Zn3+2 0.499990 0.499980 0.346870 0.938890
C33   C     C_3   0.572106 0.859683 0.846362 -0.834942
H17   H     H_    0.631634 0.886906 0.820546 0.231178
H18   H     H_    0.561052 0.876635 0.955503 0.236654
H19   H     H_    0.566728 0.757476 0.829160 0.257499
C34   C     C_3   0.574501 0.142384 0.846757 -0.309379
C35   C     C_3   0.546661 0.159872 0.992375 -0.880905
H20   H     H_    0.494674 0.218438 0.993999 0.256032
H21   H     H_    0.533352 0.068540 0.040502 0.255077
H22   H     H_    0.591519 0.207897 0.052827 0.253598
H23   H     H_    0.630370 0.094372 0.846292 0.207260
H24   H     H_    0.585083 0.237012 0.803616 0.226248
C36   C     C_3   0.729926 0.311779 0.332850 -0.910238
H25   H     H_    0.771300 0.245457 0.287178 0.232974
H26   H     H_    0.689553 0.256713 0.396712 0.237553
H27   H     H_    0.698387 0.356669 0.248791 0.248885
C37   C     C_3   0.278110 0.698747 0.661670 -0.385756
C38   C     C_3   0.231818 0.807336 0.719887 -0.919710
H28   H     H_    0.200095 0.855709 0.638026 0.265864
H29   H     H_    0.191624 0.773105 0.799164 0.259213
H30   H     H_    0.271159 0.876209 0.767796 0.251011
H31   H     H_    0.307124 0.651491 0.747282 0.221060
H32   H     H_    0.322731 0.740464 0.594772 0.198387

loop_
_geom_bond_atom_site_label_1
_geom_bond_atom_site_label_2
_ccdc_geom_bond_type
C35   H21   S    
O5    Zn1   S    
C29   H10   S    
C21   N1    A    
O3    Zn1   S    
C23   O6    A    
O4    Zn2   S    
C38   H28   S    
C11   C19   S    
C29   C30   A    
N1    Zn2   S    
N2    Zn1   S    
C28   C29   A    
C19   H4    S    
C25   H8    S    
C30   C31   A    
O7    Zn1   S    
C35   H22   S    
O8    Zn2   S    
C15   C16   A    
C22   H6    S    
C2    C32   A    
C18   C19   S    
C33   H18   S    
O2    Zn2   S    
C20   C24   A    
C8    C9    A    
C18   H3    S    
C15   H2    S    
C12   O3    A    
C22   N2    A    
C35   H20   S    
C13   C14   A    
C27   C30   S    
C36   H27   S    
C26   H11   S    
C38   H29   S    
C24   N2    A    
C7    C12   S    
C7    C8    A    
C24   C25   S    
C36   H26   S    
C27   O7    A    
C37   H32   S    
C16   C17   A    
C14   H16   S    
C25   C26   S    
C34   H24   S    
C5    H13   S    
O6    Zn2   S    
C33   H19   S    
C20   N1    A    
C31   C32   A    
C17   C18   S    
C32   H12   S    
C37   C38   S    
C6    C37   S    
C1    O1    A    
C31   C36   S    
C28   H1    S    
C9    H15   S    
C16   C23   S    
O1    Zn1   S    
C4    C10   S    
C3    C4    T    
C9    C10   A    
C38   H30   S    
C11   C17   A    
C36   H25   S    
C27   O8    A    
C37   H31   S    
C18   C33   S    
C23   O5    A    
C6    C7    A    
C2    C3    S    
C5    C10   A    
C25   H7    S    
C11   C13   A    
C5    C6    A    
C20   C26   S    
C19   C34   S    
C33   H17   S    
C1    O2    A    
C8    H14   S    
C1    C13   S    
C21   H5    S    
C34   C35   S    
C14   C15   A    
C2    C28   A    
C21   C22   A    
C12   O4    A    
C34   H23   S    
C26   H9    S    
