data_mof_unit_15207.cif
_audit_creation_date              2013-03-05T15:49:43-0500
_audit_creation_method            fapswitch 2.2
_symmetry_space_group_name_H-M    P1
_symmetry_Int_Tables_number       1
_space_group_crystal_system       triclinic
_cell_length_a                    13.572973
_cell_length_b                    13.598315
_cell_length_c                    27.459511
_cell_angle_alpha                 91.022115
_cell_angle_beta                  90.590699
_cell_angle_gamma                 59.808265
_cell_volume                      4379.97426639

loop_
_atom_site_label
_atom_site_type_symbol
_atom_site_description
_atom_site_fract_x
_atom_site_fract_y
_atom_site_fract_z
_atom_type_partial_charge
O1    O     O_R   0.301780 0.195490 0.553940 -0.484938
O2    O     O_R   0.522450 0.158840 0.550250 -0.482561
C1    C     C_R   0.619575 0.099992 0.570462 0.553650
O3    O     O_R   0.694460 0.003360 0.553820 -0.504951
O4    O     O_R   0.657750 0.819520 0.549120 -0.486307
C2    C     C_R   0.600519 0.779460 0.568288 0.557911
O5    O     O_R   0.501990 0.803120 0.552700 -0.507485
O6    O     O_R   0.318230 0.023430 0.549370 -0.499792
C3    C     C_R   0.276456 0.122670 0.568636 0.573717
O7    O     O_R   0.302950 0.194150 0.446980 -0.496601
O8    O     O_R   0.523540 0.157600 0.451100 -0.509900
C4    C     C_R   0.620330 0.098903 0.430838 0.546478
O9    O     O_R   0.695630 0.002030 0.446860 -0.509238
O10   O     O_R   0.658840 0.818280 0.449970 -0.463506
C5    C     C_R   0.602159 0.775225 0.431055 0.565020
O11   O     O_R   0.503160 0.801780 0.445740 -0.527776
O12   O     O_R   0.319320 0.022190 0.450230 -0.488585
C6    C     C_R   0.280335 0.119344 0.430714 0.606784
Cr1   Cr    Cr6+3 0.417550 0.169090 0.500530 1.063861
Cr2   Cr    Cr6+3 0.669180 0.913420 0.499920 1.067492
Cr3   Cr    Cr6+3 0.413260 0.917540 0.499520 1.053555
O13   O     O_3   0.499990 0.000010 0.499990 -0.278742
C7    C     C_3   0.789637 0.591241 0.735541 -0.085598
C8    C     C_3   0.774982 0.680865 0.774516 0.185906
H1    H     H_    0.870700 0.526070 0.718413 0.141164
H2    H     H_    0.666277 0.856467 0.737367 0.184408
C9    C     C_1   0.698732 0.609102 0.899107 0.054400
C10   C     C_1   0.636533 0.732013 0.615552 0.020544
C11   C     C_3   0.708355 0.569159 0.766023 0.206971
C12   C     C_3   0.695932 0.656480 0.805100 0.004305
C13   C     C_3   0.603418 0.659875 0.739017 -0.112054
C14   C     C_3   0.683684 0.684704 0.709315 -0.009904
C15   C     C_3   0.591525 0.749775 0.777728 -0.132631
C16   C     C_3   0.672022 0.775338 0.747136 -0.054194
C17   C     C_1   0.696202 0.635926 0.857343 0.050671
C18   C     C_1   0.662616 0.705364 0.657241 -0.001518
H3    H     H_    0.510097 0.813131 0.795132 0.193363
H4    H     H_    0.534082 0.650065 0.722747 0.116682
C19   C     C_3   0.041526 0.176321 0.730386 0.295542
C20   C     C_3   0.114021 0.084778 0.768203 0.273432
C21   C     C_1   0.081223 0.206860 0.897672 0.034759
C22   C     C_1   0.218454 0.143724 0.614133 0.020555
C23   C     C_3   0.037424 0.270006 0.764713 -0.092510
C24   C     C_3   0.111891 0.177291 0.801694 -0.045740
C25   C     C_3   0.147328 0.254124 0.740352 -0.146707
C26   C     C_3   0.149634 0.161968 0.705907 -0.020549
C27   C     C_3   0.221419 0.161198 0.777727 -0.046816
C28   C     C_3   0.222058 0.069469 0.743251 0.285378
C29   C     C_1   0.097337 0.190625 0.854543 -0.004932
C30   C     C_1   0.181132 0.155080 0.654663 -0.015835
H5    H     H_    0.291730 0.158846 0.799339 0.233027
H6    H     H_    0.159853 0.324853 0.728804 0.199010
H7    H     H_    0.961384 0.353015 0.773936 0.187719
C31   C     C_3   0.593772 0.259069 0.746198 0.288341
C32   C     C_3   0.537186 0.219781 0.783177 0.213704
C33   C     C_1   0.683796 0.198674 0.905099 0.051384
C34   C     C_1   0.629947 0.125798 0.620289 0.031115
C35   C     C_3   0.705924 0.202120 0.775923 -0.080353
C36   C     C_3   0.647576 0.163014 0.813103 -0.048084
C37   C     C_3   0.746918 0.089472 0.746733 -0.168475
C38   C     C_3   0.635300 0.148164 0.716710 0.018348
C39   C     C_3   0.689632 0.049982 0.784512 -0.144316
C40   C     C_3   0.578863 0.109291 0.753989 0.194148
C41   C     C_1   0.662485 0.179901 0.864633 0.037944
C42   C     C_1   0.633124 0.138884 0.663601 0.043850
H8    H     H_    0.727482 0.963970 0.800430 0.183503
H9    H     H_    0.833762 0.034627 0.731828 0.168209
H10   H     H_    0.764136 0.233337 0.786551 0.240669
C43   C     C_R   0.642248 0.708849 0.385838 0.042611
C44   C     C_R   0.757967 0.653462 0.371781 0.286865
C45   C     C_R   0.787037 0.607645 0.324175 -0.013044
C46   C     C_R   0.700957 0.624372 0.291130 0.023269
C47   C     C_R   0.588154 0.673178 0.306605 -0.158861
C48   C     C_R   0.559237 0.713794 0.353583 -0.177117
C49   C     C_R   0.682408 0.534157 0.217407 -0.134654
C50   C     C_R   0.674661 0.529710 0.167578 -0.146821
C51   C     C_R   0.754338 0.654016 0.158977 0.210335
C52   C     C_R   0.762275 0.658792 0.210146 0.221274
C53   C     C_R   0.722743 0.600517 0.239157 -0.013322
C54   C     C_R   0.708500 0.590298 0.137948 -0.015604
H11   H     H_    0.652789 0.488643 0.239352 0.141547
H12   H     H_    0.643585 0.476465 0.152121 0.141347
H13   H     H_    0.874767 0.564045 0.312056 0.138502
H14   H     H_    0.520931 0.685703 0.281401 0.122508
H15   H     H_    0.469875 0.756571 0.363419 0.153942
C55   C     C_R   0.249826 0.125556 0.379541 -0.056127
C56   C     C_R   0.145646 0.138153 0.363102 0.173492
C57   C     C_R   0.127306 0.136512 0.312410 0.173316
C58   C     C_R   0.215366 0.116517 0.279525 0.016725
C59   C     C_R   0.321886 0.093973 0.296812 0.247925
C60   C     C_R   0.336952 0.102731 0.346563 -0.159121
C61   C     C_R   0.139224 0.256514 0.214747 -0.040417
C62   C     C_R   0.104188 0.289491 0.167029 0.296323
C63   C     C_R   0.172333 0.091424 0.144599 -0.099510
C64   C     C_R   0.214183 0.057801 0.192280 0.345880
C65   C     C_R   0.189654 0.142663 0.227773 0.105677
C66   C     C_R   0.113215 0.207157 0.132340 0.029893
H16   H     H_    0.122896 0.320983 0.242334 0.139114
H17   H     H_    0.179797 0.028452 0.117939 0.132709
H18   H     H_    0.417782 0.090958 0.359699 0.134103
C67   C     C_R   0.632520 0.133902 0.382184 -0.010478
C68   C     C_R   0.559146 0.246091 0.367160 -0.123961
C69   C     C_R   0.552742 0.274091 0.318267 -0.104424
C70   C     C_R   0.618377 0.190057 0.283736 0.097170
C71   C     C_R   0.696928 0.078691 0.298635 0.286656
C72   C     C_R   0.701292 0.050772 0.347821 -0.112985
C73   C     C_R   0.727172 0.219528 0.223079 -0.129488
C74   C     C_R   0.759893 0.216309 0.175438 0.161761
C75   C     C_R   0.577363 0.243033 0.147516 0.232190
C76   C     C_R   0.548530 0.235409 0.196275 0.234112
C77   C     C_R   0.626128 0.222217 0.233906 -0.054684
C78   C     C_R   0.686631 0.225382 0.137076 -0.010638
H19   H     H_    0.504669 0.311552 0.393115 0.143396
H20   H     H_    0.785726 0.210393 0.252087 0.220905
H21   H     H_    0.497573 0.361397 0.307376 0.143591
H22   H     H_    0.754731 0.963369 0.358758 0.129910
O14   O     O_R   0.819250 0.149410 0.965240 -0.499542
O15   O     O_R   0.006940 0.180310 0.968270 -0.508521
C79   C     C_R   0.046680 0.236188 0.947306 0.540632
O16   O     O_R   0.028420 0.332670 0.963010 -0.490631
O17   O     O_R   0.810130 0.520390 0.966030 -0.477906
C80   C     C_R   0.711938 0.561793 0.946547 0.557040
O18   O     O_R   0.636050 0.541380 0.962520 -0.505261
O19   O     O_R   0.666480 0.323610 0.968170 -0.484753
C81   C     C_R   0.721192 0.222843 0.950133 0.561434
O20   O     O_R   0.817280 0.156800 0.072180 -0.446982
O21   O     O_R   0.005110 0.187160 0.067410 -0.478946
C82   C     C_R   0.048860 0.244086 0.086251 0.583006
O22   O     O_R   0.026450 0.340060 0.069950 -0.465603
O23   O     O_R   0.808300 0.527240 0.065170 -0.429885
C83   C     C_R   0.711628 0.566898 0.085895 0.572691
O24   O     O_R   0.634070 0.548770 0.069460 -0.541703
O25   O     O_R   0.664650 0.330470 0.067300 -0.519311
C84   C     C_R   0.719979 0.233890 0.087510 0.604621
Cr4   Cr    Cr6+3 0.909770 0.175810 0.018240 1.095089
Cr5   Cr    Cr6+3 0.913300 0.427650 0.016090 1.130830
Cr6   Cr    Cr6+3 0.657770 0.431010 0.016900 1.045253
O26   O     O_3   0.826940 0.344820 0.017080 -0.284682
N1    N     N_R   0.868352 0.694170 0.793346 0.078743
O27   O     O_R   0.927806 0.717491 0.763789 -0.334169
O28   O     O_R   0.892308 0.683688 0.839601 -0.307921
N2    N     N_R   0.422064 0.285646 0.802682 0.069076
O29   O     O_R   0.335039 0.324020 0.773407 -0.347377
O30   O     O_R   0.405480 0.303953 0.849311 -0.327464
O31   O     O_3   0.546281 0.365464 0.723248 -0.513080
C85   C     C_3   0.486970 0.453911 0.757591 -0.032786
H23   H     H_    0.534661 0.440472 0.792385 0.157424
H24   H     H_    0.401152 0.466463 0.764418 0.180165
H25   H     H_    0.472572 0.534137 0.741887 0.123743
N3    N     N_R   0.507452 0.060211 0.743666 0.082549
O32   O     O_R   0.482790 0.013664 0.778818 -0.361443
O33   O     O_R   0.475537 0.054762 0.699367 -0.331512
O34   O     O_3   0.839968 0.640544 0.405822 -0.543698
C86   C     C_3   0.914335 0.674275 0.386581 -0.082467
H26   H     H_    0.868549 0.753010 0.364684 0.124441
H27   H     H_    0.982713 0.604053 0.364725 0.130919
H28   H     H_    0.956090 0.693195 0.417350 0.149759
N4    N     N_R   0.810044 0.722430 0.231952 0.091210
O35   O     O_R   0.905036 0.710595 0.215507 -0.301312
O36   O     O_R   0.757959 0.794314 0.267401 -0.395808
N5    N     N_R   0.782069 0.722383 0.129219 0.096220
O37   O     O_R   0.868839 0.674702 0.099854 -0.296409
O38   O     O_R   0.729875 0.832063 0.136203 -0.273539
N6    N     N_R   0.059864 0.151653 0.397260 0.109430
O39   O     O_R   0.004807 0.097059 0.390557 -0.296515
O40   O     O_R   0.038647 0.215784 0.435958 -0.311519
O41   O     O_3   0.044144 0.404335 0.156773 -0.524184
C87   C     C_3   0.122234 0.443404 0.152934 -0.054361
H29   H     H_    0.185993 0.396165 0.123774 0.127620
H30   H     H_    0.165738 0.437505 0.188226 0.146629
H31   H     H_    0.074875 0.534362 0.142856 0.200582
N7    N     N_R   0.018187 0.160467 0.294137 0.099180
O42   O     O_R   0.925323 0.248623 0.310209 -0.307077
O43   O     O_R   0.011776 0.096131 0.260146 -0.311871
O44   O     O_3   0.266068 0.945109 0.206471 -0.541883
C88   C     C_3   0.359878 0.875853 0.176029 -0.120015
H32   H     H_    0.413132 0.915125 0.168685 0.142817
H33   H     H_    0.331020 0.855039 0.141374 0.129601
H34   H     H_    0.415242 0.794405 0.194769 0.131505
O45   O     O_3   0.405951 0.077612 0.264253 -0.499293
C89   C     C_3   0.498263 0.965740 0.268280 -0.041466
H35   H     H_    0.556321 0.948679 0.237132 0.224339
H36   H     H_    0.470114 0.901726 0.266207 0.110731
H37   H     H_    0.547078 0.955580 0.302392 0.136875
N8    N     N_R   0.869333 0.202654 0.166681 0.092434
O46   O     O_R   0.892728 0.277516 0.184829 -0.332657
O47   O     O_R   0.952238 0.102241 0.154438 -0.284421
N9    N     N_R   0.443326 0.238679 0.206726 0.105657
O48   O     O_R   0.402691 0.193316 0.176366 -0.298677
O49   O     O_R   0.382224 0.296200 0.244140 -0.370483
O50   O     O_3   0.502269 0.260955 0.109698 -0.513734
C90   C     C_3   0.420128 0.377981 0.108556 -0.087885
H38   H     H_    0.460268 0.431224 0.103982 0.115394
H39   H     H_    0.366309 0.405979 0.141836 0.125470
H40   H     H_    0.363117 0.393162 0.076871 0.149657
O51   O     O_3   0.764679 0.998140 0.263761 -0.509680
C91   C     C_3   0.880576 0.942405 0.277832 -0.009982
H41   H     H_    0.900813 0.869160 0.301429 0.133695
H42   H     H_    0.904854 0.000484 0.296557 0.157344
H43   H     H_    0.933825 0.908451 0.244618 0.213567
N10   N     N_R   0.729499 0.455113 0.773742 0.044360
O52   O     O_R   0.743907 0.390240 0.736025 -0.294104
O53   O     O_R   0.746623 0.413762 0.817346 -0.406948
O54   O     O_3   0.087757 0.000883 0.781803 -0.568697
C92   C     C_3   0.173314 0.921538 0.812709 -0.089251
H44   H     H_    0.190746 0.962937 0.844217 0.121790
H45   H     H_    0.253011 0.866262 0.792257 0.144533
H46   H     H_    0.143658 0.865584 0.827580 0.168368
O55   O     O_3   0.941695 0.191403 0.707171 -0.500449
C93   C     C_3   0.968170 0.099457 0.675122 -0.089021
H47   H     H_    0.009936 0.016954 0.694300 0.141771
H48   H     H_    0.021468 0.097252 0.644312 0.112602
H49   H     H_    0.887511 0.111185 0.659277 0.150244
O56   O     O_3   0.322675 0.964594 0.734386 -0.515840
C94   C     C_3   0.304788 0.903247 0.696773 -0.095755
H50   H     H_    0.323914 0.926153 0.660954 0.154827
H51   H     H_    0.217711 0.914595 0.696662 0.105152
H52   H     H_    0.365049 0.811492 0.701831 0.124751

loop_
_geom_bond_atom_site_label_1
_geom_bond_atom_site_label_2
_geom_bond_distance
_ccdc_geom_bond_type
C24   C29   1.462324 S    
C71   O51   1.389280 S    
C56   C57   1.413279 A    
C7    C11   1.539188 S    
O25   Cr6   1.931234 S    
C67   C68   1.405439 A    
C57   N7    1.434133 S    
C32   C36   1.532997 S    
Cr4   O26   1.987463 S    
C44   O34   1.389656 S    
N1    O28   1.300232 A    
N10   O52   1.298909 A    
C64   C65   1.404450 A    
C23   C24   1.544376 S    
C82   O22   1.270790 A    
O31   C85   1.409012 S    
N8    O46   1.299714 A    
C61   H16   1.084380 S    
N6    O40   1.301266 A    
C40   N3    1.450329 S    
O4    Cr2   1.935158 S    
C51   C52   1.410935 A    
O45   C89   1.407985 S    
C4    O9    1.276992 A    
C76   N9    1.437859 S    
C3    C22   1.429470 S    
C11   C12   1.531875 S    
C12   C17   1.466046 S    
C14   C18   1.459633 S    
O7    C6    1.274162 A    
C37   C39   1.557431 S    
N6    O39   1.301428 A    
O21   Cr4   1.918021 S    
C46   C53   1.457785 S    
C55   C60   1.399183 A    
C94   H51   1.112287 S    
O4    C2    1.273365 A    
C87   H30   1.112464 S    
N8    O47   1.299898 A    
C91   H41   1.109742 S    
C35   C37   1.551342 S    
C5    O11   1.271427 A    
C85   H25   1.102235 S    
C89   H35   1.108746 S    
C61   C65   1.393625 A    
C19   O55   1.411317 S    
N9    O49   1.300584 A    
C47   C48   1.374826 A    
N2    O29   1.299669 A    
C38   C40   1.535210 S    
C64   O44   1.387914 S    
O15   C79   1.278257 A    
C76   C77   1.415421 A    
C23   H7    1.107670 S    
C87   H31   1.108379 S    
C2    C10   1.428028 S    
C27   C28   1.548978 S    
C37   H9    1.108166 S    
O6    C3    1.278133 A    
C32   C40   1.526872 S    
O14   C81   1.267791 A    
C73   C74   1.378743 A    
C13   C15   1.552163 S    
C44   C45   1.409648 A    
C60   H18   1.084725 S    
C47   H14   1.084146 S    
C86   H27   1.110424 S    
O9    Cr2   2.052348 S    
C24   C27   1.542360 S    
C51   C54   1.410027 A    
C88   H33   1.110548 S    
C56   N6    1.438933 S    
Cr6   O26   1.984737 S    
C48   H15   1.083508 S    
C54   C83   1.455185 S    
Cr3   O13   1.992626 S    
N4    O36   1.299237 A    
O54   C92   1.408917 S    
N10   O53   1.300270 A    
C63   C64   1.410946 A    
C66   C82   1.474968 S    
C21   C29   1.202750 T    
C70   C71   1.409489 A    
N5    O38   1.301151 A    
C9    C80   1.432512 S    
N7    O43   1.299955 A    
C15   C16   1.559357 S    
C85   H24   1.106545 S    
C25   C27   1.551841 S    
C8    N1    1.456006 S    
C51   N5    1.434939 S    
C5    C43   1.460271 S    
N1    O27   1.300224 A    
C28   O56   1.411995 S    
O1    Cr1   2.051903 S    
C11   N10   1.447480 S    
C39   H8    1.110064 S    
C68   C69   1.391975 A    
C90   H40   1.109152 S    
O10   Cr2   1.920966 S    
O19   Cr6   1.922844 S    
Cr1   O13   1.987494 S    
O1    C3    1.273186 A    
C86   H28   1.109177 S    
O55   C93   1.407946 S    
C75   C78   1.409831 A    
C50   H12   1.083889 S    
C19   C20   1.545724 S    
C59   O45   1.381786 S    
O56   C94   1.410445 S    
O51   C91   1.413168 S    
C19   C23   1.549663 S    
C63   C66   1.406114 A    
C9    C17   1.204550 T    
C35   C36   1.553046 S    
C92   H44   1.110791 S    
C8    C16   1.541323 S    
C1    O3    1.270207 A    
O50   C90   1.411731 S    
C72   H22   1.081696 S    
N9    O48   1.301584 A    
O16   Cr5   2.045504 S    
C90   H39   1.111450 S    
C91   H43   1.109201 S    
C69   H21   1.083304 S    
C49   C50   1.373814 A    
C73   H20   1.082937 S    
C20   O54   1.412441 S    
C39   C40   1.546577 S    
C38   C42   1.462846 S    
O22   Cr5   2.034900 S    
C74   N8    1.423766 S    
C13   C14   1.537590 S    
C20   C24   1.533586 S    
O7    Cr1   2.033574 S    
C7    C8    1.544107 S    
C10   C18   1.201876 T    
O8    Cr1   1.934668 S    
C33   C41   1.200463 T    
O12   C6    1.276267 A    
C36   C41   1.457759 S    
C43   C48   1.401358 A    
C6    C55   1.452665 S    
C33   C81   1.426587 S    
C21   C79   1.429036 S    
C79   O16   1.274235 A    
C23   C25   1.552668 S    
C62   O41   1.383195 S    
C86   H26   1.113595 S    
C22   C30   1.202465 T    
C31   O31   1.411386 S    
C1    C34   1.429547 S    
C35   H10   1.103537 S    
C87   H29   1.113329 S    
Cr2   O13   1.985031 S    
O20   Cr4   2.053049 S    
C93   H48   1.108995 S    
C19   C26   1.539686 S    
N4    O35   1.301111 A    
N2    O30   1.300141 A    
C25   C26   1.544316 S    
C8    C12   1.533898 S    
O21   C82   1.288893 A    
O14   Cr4   2.035820 S    
C62   C66   1.415018 A    
O41   C87   1.409760 S    
N7    O42   1.301310 A    
Cr5   O26   1.993244 S    
C15   H3    1.109347 S    
C85   H23   1.113454 S    
C31   C35   1.547407 S    
C92   H46   1.109153 S    
C67   C72   1.399403 A    
C20   C28   1.540024 S    
O18   Cr6   2.048195 S    
C31   C32   1.534447 S    
C88   H32   1.115073 S    
C36   C39   1.545451 S    
C94   H52   1.105655 S    
C89   H37   1.111410 S    
C12   C15   1.544810 S    
H2    C16   1.103961 S    
O2    Cr1   1.917750 S    
C55   C56   1.406625 A    
C73   C77   1.388594 A    
C52   N4    1.437223 S    
O23   Cr5   1.927355 S    
C50   C54   1.401424 A    
C34   C42   1.202960 T    
C46   C47   1.395197 A    
O6    Cr3   1.925849 S    
C70   C77   1.464643 S    
C27   H5    1.105559 S    
O8    C4    1.271655 A    
O17   C80   1.273095 A    
O11   Cr3   2.042059 S    
C80   O18   1.277347 A    
C2    O5    1.278875 A    
C31   C38   1.535784 S    
C49   H11   1.084602 S    
C93   H49   1.109204 S    
C71   C72   1.402089 A    
C26   C30   1.462513 S    
C25   H6    1.109477 S    
C13   H4    1.103874 S    
C90   H38   1.112745 S    
C88   H34   1.109699 S    
C58   C65   1.466534 S    
C91   H42   1.113761 S    
O2    C1    1.275133 A    
O24   Cr6   2.039560 S    
C4    C67   1.464672 S    
C11   C13   1.531015 S    
O44   C88   1.412343 S    
O5    Cr3   2.040559 S    
C75   C76   1.418847 A    
C7    C14   1.541104 S    
C52   C53   1.417559 A    
C59   C60   1.391122 A    
O25   C84   1.273650 A    
N5    O37   1.300209 A    
C63   H17   1.082316 S    
C75   O50   1.383469 S    
C78   C84   1.463474 S    
C61   C62   1.392025 A    
O23   C83   1.276368 A    
N3    O33   1.300394 A    
C7    H1    1.110080 S    
O17   Cr5   1.920120 S    
C43   C44   1.412622 A    
O12   Cr3   1.921174 S    
O3    Cr2   2.037442 S    
C26   C28   1.543260 S    
C74   C78   1.404767 A    
C94   H50   1.108772 S    
C45   C46   1.399413 A    
C57   C58   1.415826 A    
O20   C84   1.274173 A    
C93   H47   1.110229 S    
C69   C70   1.397637 A    
C68   H19   1.083177 S    
O10   C5    1.279984 A    
C37   C38   1.547076 S    
C45   H13   1.082221 S    
O34   C86   1.412001 S    
C58   C59   1.398177 A    
C92   H45   1.109143 S    
C49   C53   1.393431 A    
O19   C81   1.278402 A    
O15   Cr4   1.935842 S    
C83   O24   1.272729 A    
C89   H36   1.113199 S    
C14   C16   1.544037 S    
N3    O32   1.298469 A    
C32   N2    1.457107 S    
