data_mof_unit_10369.cif
_audit_creation_date              2012-12-10T19:11:32-0500
_audit_creation_method            fapswitch 2.2
_symmetry_space_group_name_H-M    P1
_symmetry_Int_Tables_number       1
_space_group_crystal_system       triclinic
_cell_length_a                    10.631239
_cell_length_b                    9.709491
_cell_length_c                    10.500164
_cell_angle_alpha                 89.603159
_cell_angle_beta                  89.956709
_cell_angle_gamma                 90.084382
_cell_volume                      1083.84059154

loop_
_atom_site_label
_atom_site_type_symbol
_atom_type_description
_atom_site_fract_x
_atom_site_fract_y
_atom_site_fract_z
_atom_type_partial_charge
C1    C     C_R   0.257623 0.500121 0.499646 0.921431
C2    C     C_3   0.499354 0.501856 0.122380 -0.089074
C3    C     C_3   0.071662 0.651261 0.503888 -0.461442
C4    C     C_3   0.072078 0.421895 0.617994 -0.473376
C5    C     C_3   0.928870 0.651623 0.504223 -0.408812
C6    C     C_3   0.927780 0.421222 0.617748 -0.401881
C7    C     C_3   0.071503 0.430370 0.375833 1.100368
C8    C     C_3   0.121177 0.500602 0.498922 0.001533
C9    C     C_3   0.878738 0.501360 0.499737 0.019428
C10   C     C_3   0.926784 0.432251 0.376414 -0.422670
C11   C     C_3   0.377083 0.081337 0.454589 -0.201175
C12   C     C_3   0.377059 0.918934 0.454660 -0.242888
C13   C     C_3   0.597590 0.082042 0.410792 -0.226458
C14   C     C_3   0.597550 0.919521 0.410767 -0.237492
C15   C     C_3   0.524723 0.080259 0.626016 -0.246641
C16   C     C_3   0.524760 0.918036 0.626016 -0.227032
C17   C     C_R   0.499938 0.500564 0.257179 0.961448
C18   C     C_R   0.742527 0.500366 0.500218 0.894418
C19   C     C_R   0.500270 0.499433 0.742721 0.893875
C20   C     C_3   0.499299 0.631864 0.038941 -0.214455
C21   C     C_3   0.396327 0.434306 0.042622 -0.209386
C22   C     C_3   0.396109 0.564248 0.956655 -0.121284
C23   C     C_3   0.500345 0.498220 0.877532 -0.064870
C24   C     C_3   0.603669 0.565917 0.956921 -0.254326
C25   C     C_3   0.500421 0.367825 0.960596 -0.244115
C26   C     C_3   0.601894 0.436855 0.042144 0.660659
H1    H     H_    0.311884 0.616141 0.916415 0.142636
H2    H     H_    0.891213 0.489437 0.291512 0.197923
H3    H     H_    0.890055 0.325057 0.369925 0.194999
H4    H     H_    0.354768 0.120727 0.357464 0.185140
H5    H     H_    0.354572 0.880777 0.357627 0.160309
H6    H     H_    0.300597 0.118243 0.518045 0.174807
H7    H     H_    0.300655 0.881036 0.518290 0.151104
H8    H     H_    0.582065 0.121020 0.312210 0.174336
H9    H     H_    0.581957 0.881925 0.312208 0.152075
H10   H     H_    0.616743 0.118796 0.661599 0.152856
H11   H     H_    0.616820 0.879349 0.661582 0.148128
H12   H     H_    0.452259 0.117377 0.694066 0.148978
H13   H     H_    0.452315 0.879779 0.694139 0.152793
H14   H     H_    0.691983 0.119902 0.439930 0.159159
H15   H     H_    0.691918 0.881514 0.439905 0.151066
H16   H     H_    0.498406 0.739164 0.074859 0.158122
H17   H     H_    0.312083 0.381581 0.082325 0.206425
H18   H     H_    0.688424 0.617923 0.917538 0.145506
H19   H     H_    0.502164 0.260392 0.925059 0.151353
H20   H     H_    0.106104 0.711743 0.420298 0.218942
H21   H     H_    0.106976 0.313844 0.618976 0.210928
H22   H     H_    0.106219 0.703405 0.591380 0.188051
H23   H     H_    0.106922 0.472003 0.706323 0.181290
H24   H     H_    0.894633 0.704154 0.591631 0.189002
H25   H     H_    0.892175 0.469298 0.706732 0.183179
H26   H     H_    0.894690 0.711533 0.420274 0.190956
H27   H     H_    0.893558 0.312794 0.616449 0.190520
N1    N     N_3   0.499750 0.138610 0.497240 -0.053784
N2    N     N_3   0.499750 0.861390 0.497240 -0.040299
O1    O     O_R   0.314910 0.616040 0.499970 -0.641716
O2    O     O_R   0.314910 0.383960 0.499970 -0.599429
O3    O     O_R   0.500080 0.616020 0.313900 -0.635278
O4    O     O_R   0.500080 0.383980 0.313900 -0.608143
O5    O     O_R   0.685320 0.616040 0.499930 -0.639294
O6    O     O_R   0.685320 0.383960 0.499930 -0.631778
O7    O     O_R   0.500150 0.616060 0.686000 -0.635097
O8    O     O_R   0.500150 0.383940 0.686000 -0.638934
Zn1   Zn    Zn3+2 0.500150 0.654960 0.499940 0.907945
Zn2   Zn    Zn3+2 0.500150 0.345040 0.499940 0.936962
F1    F     F_    0.707024 0.372015 0.091516 -0.688054
F2    F     F_    0.115765 0.499802 0.268839 -0.701677
F3    F     F_    0.112413 0.294903 0.369584 -0.697786

loop_
_geom_bond_atom_site_label_1
_geom_bond_atom_site_label_2
_ccdc_geom_bond_type
C7    C10   S    
C20   H16   S    
C23   C24   S    
O1    Zn1   S    
C5    H26   S    
C5    C9    S    
C1    O2    A    
C6    H25   S    
C1    C8    S    
C9    C10   S    
C3    H22   S    
C3    H20   S    
C19   C23   S    
O7    Zn1   S    
C4    H23   S    
C4    C8    S    
N2    Zn1   S    
C2    C21   S    
O8    Zn2   S    
C14   N2    S    
C7    F3    S    
C16   N2    S    
C13   H8    S    
C2    C26   S    
N1    Zn2   S    
C21   H17   S    
C21   C22   S    
O4    Zn2   S    
C2    C17   S    
C12   H7    S    
C10   H3    S    
C15   N1    S    
C11   N1    S    
C19   O8    A    
C9    C18   S    
C17   O4    A    
C15   H12   S    
C6    H27   S    
C18   O5    A    
C1    O1    A    
C24   C26   S    
C11   H6    S    
C3    C8    S    
C22   H1    S    
C14   H15   S    
C12   H5    S    
O3    Zn1   S    
C24   H18   S    
C10   H2    S    
C5    H24   S    
C6    C9    S    
C12   N2    S    
C20   C22   S    
C16   H13   S    
C7    F2    S    
C15   C16   S    
C26   F1    S    
C11   C12   S    
O6    Zn2   S    
C15   H10   S    
C7    C8    S    
C23   C25   S    
C11   H4    S    
C4    C6    S    
C13   N1    S    
C17   O3    A    
C14   H9    S    
C21   C25   S    
C22   C23   S    
C13   H14   S    
C25   H19   S    
C19   O7    A    
C25   C26   S    
C13   C14   S    
C2    C20   S    
C18   O6    A    
O5    Zn1   S    
C20   C24   S    
C16   H11   S    
O2    Zn2   S    
C3    C5    S    
C4    H21   S    
