data_mof_unit_45792.cif
_audit_creation_date              2012-12-11T15:22:16-0500
_audit_creation_method            fapswitch 2.2
_symmetry_space_group_name_H-M    P1
_symmetry_Int_Tables_number       1
_space_group_crystal_system       triclinic
_cell_length_a                    22.406323
_cell_length_b                    12.980453
_cell_length_c                    26.914173
_cell_angle_alpha                 90.445954
_cell_angle_beta                  90.87571
_cell_angle_gamma                 90.260828
_cell_volume                      7826.59494898

loop_
_atom_site_label
_atom_site_type_symbol
_atom_type_description
_atom_site_fract_x
_atom_site_fract_y
_atom_site_fract_z
_atom_type_partial_charge
C1    C     C_R   0.720150 0.343769 0.177959 0.530360
C2    C     C_R   0.279163 0.346240 0.821774 0.547193
C3    C     C_R   0.220163 0.843809 0.177974 0.530265
C4    C     C_R   0.779165 0.846246 0.821772 0.547199
C5    C     C_R   0.483339 0.169516 0.869407 0.007478
C6    C     C_R   0.522632 0.161372 0.128123 0.011816
C7    C     C_R   0.983411 0.669548 0.869368 0.007530
C8    C     C_R   0.022769 0.661333 0.128057 0.011850
C9    C     C_R   0.515262 0.257111 0.104533 0.194528
C10   C     C_R   0.487071 0.264916 0.896209 0.210734
C11   C     C_R   0.015379 0.757073 0.104470 0.194513
C12   C     C_R   0.987132 0.764943 0.896177 0.210737
C13   C     C_R   0.516155 0.262942 0.051808 -0.025464
C14   C     C_R   0.507411 0.265906 0.946418 0.001423
C15   C     C_R   0.016325 0.762934 0.051747 -0.025513
C16   C     C_R   0.007547 0.765946 0.946364 0.001366
C17   C     C_R   0.515198 0.169448 0.023957 -0.027950
C18   C     C_R   0.511904 0.171318 0.971443 -0.022529
C19   C     C_R   0.015467 0.669458 0.023882 -0.028039
C20   C     C_R   0.012154 0.671355 0.971369 -0.022666
C21   C     C_R   0.522537 0.357202 0.025658 0.255913
C22   C     C_R   0.520465 0.357627 0.973342 0.294336
C23   C     C_R   0.022644 0.857222 0.025610 0.255917
C24   C     C_R   0.020552 0.857678 0.973295 0.294379
C25   C     C_R   0.720748 0.020776 0.121365 -0.001250
C26   C     C_R   0.262527 0.970216 0.872290 -0.009286
C27   C     C_R   0.220727 0.520785 0.121360 -0.001249
C28   C     C_R   0.762502 0.470118 0.872263 -0.009195
C29   C     C_R   0.695126 0.088827 0.087003 -0.110939
C30   C     C_R   0.234697 0.038381 0.905194 -0.058628
C31   C     C_R   0.195478 0.589211 0.086987 -0.111075
C32   C     C_R   0.734819 0.538368 0.905213 -0.058627
C33   C     C_R   0.697529 0.067738 0.036025 0.250922
C34   C     C_R   0.235369 0.020137 0.955753 0.239520
C35   C     C_R   0.197803 0.568071 0.036010 0.250431
C36   C     C_R   0.735457 0.519984 0.955760 0.239771
C37   C     C_R   0.724697 0.976643 0.019356 0.078019
C38   C     C_R   0.262068 0.930007 0.974141 0.066412
C39   C     C_R   0.224552 0.476592 0.019347 0.077818
C40   C     C_R   0.761985 0.429652 0.974086 0.066400
C41   C     C_R   0.748971 0.907508 0.053948 -0.088113
C42   C     C_R   0.290185 0.861402 0.941518 -0.075967
C43   C     C_R   0.248403 0.407054 0.053953 -0.087790
C44   C     C_R   0.789954 0.360959 0.941416 -0.076035
C45   C     C_R   0.552244 0.156685 0.177849 0.569765
C46   C     C_R   0.447852 0.158526 0.822191 0.585455
C47   C     C_R   0.052272 0.656678 0.177829 0.569873
C48   C     C_R   0.947862 0.658531 0.822185 0.585519
C49   C     C_R   0.747248 0.929615 0.104738 -0.073971
C50   C     C_R   0.291272 0.882356 0.890679 -0.119282
C51   C     C_R   0.246732 0.429178 0.104746 -0.074060
C52   C     C_R   0.791071 0.382037 0.890589 -0.119179
C53   C     C_R   0.695321 0.882421 0.941484 0.447191
C54   C     C_R   0.303154 0.891523 0.059238 0.406527
C55   C     C_R   0.195284 0.382258 0.941476 0.446483
C56   C     C_R   0.803084 0.391088 0.059160 0.406629
C57   C     C_R   0.708313 0.851613 0.892946 -0.062830
C58   C     C_R   0.292855 0.874374 0.109691 -0.062841
C59   C     C_R   0.208311 0.351472 0.892943 -0.062739
C60   C     C_R   0.792804 0.374060 0.109625 -0.062892
C61   C     C_R   0.792362 0.969938 0.892705 -0.110473
C62   C     C_R   0.186083 0.881302 0.093470 -0.103858
C63   C     C_R   0.292265 0.469998 0.892700 -0.110489
C64   C     C_R   0.686028 0.381138 0.093445 -0.103777
C65   C     C_R   0.779259 0.000861 0.941032 -0.137879
C66   C     C_R   0.196200 0.895280 0.043571 -0.063868
C67   C     C_R   0.279116 0.500920 0.941021 -0.137242
C68   C     C_R   0.696124 0.395016 0.043532 -0.064189
C69   C     C_R   0.731892 0.955045 0.966118 0.065409
C70   C     C_R   0.254452 0.903186 0.026283 0.062308
C71   C     C_R   0.231783 0.454987 0.966109 0.065373
C72   C     C_R   0.754372 0.402790 0.026221 0.062039
C73   C     C_R   0.758275 0.892436 0.868751 -0.041807
C74   C     C_R   0.234096 0.871492 0.127029 -0.044784
C75   C     C_R   0.258246 0.392405 0.868750 -0.041739
C76   C     C_R   0.734055 0.371332 0.126992 -0.044673
C77   C     C_R   0.528767 0.169432 0.371455 -0.011621
C78   C     C_R   0.470104 0.168494 0.628093 -0.012419
C79   C     C_R   0.028771 0.669432 0.371456 -0.011632
C80   C     C_R   0.970111 0.668495 0.628095 -0.012409
C81   C     C_R   0.544851 0.253423 0.402960 0.255112
C82   C     C_R   0.454865 0.253352 0.597576 0.255463
C83   C     C_R   0.044861 0.753420 0.402962 0.255105
C84   C     C_R   0.954882 0.753361 0.597580 0.255472
C85   C     C_R   0.538529 0.244408 0.454170 0.320366
C86   C     C_R   0.460009 0.244540 0.546195 0.322364
C87   C     C_R   0.038543 0.744404 0.454172 0.320407
C88   C     C_R   0.960028 0.744552 0.546199 0.322341
C89   C     C_R   0.718760 0.046055 0.174355 0.535808
C90   C     C_R   0.269010 0.003433 0.820952 0.551712
C91   C     C_R   0.218756 0.546054 0.174355 0.535841
C92   C     C_R   0.769001 0.503402 0.820940 0.551671
C93   C     C_R   0.506193 0.161041 0.473311 0.017273
C94   C     C_R   0.490770 0.160552 0.525853 0.017765
C95   C     C_R   0.006203 0.661043 0.473314 0.017282
C96   C     C_R   0.990781 0.660557 0.525856 0.017770
C97   C     C_R   0.485560 0.082103 0.441781 -0.129612
C98   C     C_R   0.510510 0.080501 0.556326 -0.129592
C99   C     C_R   0.985564 0.582109 0.441784 -0.129630
C100  C     C_R   0.010513 0.580498 0.556328 -0.129580
C101  C     C_R   0.498350 0.084780 0.391406 -0.139229
C102  C     C_R   0.498591 0.082963 0.606884 -0.139367
C103  C     C_R   0.998351 0.584784 0.391408 -0.139248
C104  C     C_R   0.998592 0.582958 0.606886 -0.139362
C105  C     C_R   0.734598 0.982452 0.376237 -0.004062
C106  C     C_R   0.266263 0.984105 0.623305 -0.001331
C107  C     C_R   0.234598 0.482454 0.376236 -0.004014
C108  C     C_R   0.766266 0.484116 0.623302 -0.001344
C109  C     C_R   0.732183 0.882593 0.395536 0.216202
C110  C     C_R   0.268284 0.884792 0.602709 0.217631
C111  C     C_R   0.232253 0.382590 0.395533 0.216214
C112  C     C_R   0.768312 0.384807 0.602702 0.217630
C113  C     C_R   0.730256 0.869990 0.446957 -0.045698
C114  C     C_R   0.270916 0.873611 0.551188 -0.045448
C115  C     C_R   0.230331 0.369980 0.446954 -0.045689
C116  C     C_R   0.770950 0.373634 0.551181 -0.045459
C117  C     C_R   0.729126 0.956469 0.478792 0.030109
C118  C     C_R   0.273038 0.960931 0.520582 0.028791
C119  C     C_R   0.229142 0.456455 0.478789 0.030117
C120  C     C_R   0.773051 0.460960 0.520578 0.028779
C121  C     C_R   0.729084 0.055708 0.458913 0.379327
C122  C     C_R   0.273493 0.059616 0.541749 0.378593
C123  C     C_R   0.229039 0.555695 0.458912 0.379349
C124  C     C_R   0.773481 0.559643 0.541747 0.378566
C125  C     C_R   0.732350 0.068331 0.408060 -0.080999
C126  C     C_R   0.269715 0.070840 0.592719 -0.079159
C127  C     C_R   0.232294 0.568327 0.408058 -0.080979
C128  C     C_R   0.769697 0.570858 0.592718 -0.079197
C129  C     C_R   0.778242 0.994658 0.559683 -0.069657
C130  C     C_R   0.223982 0.999366 0.440136 -0.074583
C131  C     C_R   0.278229 0.494683 0.559688 -0.069667
C132  C     C_R   0.723985 0.499380 0.440133 -0.074605
C133  C     C_R   0.721910 0.348544 0.321468 0.570163
C134  C     C_R   0.278184 0.347983 0.678441 0.566893
C135  C     C_R   0.221909 0.848543 0.321468 0.570145
C136  C     C_R   0.778184 0.847985 0.678441 0.566874
C137  C     C_R   0.789083 0.970570 0.609108 -0.121575
C138  C     C_R   0.212325 0.973743 0.390793 -0.120858
C139  C     C_R   0.289068 0.470592 0.609114 -0.121547
C140  C     C_R   0.712323 0.473748 0.390792 -0.120864
C141  C     C_R   0.706569 0.848568 0.606170 0.405720
C142  C     C_R   0.294827 0.852983 0.392733 0.403610
C143  C     C_R   0.206588 0.348520 0.606157 0.405710
C144  C     C_R   0.794839 0.353016 0.392726 0.403591
C145  C     C_R   0.695545 0.873372 0.556671 0.430497
C146  C     C_R   0.306634 0.879290 0.442094 0.424315
C147  C     C_R   0.195571 0.373318 0.556658 0.430523
C148  C     C_R   0.806651 0.379332 0.442085 0.424321
C149  C     C_R   0.733110 0.943023 0.532669 0.016471
C150  C     C_R   0.269307 0.948628 0.466608 0.013647
C151  C     C_R   0.233120 0.443008 0.532665 0.016461
C152  C     C_R   0.769319 0.448658 0.466603 0.013641
C153  C     C_R   0.755858 0.892808 0.631861 -0.039535
C154  C     C_R   0.244979 0.895462 0.367717 -0.039779
C155  C     C_R   0.255858 0.392799 0.631859 -0.039520
C156  C     C_R   0.744982 0.395474 0.367714 -0.039793
C157  C     C_R   0.554396 0.159314 0.321678 0.560866
C158  C     C_R   0.445373 0.159035 0.678193 0.558714
C159  C     C_R   0.054396 0.659314 0.321679 0.560865
C160  C     C_R   0.945375 0.659035 0.678194 0.558721
C161  C     C_R   0.731501 0.003705 0.323506 0.606810
C162  C     C_R   0.268615 0.003959 0.676280 0.596905
C163  C     C_R   0.231501 0.503703 0.323505 0.606832
C164  C     C_R   0.768617 0.503964 0.676278 0.596867
C165  C     C_R   0.514629 0.069676 0.100260 0.198878
C166  C     C_R   0.506177 0.079972 0.892071 0.196329
C167  C     C_R   0.014907 0.569631 0.100166 0.198744
C168  C     C_R   0.006363 0.580042 0.891988 0.196277
C169  C     C_R   0.515024 0.073228 0.048338 0.038435
C170  C     C_R   0.513047 0.078140 0.943887 0.042401
C171  C     C_R   0.015376 0.573224 0.048247 0.038174
C172  C     C_R   0.013348 0.578199 0.943797 0.042188
C173  C     C_R   0.518202 0.984364 0.968903 -0.020347
C174  C     C_R   0.517718 0.981792 0.020244 -0.009167
C175  C     C_R   0.018644 0.484427 0.968796 -0.020492
C176  C     C_R   0.018192 0.481819 0.020138 -0.009586
Cr1   Cr    Cr6+3 0.756570 0.170940 0.251190 1.135960
Cr2   Cr    Cr6+3 0.243430 0.170940 0.748810 1.134388
Cr3   Cr    Cr6+3 0.256570 0.670940 0.251190 1.136057
Cr4   Cr    Cr6+3 0.743430 0.670940 0.748810 1.134396
Cr5   Cr    Cr6+3 0.623740 0.299110 0.249580 1.156910
Cr6   Cr    Cr6+3 0.376260 0.299110 0.750420 1.161192
Cr7   Cr    Cr6+3 0.123740 0.799110 0.249580 1.156852
Cr8   Cr    Cr6+3 0.876260 0.799110 0.750420 1.161178
Cr9   Cr    Cr6+3 0.625990 0.036240 0.250480 1.135309
Cr10  Cr    Cr6+3 0.374010 0.036240 0.749520 1.121715
Cr11  Cr    Cr6+3 0.125990 0.536240 0.250480 1.135200
Cr12  Cr    Cr6+3 0.874010 0.536240 0.749520 1.121776
H1    H     H_    0.830835 0.003487 0.874984 0.199832
H2    H     H_    0.140398 0.874078 0.105554 0.199476
H3    H     H_    0.330715 0.503630 0.874980 0.199637
H4    H     H_    0.640347 0.374030 0.105553 0.199527
H5    H     H_    0.770345 0.837429 0.041449 0.170734
H6    H     H_    0.310477 0.791436 0.955339 0.170059
H7    H     H_    0.269423 0.336640 0.041465 0.171316
H8    H     H_    0.810112 0.290841 0.955193 0.169767
H9    H     H_    0.766790 0.876194 0.131006 0.171349
H10   H     H_    0.314272 0.830452 0.865843 0.156685
H11   H     H_    0.265937 0.375422 0.131023 0.171213
H12   H     H_    0.813951 0.330051 0.865714 0.156571
H13   H     H_    0.534234 0.015526 0.540790 0.186774
H14   H     H_    0.460618 0.017650 0.456377 0.188913
H15   H     H_    0.034231 0.515518 0.540792 0.186745
H16   H     H_    0.960619 0.517659 0.456381 0.188923
H17   H     H_    0.510951 0.017333 0.629366 0.187818
H18   H     H_    0.485296 0.019841 0.368094 0.187027
H19   H     H_    0.010944 0.517323 0.629366 0.187816
H20   H     H_    0.985293 0.519847 0.368096 0.187019
H21   H     H_    0.807478 0.049205 0.541763 0.227113
H22   H     H_    0.195031 0.053855 0.458500 0.226068
H23   H     H_    0.307450 0.549263 0.541775 0.227068
H24   H     H_    0.695029 0.553860 0.458498 0.226065
H25   H     H_    0.826022 0.008102 0.628439 0.228412
H26   H     H_    0.175137 0.010223 0.371874 0.230617
H27   H     H_    0.325992 0.508150 0.628452 0.228385
H28   H     H_    0.675128 0.510215 0.371875 0.230655
H29   H     H_    0.519446 0.911421 0.949252 0.219209
H30   H     H_    0.520401 0.906957 0.037488 0.223154
H31   H     H_    0.019959 0.411502 0.949134 0.219544
H32   H     H_    0.020969 0.406982 0.037370 0.223227
H33   H     H_    0.730609 0.792984 0.462068 0.243675
H34   H     H_    0.270252 0.797053 0.535005 0.246420
H35   H     H_    0.230732 0.292975 0.462065 0.243693
H36   H     H_    0.770304 0.297077 0.534997 0.246467
H37   H     H_    0.731404 0.145719 0.393233 0.165107
H38   H     H_    0.271114 0.147768 0.608627 0.163317
H39   H     H_    0.231300 0.645714 0.393232 0.164995
H40   H     H_    0.771077 0.647786 0.608627 0.163329
H41   H     H_    0.673797 0.158642 0.099845 0.100767
H42   H     H_    0.214732 0.109068 0.891930 0.168432
H43   H     H_    0.174457 0.659310 0.099822 0.100927
H44   H     H_    0.714997 0.609210 0.891992 0.168225
H45   H     H_    0.680947 0.792498 0.875268 0.175747
H46   H     H_    0.330289 0.864012 0.135069 0.184505
H47   H     H_    0.180991 0.292293 0.875267 0.175718
H48   H     H_    0.830247 0.363676 0.134992 0.184425
H49   H     H_    0.807641 0.057323 0.959698 0.159475
H50   H     H_    0.158403 0.901443 0.018197 0.216410
H51   H     H_    0.307445 0.557469 0.959682 0.159670
H52   H     H_    0.658320 0.401252 0.018170 0.216298
O1    O     O_R   0.769900 0.064540 0.196060 -0.470645
O2    O     O_R   0.230100 0.064540 0.803940 -0.498418
O3    O     O_R   0.269900 0.564540 0.196060 -0.470396
O4    O     O_R   0.730100 0.564540 0.803940 -0.498340
O5    O     O_R   0.574760 0.239320 0.300850 -0.437400
O6    O     O_R   0.425240 0.239320 0.699150 -0.444233
O7    O     O_R   0.074760 0.739320 0.300850 -0.437401
O8    O     O_R   0.925240 0.739320 0.699150 -0.444245
O9    O     O_R   0.566290 0.069580 0.305400 -0.506629
O10   O     O_R   0.433710 0.069580 0.694600 -0.505282
O11   O     O_R   0.066290 0.569580 0.305400 -0.506645
O12   O     O_R   0.933710 0.569580 0.694600 -0.505271
O13   O     O_R   0.680760 0.993330 0.302620 -0.474604
O14   O     O_R   0.319240 0.993330 0.697380 -0.480700
O15   O     O_R   0.180760 0.493330 0.302620 -0.474673
O16   O     O_R   0.819240 0.493330 0.697380 -0.480693
O17   O     O_3   0.668770 0.168760 0.250420 -0.337891
O18   O     O_3   0.331230 0.168760 0.749580 -0.310993
O19   O     O_3   0.168770 0.668760 0.250420 -0.337885
O20   O     O_3   0.831230 0.668760 0.749580 -0.310986
O21   O     O_R   0.750800 0.274080 0.199250 -0.520431
O22   O     O_R   0.249200 0.274080 0.800750 -0.510400
O23   O     O_R   0.250800 0.774080 0.199250 -0.520411
O24   O     O_R   0.749200 0.774080 0.800750 -0.510360
O25   O     O_R   0.669990 0.371670 0.194150 -0.475125
O26   O     O_R   0.330010 0.371670 0.805850 -0.467242
O27   O     O_R   0.169990 0.871670 0.194150 -0.475186
O28   O     O_R   0.830010 0.871670 0.805850 -0.467271
O29   O     O_R   0.574600 0.238480 0.197800 -0.465920
O30   O     O_R   0.425400 0.238480 0.802200 -0.448234
O31   O     O_R   0.074600 0.738480 0.197800 -0.465866
O32   O     O_R   0.925400 0.738480 0.802200 -0.448239
O33   O     O_R   0.566130 0.068680 0.194240 -0.456500
O34   O     O_R   0.433870 0.068680 0.805760 -0.450978
O35   O     O_R   0.066130 0.568680 0.194240 -0.456469
O36   O     O_R   0.933870 0.568680 0.805760 -0.450918
O37   O     O_R   0.680610 0.992490 0.199570 -0.463745
O38   O     O_R   0.319390 0.992490 0.800430 -0.490837
O39   O     O_R   0.180610 0.492490 0.199570 -0.463927
O40   O     O_R   0.819390 0.492490 0.800430 -0.490808
O41   O     O_R   0.770060 0.065440 0.307230 -0.456562
O42   O     O_R   0.229940 0.065440 0.692770 -0.459393
O43   O     O_R   0.270060 0.565440 0.307230 -0.456494
O44   O     O_R   0.729940 0.565440 0.692770 -0.459447
O45   O     O_R   0.750960 0.274920 0.302300 -0.445383
O46   O     O_R   0.249040 0.274920 0.697700 -0.445580
O47   O     O_R   0.250960 0.774920 0.302300 -0.445377
O48   O     O_R   0.749040 0.774920 0.697700 -0.445597
O49   O     O_R   0.670160 0.372580 0.305320 -0.464798
O50   O     O_R   0.329840 0.372580 0.694680 -0.472176
O51   O     O_R   0.170160 0.872580 0.305320 -0.464819
O52   O     O_R   0.829840 0.872580 0.694680 -0.472196
Cl1   Cl    Cl    0.525019 0.969499 0.856269 -0.519277
Cl2   Cl    Cl    0.499299 0.950739 0.130068 -0.479818
Cl3   Cl    Cl    0.025184 0.469619 0.856143 -0.519420
Cl4   Cl    Cl    0.999625 0.450617 0.129923 -0.479711
Cl5   Cl    Cl    0.571565 0.372186 0.380483 -0.464521
Cl6   Cl    Cl    0.431171 0.373291 0.621480 -0.464782
Cl7   Cl    Cl    0.071574 0.872183 0.380485 -0.464564
Cl8   Cl    Cl    0.931197 0.873303 0.621488 -0.464779
Cl9   Cl    Cl    0.574133 0.335439 0.494432 -0.418072
Cl10  Cl    Cl    0.425295 0.337081 0.507217 -0.420092
Cl11  Cl    Cl    0.074158 0.835424 0.494434 -0.418036
Cl12  Cl    Cl    0.925323 0.837107 0.507223 -0.420114
Cl13  Cl    Cl    0.732779 0.773065 0.356621 -0.519779
Cl14  Cl    Cl    0.266318 0.774257 0.640093 -0.526885
Cl15  Cl    Cl    0.232927 0.273067 0.356617 -0.519798
Cl16  Cl    Cl    0.766372 0.274266 0.640084 -0.526893
F1    F     F_    0.649715 0.826549 0.531642 -0.566264
F2    F     F_    0.352712 0.833602 0.466636 -0.568291
F3    F     F_    0.149765 0.326450 0.531618 -0.566220
F4    F     F_    0.852737 0.333661 0.466623 -0.568295
F5    F     F_    0.671343 0.776559 0.627577 -0.551081
F6    F     F_    0.329783 0.780995 0.370894 -0.551459
F7    F     F_    0.171377 0.276478 0.627556 -0.551079
F8    F     F_    0.829801 0.281040 0.370883 -0.551490
F9    F     F_    0.725007 0.140218 0.488642 -0.625521
F10   F     F_    0.278333 0.144851 0.513179 -0.627556
F11   F     F_    0.224912 0.640193 0.488643 -0.625495
F12   F     F_    0.778301 0.644886 0.513180 -0.627565
Cl17  Cl    Cl    0.455988 0.379545 0.871319 -0.482905
Cl18  Cl    Cl    0.492945 0.361849 0.142490 -0.442811
Cl19  Cl    Cl    0.955940 0.879531 0.871337 -0.483100
Cl20  Cl    Cl    0.992960 0.861760 0.142417 -0.443037
Cl21  Cl    Cl    0.546710 0.469333 0.942666 -0.377015
Cl22  Cl    Cl    0.540386 0.475699 0.055759 -0.393570
Cl23  Cl    Cl    0.046697 0.969457 0.942623 -0.376813
Cl24  Cl    Cl    0.040434 0.975727 0.055728 -0.393497
F13   F     F_    0.648544 0.838836 0.965070 -0.564217
F14   F     F_    0.359999 0.898813 0.042855 -0.604445
F15   F     F_    0.148527 0.338585 0.965050 -0.564658
F16   F     F_    0.859922 0.398246 0.042750 -0.603996
Cl25  Cl    Cl    0.666910 0.156651 0.993848 -0.655541
Cl26  Cl    Cl    0.204221 0.114419 0.995077 -0.484274
Cl27  Cl    Cl    0.167510 0.657304 0.993828 -0.655913
Cl28  Cl    Cl    0.704494 0.614338 0.995150 -0.484091

loop_
_geom_bond_atom_site_label_1
_geom_bond_atom_site_label_2
_ccdc_geom_bond_type
C85   Cl9   S    
C7    C168  A    
C37   C69   S    
C99   H16   S    
C142  C146  A    
C131  C151  A    
C19   C20   A    
C97   H14   S    
C53   C69   A    
C38   C70   S    
C50   H10   S    
C62   H2    S    
C108  C164  S    
C46   O34   A    
Cr10  O14   S    
C55   C59   A    
C26   C50   A    
Cr4   O24   S    
C95   C99   A    
Cr5   O17   S    
C146  F2    S    
C29   C33   A    
C100  C104  A    
Cr7   O27   S    
Cr12  O12   S    
C3    C74   S    
C9    C13   A    
C41   H5    S    
Cr2   O18   S    
C146  C150  A    
Cr3   O23   S    
C12   C16   A    
C56   C72   A    
C31   H43   S    
C169  C174  A    
Cr8   O52   S    
C172  C175  A    
C141  C145  A    
C148  F4    S    
C108  C112  A    
C122  C126  A    
C138  C154  A    
C162  O42   A    
C6    C165  A    
C127  H39   S    
C21   C22   A    
C61   H1    S    
Cr8   O8    S    
C126  H38   S    
C160  O8    A    
C41   C49   A    
C64   H4    S    
C18   C170  A    
C25   C29   A    
C44   H8    S    
C141  F5    S    
C27   C31   A    
C158  O10   A    
C124  F12   S    
C68   H52   S    
C62   C66   A    
C167  C171  A    
C98   C102  A    
C60   C76   A    
C157  O9    A    
C133  O49   A    
C78   C82   A    
C134  C155  S    
C54   C70   A    
C68   C72   A    
C82   Cl6   S    
C137  C153  A    
C91   O39   A    
C113  H33   S    
C140  C156  A    
C20   C172  A    
Cr11  O39   S    
Cr2   O22   S    
C132  C152  A    
C4    O28   A    
C129  H21   S    
C130  C138  A    
Cr12  O40   S    
C9    Cl18  S    
C59   H47   S    
C84   C88   A    
Cr9   O37   S    
Cr10  O34   S    
C119  C123  A    
C26   C90   S    
C5    C46   S    
C105  C125  A    
C7    C48   S    
C8    C47   S    
Cr7   O51   S    
Cr9   O13   S    
C136  C153  S    
Cr1   O45   S    
C2    O22   A    
Cr2   O42   S    
Cr3   O47   S    
C134  O46   A    
Cr5   O5    S    
Cr11  O11   S    
Cr9   O9    S    
C61   C65   A    
C129  C137  A    
C39   C71   S    
C117  C149  S    
C55   C71   A    
C2    C75   S    
C166  Cl1   S    
Cr1   O1    S    
C32   H44   S    
C144  C156  A    
C87   Cl11  S    
C88   Cl12  S    
C162  O14   A    
C6    C9    A    
C49   H9    S    
C129  C149  A    
Cr11  O19   S    
C64   C68   A    
Cr9   O33   S    
C100  H15   S    
C63   H3    S    
C2    O26   A    
C109  Cl13  S    
C164  O44   A    
C43   H7    S    
C118  C122  A    
C10   Cl17  S    
C57   C73   A    
Cr1   O21   S    
C85   C93   A    
C78   C158  S    
C53   F13   S    
C86   Cl10  S    
C87   C95   A    
C130  C150  A    
C23   C24   A    
C27   C91   S    
C174  H30   S    
C110  C114  A    
C128  H40   S    
C44   C52   A    
C46   O30   A    
C66   H50   S    
C79   C103  A    
C11   C15   A    
C27   C51   A    
Cr5   O29   S    
C7    C12   A    
Cr6   O18   S    
Cr7   O31   S    
C30   C34   A    
Cr12  O16   S    
C99   C103  A    
C144  F8    S    
Cr3   O19   S    
C159  O11   A    
C108  C128  A    
C116  C120  A    
C24   Cl23  S    
C92   O40   A    
C147  C151  A    
C121  C125  A    
C56   F16   S    
C123  C127  A    
C139  C155  A    
C4    O24   A    
C89   O37   A    
C17   C18   A    
C5    C166  A    
C142  C154  A    
C163  O15   A    
C4    C73   S    
C42   C50   A    
C113  C117  A    
C48   O36   A    
C107  C163  S    
C26   C30   A    
C115  C119  A    
C90   O2    A    
C131  H23   S    
C105  C161  S    
C93   C97   A    
C112  C116  A    
C58   C74   A    
C167  Cl4   S    
C105  C109  A    
C168  Cl3   S    
C40   C72   S    
C1    C76   S    
C107  C111  A    
C148  C152  A    
C163  O43   A    
C122  F10   S    
C171  C176  A    
C66   C70   A    
C13   C17   A    
C14   C22   A    
C29   H41   S    
C141  C153  A    
C63   C75   A    
C45   O33   A    
C96   C100  A    
C67   H51   S    
C37   C41   A    
C12   Cl19  S    
Cr3   O3    S    
C131  C139  A    
C101  H18   S    
C47   O31   A    
C40   C44   A    
C48   O32   A    
C36   Cl28  S    
C147  F3    S    
C157  O5    A    
C81   C85   A    
Cr10  O38   S    
C10   C14   A    
C83   Cl7   S    
C47   O35   A    
C83   C87   A    
C88   C96   A    
C6    C45   S    
C78   C102  A    
C133  C156  S    
C98   H13   S    
C80   C84   A    
Cr2   O46   S    
C15   C19   A    
Cr3   O43   S    
Cr8   O20   S    
C135  C154  S    
C80   C104  A    
C115  H35   S    
Cr6   O6    S    
C79   C159  S    
C161  O41   A    
C80   C160  S    
C94   C98   A    
C118  C150  S    
C139  H27   S    
C112  Cl16  S    
C60   H48   S    
Cr4   O44   S    
C21   Cl22  S    
C124  C128  A    
C137  H25   S    
C165  C169  A    
Cr5   O49   S    
C164  O16   A    
C125  H37   S    
C3    O27   A    
C110  Cl14  S    
Cr8   O32   S    
C136  O52   A    
C53   C57   A    
C61   C73   A    
C82   C86   A    
C123  F11   S    
C33   C37   A    
C56   C60   A    
C116  H36   S    
C35   C39   A    
C8    C167  A    
C28   C32   A    
Cr12  O20   S    
Cr7   O7    S    
C114  H34   S    
Cr5   O25   S    
Cr9   O17   S    
Cr6   O30   S    
Cr7   O19   S    
C142  F6    S    
C31   C35   A    
C32   C36   A    
C138  H26   S    
C54   F14   S    
C134  O50   A    
C58   H46   S    
C132  C140  A    
C106  C126  A    
C22   Cl21  S    
C25   C89   S    
C143  C155  A    
C90   O38   A    
C79   C83   A    
C43   C51   A    
C65   C69   A    
C77   C101  A    
C67   C71   A    
C106  C162  S    
C25   C49   A    
Cr10  O10   S    
Cr4   O20   S    
C145  F1    S    
C168  C172  A    
C176  H32   S    
C62   C74   A    
C143  F7    S    
C145  C149  A    
Cr2   O2    S    
C170  C173  A    
Cr11  O35   S    
C93   C94   S    
C28   C52   A    
C14   C18   A    
C95   C96   S    
C132  H24   S    
C144  C148  A    
C161  O13   A    
C173  C174  A    
C143  C147  A    
C65   H49   S    
C19   C171  A    
C38   C42   A    
C17   C169  A    
C104  H19   S    
C11   Cl20  S    
C42   H6    S    
C117  C121  A    
C86   C94   A    
C23   Cl24  S    
C175  C176  A    
C77   C81   A    
C173  H29   S    
C16   C20   A    
C121  F9    S    
C15   C23   A    
C16   C24   A    
C33   Cl25  S    
C35   Cl27  S    
Cr4   O4    S    
C119  C151  S    
C63   C67   A    
C120  C152  S    
C13   C21   A    
C36   C40   A    
C103  H20   S    
C39   C43   A    
Cr12  O36   S    
Cr4   O48   S    
C111  Cl15  S    
C81   Cl5   S    
C64   C76   A    
C28   C92   S    
Cr6   O50   S    
C159  O7    A    
C114  C118  A    
C51   H11   S    
C1    O21   A    
Cr1   O41   S    
C91   O3    A    
C3    O23   A    
C160  O12   A    
Cr8   O28   S    
C89   O1    A    
C130  H22   S    
C135  O47   A    
Cr11  O15   S    
C136  O48   A    
C59   C75   A    
C54   C58   A    
Cr1   O17   S    
C34   C38   A    
C175  H31   S    
C57   H45   S    
C165  Cl2   S    
C109  C113  A    
C158  O6    A    
C133  O45   A    
C55   F15   S    
C30   H42   S    
C5    C10   A    
C52   H12   S    
C92   O4    A    
Cr6   O26   S    
Cr10  O18   S    
C8    C11   A    
C166  C170  A    
C45   O29   A    
C102  H17   S    
C97   C101  A    
C140  H28   S    
C1    O25   A    
C106  C110  A    
C111  C115  A    
C107  C127  A    
C135  O51   A    
C34   Cl26  S    
C120  C124  A    
C77   C157  S    
C84   Cl8   S    
