data_mof_unit_57457.cif
_audit_creation_date              2012-10-26T19:41:52-0400
_audit_creation_method            fapswitch 2.2
_symmetry_space_group_name_H-M    P1
_symmetry_Int_Tables_number       1
_space_group_crystal_system       triclinic
_cell_length_a                    10.639848
_cell_length_b                    10.899563
_cell_length_c                    9.59328
_cell_angle_alpha                 88.374165
_cell_angle_beta                  90.329808
_cell_angle_gamma                 93.319457
_cell_volume                      1110.20659338

loop_
_atom_site_label
_atom_site_type_symbol
_atom_type_description
_atom_site_fract_x
_atom_site_fract_y
_atom_site_fract_z
_atom_type_partial_charge
C1    C     C_R   0.509552 0.262659 0.502600 0.577372
C2    C     C_R   0.487937 0.056288 0.631432 -0.028451
C3    C     C_R   0.519173 0.127782 0.508246 -0.040995
C4    C     C_R   0.259556 0.500102 0.499276 0.572068
C5    C     C_R   0.539071 0.067822 0.382377 0.235183
C6    C     C_R   0.510829 0.942078 0.373489 0.236688
C7    C     C_R   0.476598 0.871132 0.494252 -0.030937
C8    C     C_R   0.673463 0.658670 0.140315 -0.003775
C9    C     C_R   0.759509 0.735514 0.066467 -0.073505
C10   C     C_R   0.758584 0.736932 0.922755 -0.095746
C11   C     C_R   0.672368 0.660756 0.852090 -0.034208
C12   C     C_3   0.962588 0.606098 0.442736 -0.153133
C13   C     C_R   0.585184 0.578453 0.923207 0.137848
C14   C     C_R   0.585439 0.577935 0.072813 0.164277
C15   C     C_R   0.418626 0.426058 0.076725 0.099000
C16   C     C_R   0.489239 0.736903 0.497842 0.537107
C17   C     C_R   0.418026 0.425896 0.929225 0.338687
C18   C     C_R   0.740441 0.499630 0.500704 0.544356
C19   C     C_3   0.037436 0.393487 0.556905 -0.117311
C20   C     C_3   0.951188 0.404433 0.426601 -0.127016
C21   C     C_3   0.877127 0.499137 0.502406 -0.004840
C22   C     C_3   0.961740 0.488227 0.631379 0.258152
C23   C     C_3   0.038337 0.511272 0.368355 0.250970
C24   C     C_3   0.048806 0.595145 0.573171 -0.134247
C25   C     C_3   0.122870 0.500436 0.497413 0.006770
C26   C     C_R   0.494304 0.103392 0.767856 -0.037803
C27   C     C_R   0.439226 0.037590 0.880599 -0.034836
C28   C     C_R   0.379226 0.922972 0.860758 -0.075440
C29   C     C_R   0.384973 0.869340 0.731308 -0.084328
C30   C     C_R   0.449922 0.930998 0.618735 -0.029841
Cl1   Cl    Cl    0.506131 0.880463 0.204840 -0.598347
Cl2   Cl    Cl    0.305310 0.326971 0.849147 -0.554967
Cl3   Cl    Cl    0.914845 0.470228 0.809095 -0.496620
Cl4   Cl    Cl    0.086662 0.527323 0.190842 -0.500371
Cl5   Cl    Cl    0.611902 0.145670 0.235794 -0.539412
Cu1   Cu    Cu3+1 0.499990 0.499990 0.640660 1.019842
Cu2   Cu    Cu3+1 0.500010 0.500010 0.359340 1.049402
H1    H     H_    0.909021 0.326907 0.366123 0.182724
H2    H     H_    0.441424 0.076761 0.983043 0.208818
H3    H     H_    0.824567 0.798221 0.865231 0.137042
H4    H     H_    0.678716 0.670504 0.741941 0.180876
H5    H     H_    0.545828 0.188169 0.792015 0.183856
H6    H     H_    0.331405 0.873907 0.946613 0.179176
H7    H     H_    0.336258 0.780295 0.719742 0.150341
H8    H     H_    0.352077 0.365730 0.134524 0.178788
H9    H     H_    0.676612 0.670119 0.249851 0.184256
H10   H     H_    0.825474 0.796417 0.121428 0.151253
H11   H     H_    0.070365 0.306889 0.604331 0.179767
H12   H     H_    0.090874 0.672670 0.633733 0.139233
H13   H     H_    0.929541 0.692592 0.395141 0.130618
N1    N     N_R   0.501210 0.501210 0.147910 -0.265910
N2    N     N_R   0.501250 0.501290 0.852040 -0.246702
O1    O     O_R   0.499990 0.319640 0.618810 -0.487559
O2    O     O_R   0.500000 0.319660 0.381240 -0.452509
O3    O     O_R   0.316850 0.499960 0.618770 -0.453065
O4    O     O_R   0.316860 0.499980 0.381190 -0.469622
O5    O     O_R   0.500000 0.680340 0.618760 -0.558919
O6    O     O_R   0.500010 0.680360 0.381190 -0.469366
O7    O     O_R   0.683140 0.500020 0.618810 -0.495107
O8    O     O_R   0.683150 0.500040 0.381230 -0.519585

loop_
_geom_bond_atom_site_label_1
_geom_bond_atom_site_label_2
_ccdc_geom_bond_type
C12   H13   S    
C1    O2    A    
C11   H4    S    
C6    C7    A    
C15   N1    A    
C18   C21   S    
C20   H1    S    
C9    C10   A    
C12   C24   S    
C28   H6    S    
C14   N1    A    
Cu1   N2    S    
C20   C23   S    
C2    C30   A    
C23   Cl4   S    
Cu1   O7    S    
C19   C20   S    
C2    C3    A    
C2    C26   A    
Cu1   O3    S    
C16   O6    A    
C21   C22   S    
C4    O4    A    
C11   C13   A    
C12   C23   S    
C26   C27   A    
C29   C30   A    
C22   Cl3   S    
Cu2   N1    S    
Cu2   O2    S    
C5    Cl5   S    
C17   N2    A    
C18   O8    A    
C28   C29   A    
C9    H10   S    
C22   C24   S    
C16   O5    A    
C23   C25   S    
C4    O3    A    
C5    C6    A    
C19   C25   S    
C8    H9    S    
Cu2   O8    S    
C10   C11   A    
C15   H8    S    
C13   N2    A    
C4    C25   S    
C18   O7    A    
C27   C28   A    
C19   C22   S    
C24   C25   S    
C26   H5    S    
C10   H3    S    
Cu1   O5    S    
C24   H12   S    
C15   C17   A    
C17   Cl2   S    
C1    O1    A    
C19   H11   S    
Cu1   Cu2   S    
C6    Cl1   S    
Cu1   O1    S    
C8    C14   A    
C13   C14   A    
C3    C5    A    
C20   C21   S    
C29   H7    S    
Cu2   O4    S    
C12   C21   S    
C7    C16   S    
Cu2   O6    S    
C27   H2    S    
C8    C9    A    
C1    C3    S    
C7    C30   A    
