data_mof_unit_31952.cif
_audit_creation_date              2013-03-05T16:46:36-0500
_audit_creation_method            fapswitch 2.2
_symmetry_space_group_name_H-M    P1
_symmetry_Int_Tables_number       1
_space_group_crystal_system       triclinic
_cell_length_a                    12.887604
_cell_length_b                    8.937164
_cell_length_c                    8.092561
_cell_angle_alpha                 90.00372
_cell_angle_beta                  95.998161
_cell_angle_gamma                 89.996377
_cell_volume                      926.987129528

loop_
_atom_site_label
_atom_site_type_symbol
_atom_site_description
_atom_site_fract_x
_atom_site_fract_y
_atom_site_fract_z
_atom_type_partial_charge
O1    O     O_R   0.499990 0.285340 0.636850 -0.621400
O2    O     O_R   0.500010 0.714660 0.363150 -0.611173
O3    O     O_R   0.500010 0.285340 0.363150 -0.621305
O4    O     O_R   0.499990 0.714660 0.636850 -0.611142
N1    N     N_1   0.500020 0.500000 0.073640 -0.038727
N2    N     N_1   0.499980 0.500000 0.926360 -0.038671
C1    C     C_R   0.499998 0.217920 0.499996 0.922825
C2    C     C_R   0.499999 0.782071 0.500003 0.954145
O5    O     O_R   0.346350 0.500000 0.614250 -0.617419
O6    O     O_R   0.653650 0.500000 0.385750 -0.617575
O7    O     O_R   0.346360 0.500000 0.340500 -0.628521
O8    O     O_R   0.653640 0.500000 0.659500 -0.628446
C3    C     C_R   0.298072 0.487426 0.469997 0.891066
C4    C     C_R   0.701929 0.487319 0.529964 0.891161
Zn1   Zn    Zn3+2 0.499990 0.500000 0.682780 0.978363
Zn2   Zn    Zn3+2 0.500010 0.500000 0.317220 0.978287
C5    C     C_R   0.812445 0.454358 0.545140 -0.071841
C6    C     C_R   0.187541 0.454743 0.454585 -0.071455
C7    C     C_R   0.025684 0.439816 0.278522 -0.220082
C8    C     C_R   0.974270 0.437525 0.721070 -0.219958
C9    C     C_R   0.131913 0.462798 0.296965 -0.256999
C10   C     C_R   0.868049 0.460800 0.702872 -0.257191
C11   C     C_R   0.136566 0.415328 0.595163 0.121127
C12   C     C_R   0.863434 0.416133 0.404148 0.121491
C13   C     C_R   0.027877 0.422015 0.579931 0.134823
C14   C     C_R   0.972106 0.422786 0.419481 0.134888
H1    H     H_    0.829584 0.484569 0.812814 0.176070
H2    H     H_    0.170359 0.487688 0.187300 0.176064
H3    H     H_    0.985375 0.449547 0.154807 0.155756
H4    H     H_    0.014568 0.445841 0.844910 0.155828
C15   C     C_1   0.499998 0.065177 0.499995 -0.190216
C16   C     C_1   0.499998 0.934839 0.500005 -0.196984
C17   C     C_3   0.804630 0.360986 0.242798 -0.864512
H5    H     H_    0.854047 0.288495 0.171694 0.223136
H6    H     H_    0.738532 0.287900 0.268771 0.253729
H7    H     H_    0.776327 0.457205 0.163649 0.251329
C18   C     C_3   0.195417 0.358896 0.755853 -0.864860
H8    H     H_    0.146135 0.285148 0.825672 0.223549
H9    H     H_    0.261831 0.286747 0.729186 0.253657
H10   H     H_    0.223277 0.454430 0.836357 0.251186

loop_
_geom_bond_atom_site_label_1
_geom_bond_atom_site_label_2
_geom_bond_distance
_ccdc_geom_bond_type
C18   H8    1.110022 S    
O1    Zn1   1.954104 S    
C5    C10   1.398210 A    
C6    C9    1.398236 A    
O2    Zn2   1.954103 S    
O7    Zn2   2.008625 S    
C12   C17   1.521621 S    
O8    Zn1   2.008624 S    
O4    C2    1.260755 A    
O4    Zn1   1.954150 S    
C17   H5    1.110363 S    
O5    Zn1   1.999668 S    
C18   H9    1.110600 S    
C13   C14   1.416895 A    
O6    Zn2   1.999668 S    
O7    C3    1.278459 A    
C4    C5    1.447015 S    
C3    C6    1.446696 S    
O1    C1    1.260770 A    
C7    C9    1.376971 A    
C9    H2    1.083752 S    
C12   C14   1.394308 A    
C18   H10   1.110590 S    
O3    C1    1.260791 A    
C10   H1    1.083783 S    
C11   C13   1.394528 A    
N1    N2    1.191819 T    
C5    C12   1.416685 A    
C1    C15   1.365091 S    
C8    C13   1.402129 A    
C8    C10   1.377246 A    
C6    C11   1.416392 A    
C7    H3    1.082167 S    
C17   H7    1.110852 S    
O6    C4    1.268957 A    
C7    C14   1.402075 A    
O5    C3    1.269132 A    
N1    Zn2   1.971199 S    
C8    H4    1.082048 S    
C17   H6    1.110847 S    
N2    Zn1   1.971200 S    
C11   C18   1.521366 S    
O2    C2    1.260735 A    
O3    Zn2   1.954151 S    
C15   C16   1.164853 T    
O8    C4    1.278807 A    
C2    C16   1.365309 S    
