data_mof_unit_41604.cif
_audit_creation_date              2013-03-05T16:22:06-0500
_audit_creation_method            fapswitch 2.2
_symmetry_space_group_name_H-M    P1
_symmetry_Int_Tables_number       1
_space_group_crystal_system       triclinic
_cell_length_a                    13.441181
_cell_length_b                    13.933697
_cell_length_c                    15.143447
_cell_angle_alpha                 90.025572
_cell_angle_beta                  92.215066
_cell_angle_gamma                 72.564816
_cell_volume                      2703.63699852

loop_
_atom_site_label
_atom_site_type_symbol
_atom_site_description
_atom_site_fract_x
_atom_site_fract_y
_atom_site_fract_z
_atom_type_partial_charge
O1    O     O_R   0.499990 0.418570 0.628550 -0.534346
O2    O     O_R   0.499990 0.581440 0.628540 -0.597492
C1    C     C_R   0.499644 0.500363 0.669750 0.856828
O3    O     O_R   0.650980 0.378820 0.499990 -0.595933
O4    O     O_R   0.650980 0.541690 0.499970 -0.587276
C2    C     C_R   0.699728 0.446478 0.494035 0.777669
Cu1   Cu    Cu3+1 0.500000 0.403570 0.500010 0.984226
Cu2   Cu    Cu3+1 0.500000 0.596430 0.499990 0.947122
O5    O     O_R   0.500010 0.418560 0.371460 -0.558368
O6    O     O_R   0.500010 0.581430 0.371450 -0.592233
O7    O     O_R   0.349020 0.458310 0.500030 -0.521850
O8    O     O_R   0.349020 0.621180 0.500010 -0.561175
C3    C     C_R   0.503493 0.498570 0.329800 0.779563
C4    C     C_R   0.299234 0.553955 0.498400 0.842345
C5    C     C_R   0.012827 0.710595 0.468114 0.443971
H1    H     H_    0.817125 0.728469 0.401254 0.153857
C6    C     C_R   0.183597 0.584423 0.488209 -0.318519
C7    C     C_R   0.871035 0.320978 0.524952 -0.305961
C8    C     C_R   0.977776 0.297261 0.544470 0.021087
C9    C     C_R   0.030490 0.365636 0.521850 -0.111236
C10   C     C_R   0.977499 0.457910 0.478954 0.088522
C11   C     C_R   0.868577 0.482481 0.461020 0.097323
C12   C     C_R   0.027761 0.532288 0.464738 -0.071134
C13   C     C_R   0.967677 0.633095 0.450784 -0.029126
C14   C     C_R   0.863428 0.653353 0.421646 -0.103042
C15   C     C_R   0.816943 0.576452 0.420137 -0.170307
C16   C     C_R   0.136191 0.509757 0.464505 0.365558
C17   C     C_R   0.118612 0.684841 0.499571 -0.162733
C18   C     C_R   0.814450 0.414971 0.488618 -0.095416
H2    H     H_    0.830872 0.268702 0.544957 0.131193
H3    H     H_    0.111349 0.348949 0.543870 0.218412
H4    H     H_    0.738408 0.594207 0.392013 0.154932
C19   C     C_R   0.572529 0.420254 0.906522 0.466333
C20   C     C_R   0.569883 0.421937 0.813421 -0.372316
H5    H     H_    0.624213 0.363872 0.777160 0.165710
C21   C     C_R   0.499871 0.501371 0.765933 -0.158685
C22   C     C_R   0.434473 0.583245 0.810460 0.439970
C23   C     C_R   0.432772 0.579884 0.902405 -0.337108
H6    H     H_    0.378466 0.640596 0.936539 0.165813
C24   C     C_R   0.500437 0.498892 0.950256 -0.035170
C25   C     C_R   0.509533 0.580096 0.093751 -0.164653
H7    H     H_    0.517870 0.644947 0.058840 0.149110
C26   C     C_R   0.512114 0.580054 0.185409 -0.290479
H8    H     H_    0.521175 0.645429 0.219210 0.158888
C27   C     C_R   0.507024 0.495444 0.232621 -0.186623
C28   C     C_R   0.504581 0.408023 0.185942 0.422633
C29   C     C_R   0.487183 0.412719 0.093508 -0.038135
C30   C     C_R   0.496551 0.497526 0.047193 0.027776
C31   C     C_R   0.415993 0.915735 0.455767 0.270020
C32   C     C_R   0.422962 0.811780 0.452257 0.491792
N1    N     N_R   0.500000 0.741310 0.499980 -0.286013
C33   C     C_R   0.577042 0.770659 0.545031 -0.003897
C34   C     C_R   0.581337 0.871668 0.538289 -0.163411
C35   C     C_R   0.496881 0.946715 0.496826 -0.070541
C36   C     C_R   0.508669 0.103953 0.579166 0.277129
C37   C     C_R   0.526861 0.199560 0.574956 0.518484
N2    N     N_R   0.500060 0.258650 0.499980 -0.228217
C38   C     C_R   0.468061 0.219202 0.425462 -0.032884
H9    H     H_    0.444927 0.264860 0.366451 0.220932
C39   C     C_R   0.468715 0.117984 0.422522 -0.319324
H10   H     H_    0.451569 0.087374 0.360055 0.211587
C40   C     C_R   0.490889 0.057646 0.499520 0.030075
C41   C     C_2   0.156855 0.758518 0.551272 0.464453
H11   H     H_    0.228261 0.733208 0.591242 0.107755
O9    O     O_2   0.106394 0.847183 0.554626 -0.545918
O10   O     O_3   0.368568 0.664129 0.763529 -0.579150
C42   C     C_3   0.408113 0.747156 0.772295 0.091361
H12   H     H_    0.494844 0.724684 0.768567 0.129607
H13   H     H_    0.385767 0.785116 0.836332 0.145404
C43   C     C_3   0.362483 0.821816 0.697367 -0.790655
H14   H     H_    0.278199 0.859389 0.706444 0.253663
H15   H     H_    0.404561 0.878935 0.695089 0.220091
H16   H     H_    0.372266 0.782327 0.633442 0.256986
O11   O     O_3   0.524851 0.316521 0.229556 -0.553052
C44   C     C_3   0.634051 0.269375 0.230702 0.131479
H17   H     H_    0.675159 0.309877 0.275454 0.126961
H18   H     H_    0.665323 0.267254 0.163392 0.156690
C45   C     C_3   0.659161 0.161296 0.263631 -0.802542
H19   H     H_    0.742157 0.120541 0.252208 0.193874
H20   H     H_    0.647052 0.159661 0.335515 0.235442
H21   H     H_    0.609041 0.122431 0.227680 0.272435
C46   C     C_2   0.456857 0.331056 0.046032 0.402762
H22   H     H_    0.435443 0.338504 0.976066 0.057236
O12   O     O_2   0.452473 0.255518 0.084473 -0.526875
O13   O     O_3   0.332393 0.987014 0.414834 -0.594505
C47   C     C_3   0.244573 0.004006 0.467460 0.131053
H23   H     H_    0.259724 0.034185 0.533078 0.186200
H24   H     H_    0.223229 0.933868 0.477357 0.201166
C48   C     C_3   0.151869 0.079996 0.420768 -0.747965
H25   H     H_    0.143142 0.058305 0.351061 0.236183
H26   H     H_    0.079136 0.082427 0.454060 0.206141
H27   H     H_    0.162916 0.155788 0.422310 0.255612
O14   O     O_3   0.344689 0.782957 0.407950 -0.575435
C49   C     C_3   0.356538 0.783025 0.315318 0.147743
H28   H     H_    0.355771 0.708291 0.290883 0.167298
H29   H     H_    0.430532 0.795693 0.294630 0.101424
C50   C     C_3   0.263860 0.859433 0.268650 -0.830822
H30   H     H_    0.273394 0.935594 0.270973 0.277558
H31   H     H_    0.259235 0.839264 0.197964 0.198775
H32   H     H_    0.190056 0.860064 0.299292 0.242438
C51   C     C_2   0.653722 0.697878 0.603776 0.572000
H33   H     H_    0.628035 0.662984 0.658440 0.048662
O15   O     O_2   0.747121 0.676810 0.592351 -0.522823
C52   C     C_2   0.674647 0.899590 0.571197 0.540895
H34   H     H_    0.700260 0.954127 0.534416 0.028259
O16   O     O_2   0.720536 0.866359 0.640959 -0.503932
O17   O     O_3   0.514351 0.051568 0.658530 -0.584018
C53   C     C_3   0.461510 0.114858 0.726212 0.149278
H35   H     H_    0.397289 0.181164 0.700493 0.152219
H36   H     H_    0.518476 0.141359 0.766805 0.184334
C54   C     C_3   0.413202 0.055749 0.786822 -0.812027
H37   H     H_    0.472110 0.984302 0.808546 0.255179
H38   H     H_    0.384080 0.101009 0.846026 0.216136
H39   H     H_    0.346162 0.039438 0.751753 0.254915
O18   O     O_3   0.574656 0.231072 0.646653 -0.594367
C55   C     C_3   0.683590 0.203887 0.635309 0.051844
H40   H     H_    0.710636 0.269029 0.654581 0.167126
H41   H     H_    0.707352 0.184634 0.566003 0.126084
C56   C     C_3   0.740388 0.115863 0.695871 -0.827130
H42   H     H_    0.720177 0.047728 0.675431 0.293762
H43   H     H_    0.826026 0.100969 0.692175 0.217927
H44   H     H_    0.717915 0.132535 0.765022 0.235750
O19   O     O_3   0.949072 0.809121 0.469242 -0.523817
C57   C     C_3   0.961037 0.857552 0.390286 0.098202
H45   H     H_    0.934150 0.821935 0.331867 0.104255
H46   H     H_    0.043828 0.855091 0.382677 0.158244
C58   C     C_3   0.895441 0.967391 0.392817 -0.778286
H47   H     H_    0.919799 0.004536 0.451191 0.262419
H48   H     H_    0.906340 0.006905 0.331971 0.189779
H49   H     H_    0.811533 0.972905 0.396883 0.229505
O20   O     O_3   0.194238 0.415854 0.436012 -0.568183
C59   C     C_3   0.202171 0.418675 0.343110 0.080895
H50   H     H_    0.276844 0.432716 0.327746 0.163852
H51   H     H_    0.137012 0.477704 0.308615 0.115230
C60   C     C_3   0.201884 0.317655 0.305210 -0.767830
H52   H     H_    0.125220 0.305305 0.315362 0.234453
H53   H     H_    0.215341 0.316581 0.233279 0.219694
H54   H     H_    0.264218 0.255829 0.338234 0.260764
C61   C     C_2   0.031031 0.204581 0.595923 0.330088
H55   H     H_    0.988854 0.151866 0.611815 0.079364
O21   O     O_2   0.122085 0.186173 0.621748 -0.562657
O22   O     O_3   0.646872 0.348363 0.958113 -0.589292
C62   C     C_3   0.681402 0.253687 0.917178 0.051027
H56   H     H_    0.742369 0.254261 0.869789 0.161626
H57   H     H_    0.615703 0.233147 0.883122 0.143243
C63   C     C_3   0.730117 0.173076 0.986899 -0.789187
H58   H     H_    0.669870 0.166073 0.032460 0.260984
H59   H     H_    0.763468 0.099541 0.954472 0.210851
H60   H     H_    0.793346 0.192565 0.025268 0.248576

loop_
_geom_bond_atom_site_label_1
_geom_bond_atom_site_label_2
_geom_bond_distance
_ccdc_geom_bond_type
C62   C63   1.520522 S    
C23   C24   1.400195 A    
C36   C37   1.426530 A    
C41   O9    1.220398 D    
C15   H4    1.079682 S    
O14   C49   1.417916 S    
C11   C18   1.422239 A    
C60   H54   1.108907 S    
C16   O20   1.385869 S    
C25   H7    1.083640 S    
C8    C9    1.396645 A    
C26   H8    1.080672 S    
C52   O16   1.220593 D    
C50   H30   1.106760 S    
N2    C38   1.365334 A    
O19   C57   1.411200 S    
O13   C47   1.410527 S    
C53   H35   1.116607 S    
Cu1   O7    1.942296 S    
C51   H33   1.078844 S    
C5    O19   1.383991 S    
C21   C22   1.404643 A    
C20   H5    1.079788 S    
C23   H6    1.083670 S    
O7    C4    1.299541 A    
C47   H24   1.109654 S    
C34   C52   1.488840 S    
C38   C39   1.408430 A    
C62   H56   1.111749 S    
C36   C40   1.413359 A    
C55   H40   1.109266 S    
C39   C40   1.406812 A    
C7    C8    1.392177 A    
C29   C46   1.494099 S    
C24   C30   1.471237 S    
O5    C3    1.295082 A    
C37   O18   1.378043 S    
C45   H19   1.109995 S    
C54   H37   1.110863 S    
C53   H36   1.110562 S    
C59   H50   1.111556 S    
C12   C13   1.406102 A    
C43   H14   1.110380 S    
C7    H2    1.078078 S    
C12   C16   1.396019 A    
C48   H26   1.108736 S    
C20   C21   1.397127 A    
O10   C42   1.414701 S    
C51   O15   1.219843 D    
C60   H53   1.110441 S    
C10   C11   1.415409 A    
C25   C26   1.387104 A    
C4    C6    1.485255 S    
O3    Cu1   1.953932 S    
C52   H34   1.085438 S    
C50   H31   1.110726 S    
C19   C20   1.408978 A    
C63   H59   1.110513 S    
C56   H43   1.110406 S    
C33   C51   1.478402 S    
C19   C24   1.410985 A    
O11   C44   1.416495 S    
C42   H12   1.116509 S    
C6    C16   1.412968 A    
C31   O13   1.382475 S    
C60   H52   1.110686 S    
C13   C14   1.397548 A    
O3    C2    1.304215 A    
C56   H42   1.103941 S    
C47   H23   1.114005 S    
C35   C40   1.524092 S    
C49   C50   1.523991 S    
C38   H9    1.077254 S    
C34   C35   1.417923 A    
O6    C3    1.304700 A    
N1    C33   1.379818 A    
C36   O17   1.394024 S    
C39   H10   1.082385 S    
O1    C1    1.297908 A    
C44   H17   1.113844 S    
C58   H48   1.110331 S    
C22   C23   1.394474 A    
C63   H60   1.110691 S    
C44   H18   1.114534 S    
C29   C30   1.414517 A    
Cu2   O8    1.953933 S    
C22   O10   1.383378 S    
C43   H16   1.105964 S    
C32   N1    1.375550 A    
C54   H38   1.110609 S    
C7    C18   1.402793 A    
C48   H27   1.109750 S    
C49   H29   1.117048 S    
C26   C27   1.399491 A    
Cu2   N1    2.018715 S    
C57   C58   1.521545 S    
Cu2   O6    1.957634 S    
C5    C13   1.408331 A    
O8    C4    1.303896 A    
C31   C32   1.424326 A    
C46   O12   1.220866 D    
C10   C12   1.416963 A    
C37   N2    1.374144 A    
O17   C53   1.418723 S    
C58   H47   1.111420 S    
C28   O11   1.383699 S    
C50   H32   1.108986 S    
C33   C34   1.429639 A    
C57   H46   1.113483 S    
C63   H58   1.109913 S    
C56   H44   1.106340 S    
C42   H13   1.112306 S    
H1    C14   1.083154 S    
C62   H57   1.115263 S    
Cu1   O5    1.957965 S    
C28   C29   1.408530 A    
O1    Cu1   1.957636 S    
C6    C17   1.424540 A    
O2    Cu2   1.957966 S    
C47   C48   1.521716 S    
O4    Cu2   1.942295 S    
C61   H55   1.085835 S    
C55   C56   1.521188 S    
C32   O14   1.384472 S    
C19   O22   1.397436 S    
C53   C54   1.519735 S    
C42   C43   1.520114 S    
O2    C1    1.292165 A    
C14   C15   1.392529 A    
C58   H49   1.111349 S    
O20   C59   1.416450 S    
C3    C27   1.474422 S    
C61   O21   1.221289 D    
C45   H21   1.110626 S    
C5    C17   1.421079 A    
O4    C2    1.296522 A    
C1    C21   1.456511 S    
C59   C60   1.520873 S    
C25   C30   1.400458 A    
C55   H41   1.117945 S    
C54   H39   1.109630 S    
C45   H20   1.108128 S    
C49   H28   1.107771 S    
C44   C45   1.521011 S    
Cu1   Cu2   2.687253 S    
C41   H11   1.079066 S    
C17   C41   1.488456 S    
C27   C28   1.416313 A    
C2    C18   1.476926 S    
C9    C10   1.413702 A    
C59   H51   1.117931 S    
C46   H22   1.083907 S    
C11   C15   1.415039 A    
O22   C62   1.412280 S    
C43   H15   1.107148 S    
O18   C55   1.415601 S    
C48   H25   1.109414 S    
Cu1   N2    2.019028 S    
C8    C61   1.480207 S    
C31   C35   1.408451 A    
C57   H45   1.114405 S    
C9    H3    1.080327 S    
