data_mof_unit_26102.cif
_audit_creation_date              2012-12-11T14:13:03-0500
_audit_creation_method            fapswitch 2.2
_symmetry_space_group_name_H-M    P1
_symmetry_Int_Tables_number       1
_space_group_crystal_system       triclinic
_cell_length_a                    11.686527
_cell_length_b                    18.423462
_cell_length_c                    10.034501
_cell_angle_alpha                 91.187424
_cell_angle_beta                  111.382093
_cell_angle_gamma                 89.115053
_cell_volume                      2011.27988085

loop_
_atom_site_label
_atom_site_type_symbol
_atom_type_description
_atom_site_fract_x
_atom_site_fract_y
_atom_site_fract_z
_atom_type_partial_charge
C1    C     C_R   0.071369 0.647619 0.138303 0.564575
C2    C     C_R   0.928254 0.352676 0.861839 0.566268
C3    C     C_R   0.926222 0.145835 0.859179 0.590215
C4    C     C_R   0.074687 0.854478 0.141236 0.571697
C5    C     C_R   0.387531 0.453224 0.468910 0.020848
C6    C     C_R   0.592007 0.527212 0.454599 0.026199
C7    C     C_R   0.612389 0.954937 0.533107 0.025472
C8    C     C_R   0.396810 0.039426 0.483221 -0.044510
C9    C     C_2   0.369059 0.939196 0.982093 -0.112762
C10   C     C_2   0.590582 0.080306 0.094014 -0.120511
C11   C     C_2   0.635379 0.441951 0.993629 -0.100306
C12   C     C_2   0.408069 0.577809 0.898200 -0.071057
C13   C     C_2   0.459359 0.978136 0.074052 -0.157368
C14   C     C_2   0.479125 0.051797 0.036634 -0.154084
C15   C     C_2   0.543435 0.477723 0.893797 -0.138158
C16   C     C_2   0.521577 0.556129 0.910536 -0.122875
C17   C     C_2   0.016688 0.925154 0.116958 -0.083281
C18   C     C_2   0.989376 0.076560 0.885850 -0.091574
C19   C     C_2   0.997643 0.418702 0.898018 -0.063759
C20   C     C_2   0.002873 0.581454 0.103839 -0.074544
C21   C     C_2   0.028803 0.964786 0.013396 -0.173041
C22   C     C_2   0.988391 0.039081 0.997541 -0.163487
C23   C     C_2   0.969031 0.466006 0.982841 -0.152698
C24   C     C_2   0.035304 0.532713 0.024546 -0.134286
C25   C     C_R   0.468948 0.644282 0.435530 0.565898
C26   C     C_R   0.526575 0.349448 0.552063 0.558565
C27   C     C_R   0.531457 0.145910 0.557986 0.541008
C28   C     C_R   0.470274 0.852711 0.444820 0.559178
C29   C     C_R   0.378215 0.646440 0.957426 0.580777
C30   C     C_R   0.648204 0.362081 0.988044 0.560007
C31   C     C_R   0.623278 0.145870 0.038168 0.561304
C32   C     C_R   0.353322 0.863065 0.007001 0.559704
C33   C     C_R   0.491235 0.415011 0.466400 0.037118
C34   C     C_R   0.494057 0.567169 0.479773 -0.010675
C35   C     C_R   0.501841 0.922472 0.525333 0.030929
C36   C     C_R   0.506439 0.072743 0.489145 -0.053045
C37   C     C_R   0.278311 0.416574 0.457792 0.002720
C38   C     C_R   0.680704 0.558910 0.407466 -0.011569
C39   C     C_R   0.723121 0.913711 0.563810 0.022895
C40   C     C_R   0.283739 0.078380 0.446641 0.016860
C41   C     C_R   0.204249 0.446894 0.528412 0.031174
C42   C     C_R   0.791558 0.522282 0.431858 -0.001204
C43   C     C_R   0.815218 0.939805 0.517750 -0.000459
C44   C     C_R   0.194043 0.053046 0.498410 0.053049
C45   C     C_R   0.224429 0.518865 0.578518 -0.059759
C46   C     C_R   0.783064 0.447134 0.409067 -0.046779
C47   C     C_R   0.801858 0.009049 0.459029 -0.092567
C48   C     C_R   0.213288 0.986582 0.569102 -0.096742
C49   C     C_R   0.317065 0.559595 0.560833 -0.114670
C50   C     C_R   0.675420 0.412891 0.400830 -0.067918
C51   C     C_R   0.704302 0.054285 0.455576 -0.111604
C52   C     C_R   0.311948 0.941815 0.574420 -0.090720
C53   C     C_R   0.399671 0.527695 0.503325 -0.029185
C54   C     C_R   0.585869 0.451214 0.441213 0.014382
C55   C     C_R   0.608618 0.028368 0.494584 -0.019093
C56   C     C_R   0.403104 0.967087 0.527094 -0.011877
Cr1   Cr    Cr6+3 0.187610 0.750000 0.979860 1.010520
Cr2   Cr    Cr6+3 0.812390 0.250000 0.020140 1.038916
Cr3   Cr    Cr6+3 0.245810 0.750000 0.341640 1.052686
Cr4   Cr    Cr6+3 0.754190 0.250000 0.658360 1.041475
Cr5   Cr    Cr6+3 0.485760 0.750000 0.219910 1.033778
Cr6   Cr    Cr6+3 0.514240 0.250000 0.780090 1.052542
H1    H     H_    0.168432 0.544009 0.632401 0.173355
H2    H     H_    0.854187 0.416103 0.388159 0.186467
H3    H     H_    0.868131 0.028720 0.416973 0.160801
H4    H     H_    0.149090 0.967995 0.615666 0.162544
H5    H     H_    0.329678 0.614089 0.605285 0.140856
H6    H     H_    0.664350 0.356401 0.366958 0.152950
H7    H     H_    0.699541 0.107627 0.410706 0.146630
H8    H     H_    0.320352 0.889036 0.622849 0.157397
H9    H     H_    0.406691 0.079348 0.951273 0.167351
H10   H     H_    0.524291 0.953738 0.170373 0.164363
H11   H     H_    0.598949 0.592327 0.956991 0.129369
H12   H     H_    0.474205 0.447535 0.808963 0.157217
H13   H     H_    0.663676 0.050441 0.173530 0.106685
H14   H     H_    0.304568 0.964213 0.886306 0.105659
H15   H     H_    0.333726 0.539129 0.858375 0.106074
H16   H     H_    0.702697 0.472031 0.080566 0.111743
H17   H     H_    0.950457 0.061698 0.073867 0.166695
H18   H     H_    0.072206 0.943062 0.941546 0.151797
H19   H     H_    0.111994 0.542373 0.990033 0.160726
H20   H     H_    0.894484 0.455664 0.020410 0.141061
O1    O     O_R   0.267710 0.668200 0.902110 -0.529827
O2    O     O_R   0.732290 0.331800 0.097890 -0.527016
O3    O     O_R   0.732290 0.168200 0.097890 -0.524828
O4    O     O_R   0.267710 0.831800 0.902110 -0.531617
O5    O     O_R   0.099480 0.674460 0.038850 -0.503348
O6    O     O_R   0.900520 0.325540 0.961150 -0.515583
O7    O     O_R   0.900520 0.174460 0.961150 -0.493959
O8    O     O_R   0.099480 0.825540 0.038850 -0.526241
O9    O     O_R   0.116720 0.669210 0.267660 -0.484969
O10   O     O_R   0.883280 0.330790 0.732340 -0.480650
O11   O     O_R   0.883280 0.169210 0.732340 -0.468881
O12   O     O_R   0.116720 0.830790 0.267660 -0.470065
O13   O     O_R   0.366710 0.675440 0.427590 -0.499713
O14   O     O_R   0.633290 0.324560 0.572410 -0.522879
O15   O     O_R   0.633290 0.175440 0.572410 -0.507187
O16   O     O_R   0.366710 0.824560 0.427590 -0.506413
O17   O     O_R   0.534870 0.669390 0.371760 -0.514235
O18   O     O_R   0.465130 0.330610 0.628240 -0.528896
O19   O     O_R   0.465130 0.169390 0.628240 -0.487764
O20   O     O_R   0.534870 0.830610 0.371760 -0.531445
O21   O     O_R   0.453080 0.674480 0.075160 -0.460187
O22   O     O_R   0.546920 0.325520 0.924840 -0.482603
O23   O     O_R   0.546920 0.174480 0.924840 -0.483978
O24   O     O_R   0.453080 0.825520 0.075160 -0.485079
O25   O     O_3   0.306390 0.750000 0.180470 -0.276625
O26   O     O_3   0.693610 0.250000 0.819530 -0.288116
C57   C     C_2   0.112701 0.402746 0.560364 0.220123
H21   H     H_    0.107962 0.344492 0.542879 0.104079
O27   O     O_2   0.043043 0.430931 0.611839 -0.529189
C58   C     C_2   0.896851 0.563224 0.425495 0.206311
H22   H     H_    0.904292 0.620926 0.450933 0.098826
O28   O     O_2   0.973421 0.533736 0.386465 -0.523121
C59   C     C_2   0.924019 0.895158 0.526354 0.183174
H23   H     H_    0.964293 0.857354 0.612687 0.093645
O29   O     O_2   0.969214 0.899563 0.434788 -0.533145
C60   C     C_2   0.082215 0.095230 0.485070 0.246155
H24   H     H_    0.023905 0.117093 0.383057 0.147875
O30   O     O_2   0.053444 0.105537 0.589194 -0.538653
C61   C     C_2   0.237996 0.350334 0.364770 0.263876
H25   H     H_    0.152518 0.324015 0.352241 0.134716
O31   O     O_2   0.295960 0.326720 0.293469 -0.490433
C62   C     C_2   0.630066 0.575287 0.254334 0.279355
H26   H     H_    0.678601 0.609904 0.206689 0.073160
O32   O     O_2   0.533938 0.546621 0.180396 -0.502490
C63   C     C_2   0.741243 0.843798 0.641707 0.229656
H27   H     H_    0.800084 0.801316 0.625223 0.087621
O33   O     O_2   0.690991 0.833311 0.726997 -0.509896
C64   C     C_2   0.263291 0.142849 0.352259 0.241742
H28   H     H_    0.328429 0.154469 0.301441 0.128245
O34   O     O_2   0.174710 0.183202 0.328273 -0.536193
H29   H     H_    0.021978 0.052086 0.806727 0.151626
H30   H     H_    0.978065 0.948183 0.192084 0.149295
H31   H     H_    0.928097 0.572487 0.141009 0.129345
H32   H     H_    0.070463 0.428953 0.858565 0.162063

loop_
_geom_bond_atom_site_label_1
_geom_bond_atom_site_label_2
_ccdc_geom_bond_type
C1    O5    A    
C44   C48   A    
C31   O3    A    
C23   H20   S    
C5    C37   A    
C12   C29   S    
C14   H9    S    
C19   C23   D    
C7    C55   A    
C6    C34   A    
C8    C56   A    
C58   O28   D    
Cr6   O23   S    
C50   C54   A    
C18   H29   S    
C5    C53   A    
Cr5   O21   S    
C22   H17   S    
C38   C42   A    
C57   O27   D    
C42   C46   A    
Cr6   O26   S    
C15   C16   S    
Cr1   O4    S    
C29   O21   A    
C3    C18   S    
C8    C36   A    
C42   C58   S    
C60   H24   S    
C9    C13   D    
C9    C32   S    
C43   C59   S    
C11   C15   D    
C10   C31   S    
C25   O17   A    
C20   C24   D    
C11   C30   S    
C59   O29   D    
C5    C33   A    
C23   C24   S    
C6    C38   A    
C2    O6    A    
Cr3   O12   S    
C44   C60   S    
C40   C44   A    
Cr6   O22   S    
Cr4   O26   S    
C25   C34   S    
Cr6   O19   S    
Cr4   O11   S    
C35   C56   A    
C1    O9    A    
C41   C57   S    
C21   C22   S    
C37   C41   A    
C31   O23   A    
Cr5   O17   S    
Cr3   O13   S    
C6    C54   A    
C50   H6    S    
C58   H22   S    
C4    O8    A    
Cr4   O10   S    
C26   O14   A    
Cr2   O26   S    
C39   C63   S    
Cr1   O8    S    
C16   H11   S    
C12   C16   D    
C28   C35   S    
Cr4   O15   S    
C10   C14   D    
C39   C43   A    
C19   H32   S    
C27   O19   A    
Cr3   O25   S    
Cr1   O5    S    
C46   H2    S    
C64   O34   D    
C24   H19   S    
C63   O33   D    
C11   H16   S    
Cr2   O2    S    
C10   H13   S    
C26   C33   S    
C45   C49   A    
C32   O4    A    
C12   H15   S    
Cr1   O1    S    
Cr6   O18   S    
C3    O11   A    
Cr3   O9    S    
C2    O10   A    
Cr5   O24   S    
C61   H25   S    
C37   C61   S    
C4    C17   S    
Cr4   O14   S    
C9    H14   S    
C25   O13   A    
C4    O12   A    
C63   H27   S    
Cr2   O3    S    
C62   O32   D    
C28   O16   A    
C33   C54   A    
C40   C64   S    
C27   O15   A    
C1    C20   S    
C7    C39   A    
C49   H5    S    
Cr1   O25   S    
C2    C19   S    
C18   C22   D    
C7    C35   A    
Cr2   O6    S    
C47   C51   A    
C29   O1    A    
C13   H10   S    
C27   C36   S    
C8    C40   A    
C46   C50   A    
C3    O7    A    
Cr5   O20   S    
C36   C55   A    
C57   H21   S    
C52   C56   A    
C49   C53   A    
C21   H18   S    
C45   H1    S    
C64   H28   S    
C51   C55   A    
C20   H31   S    
C30   O2    A    
Cr5   O25   S    
Cr2   O7    S    
C60   O30   D    
C61   O31   D    
C52   H8    S    
C28   O20   A    
C48   C52   A    
C15   H12   S    
C34   C53   A    
C30   O22   A    
C17   H30   S    
Cr3   O16   S    
C41   C45   A    
C32   O24   A    
C51   H7    S    
C48   H4    S    
C13   C14   S    
C43   C47   A    
C47   H3    S    
C38   C62   S    
C59   H23   S    
C26   O18   A    
C62   H26   S    
C17   C21   D    
