data_mof_unit_63682.cif
_audit_creation_date              2012-12-10T21:33:25-0500
_audit_creation_method            fapswitch 2.2
_symmetry_space_group_name_H-M    P1
_symmetry_Int_Tables_number       1
_space_group_crystal_system       triclinic
_cell_length_a                    14.101984
_cell_length_b                    16.333855
_cell_length_c                    16.937929
_cell_angle_alpha                 87.149748
_cell_angle_beta                  92.950414
_cell_angle_gamma                 92.071684
_cell_volume                      3889.27953731

loop_
_atom_site_label
_atom_site_type_symbol
_atom_type_description
_atom_site_fract_x
_atom_site_fract_y
_atom_site_fract_z
_atom_type_partial_charge
C1    C     C_R   0.495397 0.488456 0.652342 0.954436
C2    C     C_R   0.504567 0.511545 0.347654 0.947546
C3    C     C_R   0.457979 0.404293 0.861517 0.110774
C4    C     C_R   0.540843 0.595915 0.138387 0.107289
C5    C     C_R   0.445730 0.411967 0.778306 0.363896
C6    C     C_R   0.553509 0.588192 0.221569 0.371151
C7    C     C_R   0.438603 0.765381 0.474602 0.484484
C8    C     C_R   0.560992 0.234786 0.526188 0.416390
C9    C     C_R   0.444379 0.851882 0.477176 -0.284365
C10   C     C_R   0.556302 0.148385 0.522737 -0.305279
C11   C     C_R   0.522769 0.892230 0.512930 0.186092
C12   C     C_R   0.478983 0.107909 0.485564 0.205880
C13   C     C_R   0.593908 0.844195 0.547088 -0.289945
C14   C     C_R   0.407959 0.155752 0.450879 -0.300002
C15   C     C_R   0.588314 0.757879 0.546381 0.481207
C16   C     C_R   0.412602 0.242089 0.452412 0.491415
C17   C     C_R   0.670617 0.499838 0.500334 0.934270
C18   C     C_R   0.329388 0.500207 0.499667 0.927839
C19   C     C_1   0.772101 0.499749 0.500239 0.017747
C20   C     C_1   0.227921 0.500568 0.499716 -0.036343
C21   C     C_1   0.857439 0.499920 0.500137 0.080240
C22   C     C_1   0.142592 0.500656 0.499782 0.041573
C23   C     C_1   0.957344 0.500223 0.500000 0.065794
C24   C     C_1   0.042694 0.500475 0.499887 0.061208
C25   C     C_R   0.491080 0.480173 0.738193 -0.204892
C26   C     C_R   0.508560 0.519852 0.261784 -0.207089
C27   C     C_R   0.536801 0.542382 0.781026 -0.225551
C28   C     C_R   0.462785 0.457597 0.219044 -0.236865
C29   C     C_R   0.540656 0.537696 0.862152 -0.163378
C30   C     C_R   0.458496 0.462363 0.137917 -0.164315
C31   C     C_R   0.500552 0.469349 0.902835 0.200344
C32   C     C_R   0.498243 0.530816 0.097145 0.199596
H1    H     H_    0.429975 0.404316 0.248167 0.241778
H2    H     H_    0.569908 0.595562 0.751975 0.240366
H3    H     H_    0.422883 0.412714 0.106785 0.202232
H4    H     H_    0.576268 0.587295 0.893357 0.201190
H5    H     H_    0.613452 0.112374 0.549314 0.223154
H6    H     H_    0.387062 0.888151 0.451358 0.227453
H7    H     H_    0.655509 0.875453 0.573845 0.236984
H8    H     H_    0.347065 0.124259 0.423252 0.226092
N1    N     N_2   0.500224 0.465629 0.985921 -0.139909
N2    N     N_2   0.498405 0.534529 0.014049 -0.139544
N3    N     N_R   0.510540 0.716920 0.509720 -0.198073
N4    N     N_R   0.489460 0.283080 0.490280 -0.189530
N5    N     N_2   0.533621 0.979940 0.516411 -0.114342
N6    N     N_2   0.468487 0.020210 0.481903 -0.114527
O1    O     O_R   0.496230 0.422540 0.612660 -0.527491
O2    O     O_R   0.503770 0.577460 0.387340 -0.516601
O3    O     O_R   0.503000 0.561840 0.618900 -0.606647
O4    O     O_R   0.497000 0.438160 0.381100 -0.612847
O5    O     O_R   0.622900 0.430330 0.496880 -0.566968
O6    O     O_R   0.377100 0.569670 0.503120 -0.569226
O7    O     O_R   0.629670 0.569640 0.503120 -0.524953
O8    O     O_R   0.370330 0.430360 0.496880 -0.513749
Zn1   Zn    Zn3+2 0.495480 0.406980 0.495830 1.128079
Zn2   Zn    Zn3+2 0.504520 0.593020 0.504170 1.129964
I1    I     I_    0.418854 0.295387 0.929298 -0.103679
I2    I     I_    0.579414 0.704934 0.070548 -0.108318
S1    S     S_3+6 0.367455 0.342074 0.726796 0.081758
O9    O     O_2   0.319518 0.384969 0.655937 -0.304849
O10   O     O_2   0.424003 0.273131 0.700184 -0.244667
O11   O     O_3   0.281339 0.303317 0.784215 -0.498611
H9    H     H_    0.246250 0.262043 0.752023 0.402173
S2    S     S_3+6 0.631774 0.658246 0.272892 0.077058
O12   O     O_2   0.575126 0.727079 0.299604 -0.246401
O13   O     O_2   0.680056 0.615493 0.343674 -0.316852
O14   O     O_3   0.717588 0.697149 0.215238 -0.500316
H10   H     H_    0.752563 0.738620 0.247271 0.400960
S3    S     S_3+6 0.665941 0.273444 0.576561 0.088792
O15   O     O_2   0.646277 0.340427 0.630119 -0.226984
O16   O     O_2   0.712230 0.206155 0.626896 -0.262566
O17   O     O_3   0.743602 0.308134 0.509575 -0.549687
H11   H     H_    0.755110 0.260129 0.478303 0.354774
S4    S     S_3+6 0.331357 0.726931 0.427388 0.082055
O18   O     O_2   0.265790 0.695252 0.489993 -0.302584
O19   O     O_2   0.282756 0.795004 0.379906 -0.265523
O20   O     O_3   0.349184 0.653228 0.364817 -0.517188
H12   H     H_    0.284824 0.631741 0.348839 0.368845
S5    S     S_3+6 0.691258 0.710629 0.590135 0.056413
O21   O     O_2   0.668566 0.633444 0.637856 -0.319692
O22   O     O_2   0.755824 0.692765 0.525673 -0.268226
O23   O     O_3   0.750222 0.775333 0.651170 -0.547862
H13   H     H_    0.810103 0.747950 0.667612 0.400199
S6    S     S_3+6 0.309173 0.289349 0.409335 0.059378
O24   O     O_2   0.331143 0.367181 0.362387 -0.322265
O25   O     O_2   0.256317 0.231812 0.354600 -0.290702
O26   O     O_3   0.237623 0.308057 0.482339 -0.507686
H14   H     H_    0.176099 0.322225 0.455147 0.378217

loop_
_geom_bond_atom_site_label_1
_geom_bond_atom_site_label_2
_ccdc_geom_bond_type
O26   H14   S    
C27   C29   A    
N1    N2    D    
S6    O26   S    
C17   O5    A    
C18   O6    A    
O20   H12   S    
C29   H4    S    
C8    S3    S    
S4    O19   D    
C30   H3    S    
C10   H5    S    
C22   C24   S    
C19   C21   T    
S6    O25   D    
C16   S6    S    
C7    C9    A    
C6    S2    S    
S3    O16   D    
C2    O4    A    
C15   S5    S    
S4    O20   S    
C23   C24   T    
C7    N3    A    
C16   N4    A    
O5    Zn1   S    
S1    O9    D    
C27   H2    S    
C1    C25   S    
C7    S4    S    
C21   C23   S    
S1    O10   D    
S4    O18   D    
C5    S1    S    
O14   H10   S    
S2    O14   S    
S6    O24   D    
C4    C6    A    
S5    O22   D    
C1    O1    A    
C2    O2    A    
N5    N6    D    
S2    O13   D    
S3    O17   S    
O11   H9    S    
C2    C26   S    
C3    C31   A    
C9    C11   A    
C4    C32   A    
C10   C12   A    
C5    C25   A    
C3    I1    S    
C12   N6    S    
C12   C14   A    
C28   H1    S    
C13   C15   A    
C14   C16   A    
C11   N5    S    
C17   O7    A    
O1    Zn1   S    
O7    Zn2   S    
O2    Zn2   S    
O8    Zn1   S    
S1    O11   S    
C31   N1    S    
C8    N4    A    
C20   C22   T    
O17   H11   S    
C3    C5    A    
S5    O23   S    
C25   C27   A    
O3    Zn2   S    
C26   C28   A    
O4    Zn1   S    
S2    O12   D    
C28   C30   A    
C15   N3    A    
C29   C31   A    
C30   C32   A    
C11   C13   A    
N4    Zn1   S    
C6    C26   A    
C9    H6    S    
C17   C19   S    
C18   C20   S    
S3    O15   D    
C13   H7    S    
C18   O8    A    
C14   H8    S    
S5    O21   D    
N3    Zn2   S    
C8    C10   A    
O23   H13   S    
C4    I2    S    
C32   N2    S    
C1    O3    A    
O6    Zn2   S    
