data_mof_unit_5835.cif
_audit_creation_date              2012-10-26T19:40:06-0400
_audit_creation_method            fapswitch 2.2
_symmetry_space_group_name_H-M    P1
_symmetry_Int_Tables_number       1
_space_group_crystal_system       triclinic
_cell_length_a                    15.042389
_cell_length_b                    8.686003
_cell_length_c                    7.447586
_cell_angle_alpha                 102.860039
_cell_angle_beta                  94.54756
_cell_angle_gamma                 92.544497
_cell_volume                      943.764533444

loop_
_atom_site_label
_atom_site_type_symbol
_atom_type_description
_atom_site_fract_x
_atom_site_fract_y
_atom_site_fract_z
_atom_type_partial_charge
C1    C     C_R   0.497293 0.199730 0.453305 0.551168
C2    C     C_R   0.177796 0.442591 0.336538 -0.138318
C3    C     C_R   0.768103 0.503382 0.496792 -0.011562
C4    C     C_R   0.231897 0.496618 0.503208 -0.011562
C5    C     C_R   0.806642 0.449670 0.330852 -0.141676
C6    C     C_R   0.193358 0.550330 0.669147 -0.141676
C7    C     C_R   0.899210 0.447157 0.331089 0.008165
C8    C     C_R   0.100790 0.552843 0.668911 0.008165
C9    C     C_R   0.953458 0.501121 0.499199 0.063171
C10   C     C_R   0.046542 0.498879 0.500801 0.063171
C11   C     C_R   0.914706 0.557224 0.665765 0.007203
C12   C     C_R   0.502707 0.800269 0.546695 0.551168
C13   C     C_R   0.085294 0.442776 0.334235 0.007203
C14   C     C_R   0.938404 0.390665 0.166566 -0.138618
C15   C     C_R   0.061596 0.609335 0.833434 -0.138618
C16   C     C_R   0.031026 0.388295 0.168188 -0.137440
C17   C     C_R   0.968974 0.611705 0.831812 -0.137441
C18   C     C_2   0.495990 0.031896 0.426968 -0.155207
C19   C     C_2   0.504010 0.968104 0.573032 -0.155207
C20   C     C_R   0.328699 0.498692 0.501556 0.549425
C21   C     C_R   0.671301 0.501308 0.498444 0.549425
C22   C     C_R   0.822203 0.557409 0.663462 -0.138318
Cu1   Cu    Cu3+1 0.510010 0.517380 0.684380 0.952899
Cu2   Cu    Cu3+1 0.489990 0.482620 0.315620 0.952899
H1    H     H_    0.792400 0.600122 0.791746 0.126816
H2    H     H_    0.511576 0.039540 0.713872 0.133972
H3    H     H_    0.429968 0.377651 0.948208 0.237925
H4    H     H_    0.570032 0.622349 0.051792 0.237926
H5    H     H_    0.207600 0.399878 0.208254 0.126816
H6    H     H_    0.764688 0.407532 0.202325 0.129479
H7    H     H_    0.235312 0.592468 0.797674 0.129479
H8    H     H_    0.897486 0.348670 0.036799 0.118759
H9    H     H_    0.102514 0.651330 0.963200 0.118759
H10   H     H_    0.060235 0.344383 0.039620 0.120741
H11   H     H_    0.939765 0.655617 0.960380 0.120741
H12   H     H_    0.488424 0.960460 0.286127 0.133972
N1    N     N_2   0.474890 0.456420 0.038520 -0.259352
N2    N     N_2   0.525110 0.543580 0.961480 -0.259352
O1    O     O_R   0.506510 0.286130 0.619770 -0.503980
O2    O     O_R   0.493490 0.713870 0.380230 -0.503979
O3    O     O_R   0.489600 0.256770 0.308360 -0.498558
O4    O     O_R   0.510400 0.743230 0.691640 -0.498558
O5    O     O_R   0.378710 0.514640 0.655720 -0.509199
O6    O     O_R   0.621290 0.485360 0.344280 -0.509199
O7    O     O_R   0.361800 0.485290 0.344300 -0.505814
O8    O     O_R   0.638200 0.514710 0.655700 -0.505814

loop_
_geom_bond_atom_site_label_1
_geom_bond_atom_site_label_2
_ccdc_geom_bond_type
C12   O2    A    
C2    C4    A    
Cu1   Cu2   S    
C8    C10   A    
C15   C17   A    
N1    N2    D    
C21   O8    A    
C21   O6    A    
C9    C10   A    
C11   C22   A    
C20   O7    A    
H4    N2    S    
C6    H7    S    
Cu1   O8    S    
C10   C13   A    
Cu2   O3    S    
C9    C11   A    
C1    C18   S    
Cu1   O4    S    
H3    N1    S    
C2    H5    S    
Cu1   O1    S    
Cu2   O7    S    
C12   C19   S    
C4    C6    A    
Cu2   O2    S    
Cu2   N1    S    
C8    C15   A    
Cu2   O6    S    
C14   C16   A    
C3    C21   S    
C1    O1    A    
C12   O4    A    
Cu1   N2    S    
C20   O5    A    
Cu1   O5    S    
C19   H2    S    
C7    C9    A    
C18   C19   D    
C5    H6    S    
C13   C16   A    
C1    O3    A    
C5    C7    A    
C2    C13   A    
C11   C17   A    
C3    C22   A    
C6    C8    A    
C17   H11   S    
C16   H10   S    
C18   H12   S    
C15   H9    S    
C7    C14   A    
C14   H8    S    
C3    C5    A    
C22   H1    S    
C4    C20   S    
