data_mof_unit_52352.cif
_audit_creation_date              2013-03-05T15:56:28-0500
_audit_creation_method            fapswitch 2.2
_symmetry_space_group_name_H-M    P1
_symmetry_Int_Tables_number       1
_space_group_crystal_system       triclinic
_cell_length_a                    24.340747
_cell_length_b                    24.215401
_cell_length_c                    25.656231
_cell_angle_alpha                 89.743232
_cell_angle_beta                  89.931474
_cell_angle_gamma                 89.991229
_cell_volume                      15122.1571962

loop_
_atom_site_label
_atom_site_type_symbol
_atom_site_description
_atom_site_fract_x
_atom_site_fract_y
_atom_site_fract_z
_atom_type_partial_charge
C1    C     C_R   0.630490 0.435043 0.412203 -0.039025
C2    C     C_R   0.373653 0.560667 0.592428 -0.022839
C3    C     C_R   0.434902 0.368515 0.413339 -0.051476
C4    C     C_R   0.568233 0.632514 0.584877 -0.055286
C5    C     C_R   0.369525 0.565226 0.412271 -0.048002
C6    C     C_R   0.627257 0.436143 0.591179 -0.026987
C7    C     C_R   0.565061 0.630942 0.412307 -0.047721
C8    C     C_R   0.427275 0.361723 0.574004 -0.063579
C9    C     C_R   0.632472 0.566975 0.584929 -0.034228
C10   C     C_R   0.369963 0.433399 0.411880 0.033838
C11   C     C_R   0.438353 0.626031 0.592521 -0.013773
C12   C     C_R   0.565593 0.370053 0.411659 -0.000828
C13   C     C_R   0.362856 0.426620 0.575997 0.008843
C14   C     C_R   0.630108 0.566096 0.411902 -0.004283
C15   C     C_R   0.560567 0.372602 0.591744 -0.009474
C16   C     C_R   0.434290 0.630424 0.411882 0.001380
C17   C     C_R   0.137433 0.926071 0.924991 -0.038798
C18   C     C_R   0.861697 0.072411 0.072636 -0.018674
C19   C     C_R   0.926559 0.862615 0.924482 -0.037912
C20   C     C_R   0.072862 0.139071 0.071155 -0.038690
C21   C     C_R   0.862159 0.074389 0.925972 -0.041920
C22   C     C_R   0.137759 0.928143 0.073986 -0.013652
C23   C     C_R   0.058684 0.124953 0.906306 -0.039412
C24   C     C_R   0.927659 0.861257 0.072487 -0.018567
C25   C     C_R   0.137820 0.074659 0.073559 -0.024228
C26   C     C_R   0.862077 0.927740 0.926417 -0.015055
C27   C     C_R   0.925874 0.137635 0.074796 -0.047196
C28   C     C_R   0.072063 0.861944 0.925748 -0.012096
C29   C     C_R   0.862494 0.925461 0.074620 -0.049027
C30   C     C_R   0.124914 0.060858 0.906302 0.016099
C31   C     C_R   0.073655 0.862673 0.076026 -0.046607
C32   C     C_R   0.926598 0.139034 0.928691 -0.056175
H1    H     H_    0.668605 0.456483 0.405450 0.122965
H2    H     H_    0.338004 0.536091 0.601919 0.137910
H3    H     H_    0.456557 0.330316 0.407225 0.121488
H4    H     H_    0.547844 0.671445 0.591028 0.122268
H5    H     H_    0.331592 0.543572 0.405407 0.120593
H6    H     H_    0.664839 0.457584 0.599926 0.120146
H7    H     H_    0.543523 0.669126 0.405477 0.121208
H8    H     H_    0.445626 0.321337 0.569832 0.136046
H9    H     H_    0.670681 0.545484 0.591127 0.120899
H10   H     H_    0.332105 0.454722 0.403645 0.125347
H11   H     H_    0.461552 0.662261 0.602363 0.134970
H12   H     H_    0.544211 0.332074 0.403890 0.125492
H13   H     H_    0.322907 0.446050 0.575985 0.135356
H14   H     H_    0.668109 0.544829 0.404310 0.128514
H15   H     H_    0.535453 0.337216 0.601279 0.142984
H16   H     H_    0.455583 0.668591 0.404281 0.126521
H17   H     H_    0.177338 0.945547 0.925023 0.152776
H18   H     H_    0.822267 0.052717 0.067738 0.166820
H19   H     H_    0.946921 0.823018 0.923393 0.162833
H20   H     H_    0.053285 0.178716 0.065771 0.149449
H21   H     H_    0.822827 0.053828 0.925256 0.165037
H22   H     H_    0.177277 0.947891 0.069565 0.162619
H23   H     H_    0.031330 0.157982 0.895249 0.167545
H24   H     H_    0.947383 0.821718 0.067370 0.164115
H25   H     H_    0.177370 0.054473 0.074068 0.162998
H26   H     H_    0.822406 0.947327 0.930261 0.163586
H27   H     H_    0.946180 0.177246 0.075710 0.167279
H28   H     H_    0.052278 0.822073 0.928473 0.158429
H29   H     H_    0.823007 0.945725 0.075402 0.168791
H30   H     H_    0.160082 0.036093 0.895810 0.136976
H31   H     H_    0.053589 0.822919 0.077176 0.167145
H32   H     H_    0.945514 0.178896 0.934329 0.170470
N1    N     N_R   0.592620 0.447430 0.448130 -0.063598
N2    N     N_R   0.407380 0.552570 0.551870 -0.069634
N3    N     N_R   0.447430 0.407380 0.448130 -0.066860
N4    N     N_R   0.552570 0.592620 0.551870 -0.062239
N5    N     N_R   0.407380 0.552570 0.448130 -0.064152
N6    N     N_R   0.592620 0.447430 0.551870 -0.065699
N7    N     N_R   0.552570 0.592620 0.448130 -0.064031
N8    N     N_R   0.447430 0.407380 0.551870 -0.065060
N9    N     N_R   0.592620 0.552570 0.551870 -0.063455
N10   N     N_R   0.407380 0.447430 0.448130 -0.066486
N11   N     N_R   0.447430 0.592620 0.551870 -0.066649
N12   N     N_R   0.552570 0.407380 0.448130 -0.066639
N13   N     N_R   0.407380 0.447430 0.551870 -0.065829
N14   N     N_R   0.592620 0.552570 0.448130 -0.067429
N15   N     N_R   0.552570 0.407380 0.551870 -0.068407
N16   N     N_R   0.447430 0.592620 0.448130 -0.066245
N17   N     N_R   0.092620 0.947430 0.948130 -0.070112
N18   N     N_R   0.907380 0.052570 0.051870 -0.072411
N19   N     N_R   0.947430 0.907380 0.948130 -0.068869
N20   N     N_R   0.052570 0.092620 0.051870 -0.066912
N21   N     N_R   0.907380 0.052570 0.948130 -0.067146
N22   N     N_R   0.092620 0.947430 0.051870 -0.073545
N23   N     N_R   0.052570 0.092620 0.948130 -0.072895
N24   N     N_R   0.947430 0.907380 0.051870 -0.072751
N25   N     N_R   0.092620 0.052570 0.051870 -0.068063
N26   N     N_R   0.907380 0.947430 0.948130 -0.070830
N27   N     N_R   0.947430 0.092620 0.051870 -0.068534
N28   N     N_R   0.052570 0.907380 0.948130 -0.069381
N29   N     N_R   0.907380 0.947430 0.051870 -0.069834
N30   N     N_R   0.092620 0.052570 0.948130 -0.068498
N31   N     N_R   0.052570 0.907380 0.051870 -0.070946
N32   N     N_R   0.947430 0.092620 0.948130 -0.072279
C33   C     C_R   0.264865 0.241885 0.634145 -0.331424
C34   C     C_R   0.683088 0.673213 0.246673 -0.343827
C35   C     C_R   0.331408 0.669113 0.762486 -0.367101
C36   C     C_R   0.673560 0.317097 0.247341 -0.375057
C37   C     C_R   0.681242 0.678282 0.749156 -0.370859
C38   C     C_R   0.323616 0.319028 0.247617 -0.340936
C39   C     C_R   0.676166 0.327876 0.757601 -0.377014
C40   C     C_R   0.328035 0.686137 0.247934 -0.347880
C41   C     C_R   0.768266 0.734303 0.125026 -0.325705
C42   C     C_R   0.158585 0.169486 0.732486 -0.360913
C43   C     C_R   0.735988 0.231776 0.126813 -0.315765
C44   C     C_R   0.230730 0.737993 0.867243 -0.352463
C45   C     C_R   0.236843 0.260361 0.126716 -0.336960
C46   C     C_R   0.739908 0.767665 0.867785 -0.319740
C47   C     C_R   0.265400 0.772021 0.127671 -0.337547
C48   C     C_R   0.765803 0.264205 0.874808 -0.326963
C49   C     C_1   0.223564 0.210795 0.660966 0.323319
C50   C     C_1   0.708257 0.690626 0.198958 0.310637
C51   C     C_1   0.301273 0.688272 0.806673 0.336684
C52   C     C_1   0.691564 0.291943 0.199943 0.316496
C53   C     C_1   0.698488 0.703993 0.796259 0.321909
C54   C     C_1   0.298963 0.301404 0.199948 0.310942
C55   C     C_1   0.702506 0.309563 0.804397 0.322088
C56   C     C_1   0.310317 0.711881 0.200670 0.312338
C57   C     C_1   0.732926 0.707963 0.161973 0.289596
C58   C     C_1   0.191649 0.189468 0.690290 0.328747
C59   C     C_1   0.709319 0.267212 0.163299 0.289573
C60   C     C_1   0.270796 0.708229 0.837977 0.316695
C61   C     C_1   0.273660 0.284827 0.163232 0.308200
C62   C     C_1   0.714952 0.730402 0.832197 0.300656
C63   C     C_1   0.292540 0.736705 0.164005 0.277480
C64   C     C_1   0.728881 0.291453 0.839926 0.304231
C65   C     C_R   0.335290 0.328452 0.605687 -0.309095
C66   C     C_R   0.635270 0.637754 0.339890 -0.305847
C67   C     C_R   0.372220 0.627301 0.668855 -0.330356
C68   C     C_R   0.636971 0.364839 0.339902 -0.323478
C69   C     C_R   0.639846 0.637111 0.655995 -0.349381
C70   C     C_R   0.366853 0.360648 0.340198 -0.306241
C71   C     C_R   0.628820 0.367076 0.665625 -0.337155
C72   C     C_R   0.363136 0.636504 0.340323 -0.310141
C73   C     C_R   0.835919 0.824591 0.101471 -0.245828
C74   C     C_R   0.121826 0.127639 0.828031 -0.304762
C75   C     C_R   0.825843 0.164257 0.102549 -0.251405
C76   C     C_R   0.163744 0.827620 0.894133 -0.270249
C77   C     C_R   0.165404 0.175073 0.098557 -0.288299
C78   C     C_R   0.827784 0.835969 0.895009 -0.256670
C79   C     C_R   0.173304 0.836997 0.105332 -0.252097
C80   C     C_R   0.834554 0.174920 0.899365 -0.246548
Ni1   Ni    Ni4+2 0.591800 0.500000 0.500000 0.288462
Ni2   Ni    Ni4+2 0.408200 0.500000 0.500000 0.289481
Ni3   Ni    Ni4+2 0.500000 0.408200 0.500000 0.276226
Ni4   Ni    Ni4+2 0.500000 0.591800 0.500000 0.288644
Ni5   Ni    Ni4+2 0.091800 0.000000 0.000000 0.281784
Ni6   Ni    Ni4+2 0.908200 0.000000 0.000000 0.270426
Ni7   Ni    Ni4+2 0.000000 0.908200 0.000000 0.272434
Ni8   Ni    Ni4+2 0.000000 0.091800 0.000000 0.269215
C81   C     C_R   0.613007 0.388104 0.387109 0.220455
C82   C     C_R   0.393327 0.605809 0.619497 0.181313
C83   C     C_R   0.388001 0.385195 0.388128 0.210997
C84   C     C_R   0.616891 0.615760 0.607799 0.233653
C85   C     C_R   0.386910 0.612606 0.387403 0.220076
C86   C     C_R   0.606610 0.390679 0.617769 0.220841
C87   C     C_R   0.612131 0.613775 0.387353 0.218985
C88   C     C_R   0.374296 0.372353 0.590450 0.211749
C89   C     C_R   0.125616 0.871967 0.910344 0.217530
C90   C     C_R   0.871162 0.126140 0.088121 0.196444
C91   C     C_R   0.872202 0.874218 0.910593 0.199008
C92   C     C_R   0.126706 0.129859 0.085597 0.191711
C93   C     C_R   0.873027 0.129578 0.913423 0.208132
C94   C     C_R   0.127945 0.874625 0.090277 0.203282
C95   C     C_R   0.103767 0.105937 0.878873 0.192873
C96   C     C_R   0.873979 0.870412 0.087759 0.198009
C97   C     C_R   0.249376 0.277878 0.593507 0.386601
C98   C     C_R   0.712791 0.677926 0.294013 0.294408
C99   C     C_R   0.353922 0.615390 0.761808 0.391423
C100  C     C_R   0.677681 0.287116 0.294844 0.386908
C101  C     C_R   0.642674 0.634925 0.750824 0.381639
C102  C     C_R   0.295079 0.310336 0.295188 0.382661
C103  C     C_R   0.626707 0.358216 0.760115 0.386945
C104  C     C_R   0.322181 0.714728 0.295774 0.294819
C105  C     C_R   0.349691 0.632161 0.246487 0.400216
C106  C     C_R   0.700834 0.315252 0.709019 0.386237
C107  C     C_R   0.375473 0.345106 0.246797 0.319911
C108  C     C_R   0.701237 0.699304 0.701086 0.381511
C109  C     C_R   0.653037 0.371606 0.246409 0.392366
C110  C     C_R   0.331246 0.702812 0.717291 0.379534
C111  C     C_R   0.628824 0.652731 0.246191 0.399272
C112  C     C_R   0.316981 0.245907 0.657764 0.291891
C113  C     C_R   0.746979 0.778062 0.095245 0.374897
C114  C     C_R   0.147474 0.112571 0.737225 0.393670
C115  C     C_R   0.779123 0.253488 0.096710 0.362056
C116  C     C_R   0.176891 0.741003 0.847107 0.393774
C117  C     C_R   0.256259 0.217917 0.094367 0.369001
C118  C     C_R   0.737814 0.823952 0.854490 0.392826
C119  C     C_R   0.222867 0.749690 0.097499 0.378460
C120  C     C_R   0.822023 0.267592 0.862813 0.399186
C121  C     C_R   0.745358 0.221007 0.905922 0.379602
C122  C     C_R   0.266724 0.828543 0.139128 0.416352
C123  C     C_R   0.780666 0.747139 0.901268 0.375000
C124  C     C_R   0.180480 0.265749 0.137396 0.398074
C125  C     C_R   0.249138 0.775776 0.904789 0.397193
C126  C     C_R   0.732816 0.174946 0.137187 0.408636
C127  C     C_R   0.147188 0.206416 0.773624 0.379829
C128  C     C_R   0.824745 0.730594 0.135078 0.407713
C129  C     C_R   0.284271 0.322105 0.579894 0.228606
C130  C     C_R   0.689679 0.656680 0.340077 0.196539
C131  C     C_R   0.376488 0.595429 0.714907 0.211607
C132  C     C_R   0.655888 0.310179 0.340517 0.218379
C133  C     C_R   0.624721 0.612086 0.703629 0.201137
C134  C     C_R   0.315933 0.333847 0.340960 0.207686
C135  C     C_R   0.600700 0.373932 0.713314 0.237561
C136  C     C_R   0.343369 0.690840 0.341454 0.194978
C137  C     C_R   0.363436 0.605972 0.293641 0.246559
C138  C     C_R   0.678940 0.338588 0.663416 0.214604
C139  C     C_R   0.398600 0.362628 0.294139 0.223566
C140  C     C_R   0.677496 0.680847 0.654430 0.223549
C141  C     C_R   0.638217 0.396614 0.293707 0.246797
C142  C     C_R   0.349560 0.680638 0.669949 0.216814
C143  C     C_R   0.603775 0.638554 0.293772 0.238944
C144  C     C_R   0.351357 0.290345 0.644566 0.204235
C145  C     C_R   0.781034 0.823332 0.082969 0.225519
C146  C     C_R   0.129549 0.091514 0.785601 0.217356
C147  C     C_R   0.824211 0.219564 0.084220 0.226585
C148  C     C_R   0.144246 0.787105 0.859196 0.212410
C149  C     C_R   0.219932 0.175664 0.079069 0.223772
C150  C     C_R   0.783693 0.857169 0.864862 0.213218
C151  C     C_R   0.176635 0.782400 0.085872 0.246090
C152  C     C_R   0.855445 0.221195 0.871531 0.223658
C153  C     C_R   0.779790 0.176052 0.918227 0.221939
C154  C     C_R   0.218671 0.859695 0.132592 0.207889
C155  C     C_R   0.825063 0.781308 0.914810 0.234617
C156  C     C_R   0.145660 0.220937 0.127242 0.205018
C157  C     C_R   0.216260 0.821669 0.917133 0.248973
C158  C     C_R   0.779661 0.142239 0.129415 0.214077
C159  C     C_R   0.129625 0.185044 0.821819 0.231451
C160  C     C_R   0.857517 0.777652 0.127816 0.217419
S1    S     S_3+6 0.186375 0.267514 0.559621 0.094100
O1    O     O_2   0.169872 0.207716 0.561628 -0.222518
O2    O     O_2   0.142430 0.301795 0.584948 -0.178799
O3    O     O_3   0.192872 0.286585 0.496782 -0.402682
H33   H     H_    0.155683 0.282237 0.481722 0.402543
S2    S     S_3+6 0.778425 0.710664 0.297490 0.100283
O4    O     O_2   0.821910 0.666813 0.294522 -0.104155
O5    O     O_2   0.787269 0.751821 0.254317 -0.295223
O6    O     O_3   0.785232 0.743972 0.354508 -0.387197
H34   H     H_    0.755315 0.771713 0.354617 0.361200
S3    S     S_3+6 0.354277 0.573137 0.819116 0.088940
O7    O     O_2   0.405435 0.585898 0.849518 -0.200183
O8    O     O_2   0.304970 0.584252 0.852798 -0.227841
O9    O     O_3   0.354041 0.505700 0.803645 -0.420349
H35   H     H_    0.361417 0.486037 0.836846 0.404853
S4    S     S_3+6 0.710241 0.221177 0.299040 0.081403
O10   O     O_2   0.666652 0.177473 0.295441 -0.156562
O11   O     O_2   0.751940 0.212837 0.256600 -0.293561
O12   O     O_3   0.742615 0.214747 0.356651 -0.428077
H36   H     H_    0.753940 0.175499 0.358571 0.407049
S5    S     S_3+6 0.616665 0.609380 0.811470 0.092811
O13   O     O_2   0.657350 0.568837 0.833459 -0.182621
O14   O     O_2   0.608961 0.655782 0.849514 -0.217090
O15   O     O_3   0.555713 0.577738 0.803644 -0.410606
H37   H     H_    0.547316 0.560954 0.838018 0.404568
S6    S     S_3+6 0.233558 0.270226 0.299521 0.077452
O16   O     O_2   0.185597 0.309125 0.302439 -0.166180
O17   O     O_2   0.226240 0.232166 0.254002 -0.287064
O18   O     O_3   0.234786 0.231424 0.354061 -0.428631
H38   H     H_    0.196718 0.217645 0.358290 0.403741
S7    S     S_3+6 0.598265 0.378139 0.821361 0.103120
O19   O     O_2   0.564340 0.331168 0.842322 -0.186321
O20   O     O_2   0.643175 0.391211 0.859541 -0.217290
O21   O     O_3   0.558384 0.434504 0.814772 -0.409516
H39   H     H_    0.542930 0.441040 0.849939 0.396192
S8    S     S_3+6 0.288122 0.779844 0.300354 0.101074
O22   O     O_2   0.330783 0.824568 0.298194 -0.104465
O23   O     O_2   0.247288 0.788773 0.257287 -0.295241
O24   O     O_3   0.254445 0.784635 0.357442 -0.386578
H40   H     H_    0.227510 0.753977 0.356988 0.361073
S9    S     S_3+6 0.361167 0.598148 0.185839 0.087889
O25   O     O_2   0.307860 0.573557 0.167727 -0.181489
O26   O     O_2   0.381276 0.638859 0.145733 -0.227050
O27   O     O_3   0.408435 0.547829 0.191571 -0.450887
H41   H     H_    0.411427 0.531670 0.156282 0.390570
S10   S     S_3+6 0.758514 0.269958 0.703697 0.075430
O28   O     O_2   0.809981 0.304128 0.703891 -0.164430
O29   O     O_2   0.760555 0.228809 0.747660 -0.290538
O30   O     O_3   0.755336 0.234721 0.647414 -0.424105
H42   H     H_    0.791111 0.215431 0.644736 0.407269
S11   S     S_3+6 0.410741 0.356466 0.186613 0.112360
O31   O     O_2   0.435750 0.302808 0.169448 -0.138264
O32   O     O_2   0.371114 0.375763 0.145482 -0.222952
O33   O     O_3   0.460877 0.403917 0.191824 -0.386012
H43   H     H_    0.441614 0.438770 0.200271 0.381910
S12   S     S_3+6 0.756798 0.747401 0.698373 0.067706
O34   O     O_2   0.733695 0.804897 0.698664 -0.175981
O35   O     O_2   0.794821 0.740224 0.744025 -0.284307
O36   O     O_3   0.793464 0.738405 0.643434 -0.422926
H44   H     H_    0.819715 0.769653 0.642544 0.407935
S13   S     S_3+6 0.644683 0.407849 0.186168 0.111371
O37   O     O_2   0.699680 0.429918 0.169434 -0.194271
O38   O     O_2   0.623488 0.369242 0.145119 -0.192423
O39   O     O_3   0.600010 0.460560 0.191628 -0.400115
H45   H     H_    0.602903 0.481087 0.158255 0.405580
S14   S     S_3+6 0.305942 0.772112 0.719672 0.062991
O40   O     O_2   0.244262 0.770507 0.717786 -0.213457
O41   O     O_2   0.323672 0.799042 0.769594 -0.257785
O42   O     O_3   0.329318 0.810610 0.669646 -0.409247
H46   H     H_    0.310254 0.846557 0.673050 0.406522
S15   S     S_3+6 0.592917 0.643555 0.186187 0.086015
O43   O     O_2   0.570572 0.698525 0.168938 -0.212675
O44   O     O_2   0.631478 0.622120 0.145179 -0.224252
O45   O     O_3   0.540793 0.598355 0.192436 -0.412260
H47   H     H_    0.520854 0.600216 0.158840 0.401963
S16   S     S_3+6 0.338016 0.197540 0.706654 0.088048
O46   O     O_2   0.323515 0.220287 0.759275 -0.142295
O47   O     O_2   0.309611 0.142913 0.699861 -0.248754
O48   O     O_3   0.406167 0.186640 0.704456 -0.391209
H48   H     H_    0.412760 0.169067 0.670218 0.365592
S17   S     S_3+6 0.677607 0.775734 0.073678 0.098850
O49   O     O_2   0.672623 0.800138 0.019907 -0.172000
O50   O     O_2   0.657646 0.717015 0.072464 -0.189138
O51   O     O_3   0.638633 0.812209 0.115292 -0.458458
H49   H     H_    0.600468 0.807214 0.102817 0.409079
S18   S     S_3+6 0.156658 0.067659 0.683067 0.092786
O52   O     O_2   0.149789 0.098631 0.632581 -0.216829
O53   O     O_2   0.213599 0.043778 0.685433 -0.188257
O54   O     O_3   0.110445 0.016032 0.684858 -0.419937
H50   H     H_    0.121641 0.990712 0.656550 0.405071
S19   S     S_3+6 0.776013 0.322959 0.074176 0.099156
O55   O     O_2   0.717512 0.342819 0.073530 -0.183613
O56   O     O_2   0.809152 0.358721 0.110081 -0.192820
O57   O     O_3   0.801711 0.327718 0.013414 -0.442744
H51   H     H_    0.798912 0.367362 0.004127 0.405723
S20   S     S_3+6 0.150052 0.689114 0.804735 0.086727
O58   O     O_2   0.134901 0.715341 0.753519 -0.174285
O59   O     O_2   0.189877 0.642846 0.795120 -0.258534
O60   O     O_3   0.093324 0.661917 0.832106 -0.420728
H52   H     H_    0.076945 0.638443 0.804687 0.402827
S21   S     S_3+6 0.325939 0.217937 0.073309 0.099705
O61   O     O_2   0.349686 0.275125 0.076340 -0.190966
O62   O     O_2   0.358367 0.179879 0.108002 -0.199311
O63   O     O_3   0.330450 0.196010 0.011330 -0.414114
H53   H     H_    0.370362 0.193595 0.004112 0.404947
S22   S     S_3+6 0.678746 0.853083 0.823580 0.101499
O64   O     O_2   0.695450 0.881152 0.773670 -0.163839
O65   O     O_2   0.635488 0.810561 0.812137 -0.249669
O66   O     O_3   0.651502 0.900336 0.863900 -0.411715
H54   H     H_    0.622032 0.918419 0.843414 0.404265
S23   S     S_3+6 0.228416 0.681179 0.073493 0.100191
O67   O     O_2   0.287545 0.663283 0.072808 -0.191499
O68   O     O_2   0.196123 0.643105 0.108333 -0.193070
O69   O     O_3   0.203415 0.677769 0.012489 -0.440256
H55   H     H_    0.209936 0.639194 0.001399 0.404336
S24   S     S_3+6 0.851096 0.329312 0.836247 0.100230
O70   O     O_2   0.882205 0.316189 0.787219 -0.153633
O71   O     O_2   0.808455 0.372511 0.824580 -0.250134
O72   O     O_3   0.895125 0.355116 0.880335 -0.424880
H56   H     H_    0.913478 0.386347 0.862337 0.403405
S25   S     S_3+6 0.676456 0.223410 0.929111 0.095108
O73   O     O_2   0.673029 0.200215 0.983474 -0.176294
O74   O     O_2   0.655932 0.281971 0.929601 -0.196512
O75   O     O_3   0.636788 0.185636 0.889254 -0.453183
H57   H     H_    0.598993 0.190029 0.902977 0.407120
S26   S     S_3+6 0.327970 0.860391 0.162457 0.104329
O76   O     O_2   0.316069 0.891385 0.211798 -0.141378
O77   O     O_2   0.372969 0.819145 0.172315 -0.246457
O78   O     O_3   0.349691 0.905403 0.116789 -0.427596
H58   H     H_    0.381234 0.924725 0.132870 0.402734
S27   S     S_3+6 0.775742 0.678729 0.926398 0.096856
O79   O     O_2   0.717413 0.658527 0.923691 -0.191678
O80   O     O_2   0.811851 0.641445 0.894588 -0.193858
O81   O     O_3   0.796441 0.677168 0.988940 -0.448349
H59   H     H_    0.793147 0.637989 0.999744 0.405784
S28   S     S_3+6 0.153028 0.327476 0.164964 0.101886
O82   O     O_2   0.120985 0.313670 0.213384 -0.150812
O83   O     O_2   0.196843 0.368906 0.177929 -0.244225
O84   O     O_3   0.110251 0.356097 0.121082 -0.432368
H60   H     H_    0.092665 0.387269 0.139595 0.404980
S29   S     S_3+6 0.313451 0.765498 0.936434 0.096328
O85   O     O_2   0.328353 0.705228 0.936587 -0.214320
O86   O     O_2   0.356918 0.797475 0.907637 -0.179983
O87   O     O_3   0.310363 0.787574 0.998458 -0.453855
H61   H     H_    0.346392 0.777742 0.013816 0.403503
S30   S     S_3+6 0.670759 0.144402 0.160584 0.117087
O88   O     O_2   0.682154 0.111420 0.209125 -0.154084
O89   O     O_2   0.627185 0.186706 0.171831 -0.230425
O90   O     O_3   0.647141 0.101625 0.114279 -0.413770
H62   H     H_    0.615249 0.082696 0.130390 0.402578
S31   S     S_3+6 0.160197 0.278738 0.765521 0.068640
O91   O     O_2   0.220935 0.288384 0.770578 -0.227956
O92   O     O_2   0.142077 0.296672 0.712057 -0.235289
O93   O     O_3   0.127318 0.317927 0.809536 -0.403294
H63   H     H_    0.139612 0.356179 0.802213 0.401128
S32   S     S_3+6 0.854569 0.667697 0.157885 0.106628
O94   O     O_2   0.886997 0.678170 0.206641 -0.143014
O95   O     O_2   0.812060 0.624054 0.168546 -0.241209
O96   O     O_3   0.897384 0.644377 0.111442 -0.427515
H64   H     H_    0.915657 0.611780 0.127169 0.403494
N33   N     N_R   0.266897 0.361547 0.541406 0.273752
O97   O     O_R   0.296832 0.370987 0.500350 -0.357188
O98   O     O_R   0.222903 0.390927 0.549142 -0.279804
N34   N     N_R   0.721010 0.654976 0.387502 0.268818
O99   O     O_R   0.765905 0.625932 0.389980 -0.256504
O100  O     O_R   0.702727 0.679117 0.429290 -0.311854
N35   N     N_R   0.405300 0.543728 0.714207 0.289366
O101  O     O_R   0.449436 0.537393 0.742128 -0.205123
O102  O     O_R   0.383830 0.501052 0.691342 -0.328531
N36   N     N_R   0.653649 0.278549 0.388004 0.275200
O103  O     O_R   0.624637 0.233484 0.390246 -0.280822
O104  O     O_R   0.677382 0.296680 0.430007 -0.292969
N37   N     N_R   0.592589 0.562458 0.703728 0.288081
O105  O     O_R   0.612929 0.517306 0.723471 -0.293428
O106  O     O_R   0.544583 0.561367 0.681551 -0.319562
N38   N     N_R   0.287379 0.327194 0.389381 0.288597
O107  O     O_R   0.241074 0.352633 0.397350 -0.251040
O108  O     O_R   0.306222 0.292988 0.424285 -0.281110
N39   N     N_R   0.545432 0.395043 0.714076 0.288449
O109  O     O_R   0.506955 0.367287 0.737709 -0.219943
O110  O     O_R   0.532423 0.439814 0.688763 -0.271679
N40   N     N_R   0.344180 0.721274 0.389413 0.269910
O111  O     O_R   0.372138 0.766909 0.392647 -0.254995
O112  O     O_R   0.320264 0.701514 0.430877 -0.321200
N41   N     N_R   0.378042 0.548606 0.294266 0.267748
O113  O     O_R   0.342756 0.511585 0.279296 -0.342480
O114  O     O_R   0.425857 0.533057 0.311300 -0.268170
N42   N     N_R   0.707141 0.332921 0.614477 0.278495
O115  O     O_R   0.756359 0.352991 0.608707 -0.272772
O116  O     O_R   0.682734 0.310244 0.574871 -0.296624
N43   N     N_R   0.454845 0.380251 0.296028 0.259136
O117  O     O_R   0.493872 0.346087 0.283396 -0.324321
O118  O     O_R   0.467554 0.428517 0.314328 -0.284974
N44   N     N_R   0.691180 0.706483 0.605494 0.283188
O119  O     O_R   0.682707 0.759058 0.598606 -0.259240
O120  O     O_R   0.709549 0.677024 0.566924 -0.292656
N45   N     N_R   0.624069 0.454078 0.295006 0.270151
O121  O     O_R   0.660645 0.491255 0.283131 -0.336824
O122  O     O_R   0.575435 0.469492 0.309987 -0.257024
N46   N     N_R   0.341494 0.710423 0.622159 0.282668
O123  O     O_R   0.292487 0.714534 0.602361 -0.252177
O124  O     O_R   0.382378 0.735796 0.599825 -0.309499
N47   N     N_R   0.546573 0.624504 0.295411 0.271379
O125  O     O_R   0.509715 0.661110 0.282811 -0.335098
O126  O     O_R   0.531075 0.575930 0.311330 -0.258613
N48   N     N_R   0.399144 0.301192 0.675470 0.283508
O127  O     O_R   0.394194 0.328247 0.718891 -0.210172
O128  O     O_R   0.446960 0.282195 0.661677 -0.358794
N49   N     N_R   0.759603 0.867791 0.052209 0.257789
O129  O     O_R   0.774658 0.873420 0.003848 -0.393826
O130  O     O_R   0.721765 0.899951 0.071142 -0.263342
N50   N     N_R   0.119649 0.033454 0.792005 0.271514
O131  O     O_R   0.071081 0.015780 0.805198 -0.319457
O132  O     O_R   0.159993 0.998471 0.787982 -0.292217
N51   N     N_R   0.868195 0.241623 0.053511 0.262917
O133  O     O_R   0.873811 0.226835 0.005169 -0.393697
O134  O     O_R   0.899989 0.279723 0.072501 -0.267906
N52   N     N_R   0.093372 0.795863 0.832004 0.267483
O135  O     O_R   0.087651 0.838892 0.801944 -0.274757
O136  O     O_R   0.050936 0.764872 0.841813 -0.291254
N53   N     N_R   0.238257 0.133914 0.043657 0.265169
O137  O     O_R   0.216258 0.130102 0.997612 -0.335781
O138  O     O_R   0.276578 0.099358 0.057442 -0.274341
N54   N     N_R   0.788046 0.910594 0.840514 0.262105
O139  O     O_R   0.828402 0.920879 0.808617 -0.296272
O140  O     O_R   0.754269 0.950114 0.852777 -0.280386
N55   N     N_R   0.133416 0.759990 0.054650 0.262436
O141  O     O_R   0.127261 0.776314 0.006666 -0.384040
O142  O     O_R   0.102683 0.720415 0.072893 -0.269799
N56   N     N_R   0.908948 0.218900 0.847803 0.257726
O143  O     O_R   0.920103 0.180474 0.814118 -0.315773
O144  O     O_R   0.947563 0.252765 0.862029 -0.270842
N57   N     N_R   0.758708 0.131530 0.949157 0.257762
O145  O     O_R   0.774040 0.125958 0.997387 -0.402028
O146  O     O_R   0.720869 0.099246 0.930520 -0.259235
N58   N     N_R   0.214033 0.912626 0.157478 0.262260
O147  O     O_R   0.174661 0.921400 0.190775 -0.294498
O148  O     O_R   0.246094 0.953304 0.144107 -0.286046
N59   N     N_R   0.867444 0.760054 0.947913 0.262802
O149  O     O_R   0.871815 0.777462 0.995547 -0.399099
O150  O     O_R   0.899553 0.720803 0.931573 -0.267481
N60   N     N_R   0.091928 0.219636 0.150502 0.263564
O151  O     O_R   0.079959 0.181808 0.184852 -0.297347
O152  O     O_R   0.054180 0.254431 0.135855 -0.287849
N61   N     N_R   0.237064 0.862796 0.951801 0.263354
O153  O     O_R   0.215989 0.868391 0.997988 -0.402056
O154  O     O_R   0.279177 0.892702 0.938293 -0.269669
N62   N     N_R   0.782388 0.088402 0.153174 0.259648
O155  O     O_R   0.820501 0.077569 0.187236 -0.305418
O156  O     O_R   0.749306 0.049188 0.138624 -0.282298
N63   N     N_R   0.124904 0.220683 0.866045 0.275234
O157  O     O_R   0.163087 0.220434 0.901471 -0.282095
O158  O     O_R   0.079273 0.247106 0.874685 -0.276376
N64   N     N_R   0.910915 0.779781 0.151650 0.260214
O159  O     O_R   0.921585 0.817443 0.186203 -0.297151
O160  O     O_R   0.949860 0.746514 0.136842 -0.281736

loop_
_geom_bond_atom_site_label_1
_geom_bond_atom_site_label_2
_geom_bond_distance
_ccdc_geom_bond_type
N55   O141  1.300121 A    
C124  C156  1.402535 A    
C47   C119  1.403318 A    
C5    H5    1.076976 S    
N39   O110  1.300582 A    
O36   H44   0.990613 S    
C103  C135  1.408876 A    
N62   O155  1.301132 A    
C4    H4    1.077461 S    
C121  S25   1.779878 S    
C78   C155  1.417189 A    
S15   O44   1.503226 D    
S21   O61   1.503071 D    
C123  S27   1.778936 S    
N42   O115  1.300934 A    
N34   O100  1.301390 A    
C27   C90   1.402169 A    
N21   N32   1.375198 A    
N56   O144  1.301104 A    
C34   C50   1.430176 S    
C7    C87   1.376913 A    
C25   C92   1.399530 A    
O24   H40   0.990642 S    
N23   N30   1.374988 A    
C26   C91   1.381917 A    
S9    O27   1.681784 S    
C45   C124  1.404859 A    
S7    O20   1.503384 D    
C133  N37   1.433955 S    
C34   C111  1.411045 A    
C127  C159  1.404497 A    
C35   C110  1.414913 A    
C11   C82   1.383935 A    
C6    C86   1.386601 A    
C130  N34   1.437197 S    
C76   C148  1.414313 A    
C49   C58   1.196435 T    
C9    C84   1.374477 A    
C101  S5    1.787042 S    
O57   H51   0.990447 S    
C53   C62   1.194141 T    
C13   C88   1.391983 A    
C152  N56   1.438078 S    
C66   C130  1.401500 A    
S16   O48   1.680593 S    
C55   C64   1.197132 T    
C2    H2    1.079238 S    
C98   S2    1.786080 S    
C76   C157  1.415614 A    
N40   O112  1.301378 A    
N29   Ni6   1.837580 S    
C44   C60   1.427315 S    
C138  N42   1.437347 S    
S28   O82   1.502452 D    
S25   O74   1.503521 D    
S4    O11   1.501954 D    
C116  C148  1.405748 A    
C111  C143  1.405109 A    
S2    O5    1.502032 D    
C105  S9    1.785466 S    
S19   O55   1.503010 D    
S12   O36   1.682379 S    
S7    O19   1.502845 D    
C42   C114  1.409238 A    
N43   O118  1.299071 A    
S29   O87   1.682564 S    
C157  N61   1.431282 S    
C78   C91   1.480320 S    
O42   H46   0.990530 S    
C46   C118  1.404488 A    
N18   N27   1.375198 A    
C117  S21   1.779402 S    
C66   C87   1.459234 S    
C16   N16   1.340964 A    
N51   O134  1.301017 A    
C79   C94   1.481901 S    
C106  S10   1.786958 S    
S15   O43   1.502884 D    
O45   H47   0.990543 S    
N3    N10   1.374988 A    
C36   C109  1.411360 A    
C23   C95   1.382933 A    
N46   O123  1.300714 A    
S8    O23   1.501972 D    
C150  N54   1.437987 S    
N3    Ni3   1.847453 S    
O90   H62   0.990558 S    
C24   H24   1.079498 S    
S14   O40   1.502711 D    
C143  N47   1.433862 S    
S31   O91   1.502643 D    
C119  C151  1.407545 A    
S21   O63   1.682159 S    
N35   O102  1.300583 A    
S18   O54   1.682289 S    
N6    N15   1.375198 A    
C44   C116  1.410961 A    
C75   C90   1.485787 S    
O63   H53   0.990528 S    
C43   C126  1.402618 A    
C23   H23   1.077838 S    
N11   Ni4   1.845241 S    
C26   N26   1.325762 A    
N33   O97   1.299519 A    
C126  S30   1.784164 S    
C9    H9    1.077279 S    
C123  C155  1.405995 A    
C80   C93   1.486461 S    
C104  C136  1.403351 A    
C65   C144  1.411383 A    
O30   H42   0.990564 S    
C134  N38   1.431248 S    
C30   N30   1.343853 A    
N37   O105  1.300995 A    
C13   H13   1.080180 S    
N60   O151  1.301101 A    
N17   Ni5   1.845823 S    
S24   O70   1.502625 D    
C18   N18   1.323573 A    
N64   O159  1.301130 A    
N2    Ni2   1.845819 S    
C112  C144  1.403233 A    
N22   N31   1.375198 A    
C104  S8    1.785611 S    
C47   C122  1.401572 A    
C121  C153  1.408708 A    
C22   C94   1.380670 A    
N16   Ni4   1.847320 S    
C71   C138  1.402614 A    
C12   H12   1.076308 S    
O54   H50   0.990530 S    
C73   C145  1.418683 A    
C46   C123  1.402602 A    
C102  C134  1.402998 A    
C7    H7    1.076635 S    
C8    H8    1.080757 S    
S30   O88   1.502533 D    
C73   C96   1.486330 S    
S3    O7    1.503026 D    
C77   C149  1.417793 A    
N47   O126  1.299270 A    
N52   O136  1.300534 A    
C52   C59   1.197205 T    
C36   C100  1.419441 A    
C37   C101  1.408986 A    
O72   H56   0.990561 S    
N26   Ni6   1.845861 S    
C56   C63   1.195530 T    
C22   H22   1.079880 S    
N45   O121  1.301165 A    
N55   O142  1.300938 A    
S18   O52   1.503326 D    
C97   S1    1.782028 S    
S26   O78   1.681555 S    
C29   C96   1.401725 A    
C109  S13   1.785731 S    
C30   C95   1.394841 A    
C128  S32   1.783753 S    
N59   O150  1.300982 A    
S5    O13   1.502962 D    
S17   O50   1.503156 D    
N35   O101  1.300634 A    
N32   Ni8   1.847320 S    
O3    H33   0.990475 S    
C106  C138  1.402744 A    
C100  C132  1.403818 A    
O6    H34   0.990645 S    
C112  S16   1.787594 S    
C44   C125  1.405292 A    
C108  C140  1.404670 A    
S18   O53   1.502897 D    
C103  S7    1.784715 S    
N21   Ni6   1.837611 S    
N17   N28   1.375198 A    
C154  N58   1.438887 S    
C15   N15   1.336558 A    
C40   C105  1.409898 A    
N54   O139  1.301127 A    
C1    N1    1.337783 A    
C6    H6    1.076297 S    
C27   N27   1.346964 A    
S1    O1    1.503419 D    
C144  N48   1.433462 S    
N4    Ni4   1.847449 S    
C65   C129  1.416559 A    
C2    C82   1.383602 A    
S11   O33   1.682137 S    
C25   H25   1.079664 S    
C73   C160  1.420899 A    
C19   N19   1.344636 A    
N41   O114  1.298812 A    
S16   O47   1.503614 D    
C28   C89   1.382840 A    
N57   O145  1.299321 A    
C28   H28   1.080965 S    
C29   H29   1.079297 S    
C98   C130  1.403912 A    
C31   H31   1.079823 S    
C32   H32   1.079915 S    
C15   C86   1.377679 A    
C124  S28   1.785786 S    
C17   H17   1.079811 S    
C4    N4    1.343106 A    
C115  S19   1.778017 S    
C151  N55   1.431381 S    
S24   O72   1.681623 S    
N9    Ni1   1.845858 S    
N50   O131  1.301230 A    
S19   O56   1.502757 D    
S12   O35   1.503131 D    
S13   O37   1.502918 D    
S8    O24   1.682031 S    
N63   O157  1.300727 A    
C3    H3    1.076578 S    
S3    O9    1.682298 S    
C42   C58   1.430802 S    
N28   Ni7   1.845241 S    
C118  S22   1.786354 S    
C19   C91   1.398780 A    
S8    O22   1.501315 D    
S26   O77   1.503127 D    
C127  S31   1.790895 S    
C17   C89   1.394724 A    
C46   C62   1.423297 S    
S32   O95   1.503122 D    
S22   O65   1.502958 D    
N23   Ni8   1.845117 S    
C20   N20   1.326559 A    
S27   O81   1.682664 S    
C80   C153  1.417872 A    
C135  N39   1.439209 S    
C71   C135  1.411679 A    
N36   O103  1.300928 A    
O9    H35   0.990579 S    
C70   C139  1.411791 A    
C99   S3    1.787529 S    
C67   C82   1.463774 S    
S20   O58   1.503195 D    
C2    N2    1.339730 A    
N62   O156  1.301387 A    
C10   C83   1.390050 A    
C102  S6    1.788061 S    
S5    O15   1.682545 S    
C125  C157  1.406425 A    
S22   O66   1.681631 S    
C128  C160  1.402710 A    
C142  N46   1.433395 S    
C14   C87   1.383903 A    
N48   O127  1.300366 A    
C39   C106  1.417447 A    
S23   O68   1.502677 D    
S6    O16   1.501937 D    
S31   O93   1.680317 S    
C158  N62   1.438248 S    
C37   C108  1.417755 A    
C11   N11   1.340940 A    
C153  N57   1.430687 S    
S32   O96   1.681561 S    
N46   O124  1.300698 A    
S9    O26   1.503365 D    
C139  N43   1.435003 S    
C148  N52   1.437262 S    
S28   O84   1.681545 S    
S1    O3    1.682324 S    
C159  N63   1.433132 S    
C34   C98   1.419229 A    
C75   C147  1.418026 A    
N58   O147  1.301138 A    
C77   C92   1.483539 S    
S11   O31   1.502354 D    
S10   O28   1.501469 D    
C109  C141  1.405298 A    
C68   C141  1.410468 A    
N49   O130  1.301092 A    
N1    Ni1   1.845823 S    
N13   Ni2   1.837580 S    
C65   C88   1.476528 S    
C10   H10   1.076912 S    
C69   C84   1.454645 S    
C110  S14   1.788762 S    
C141  N45   1.433952 S    
C36   C52   1.430790 S    
C43   C59   1.428122 S    
O48   H48   0.990675 S    
S28   O83   1.502904 D    
S25   O73   1.503499 D    
C132  N36   1.437161 S    
O12   H36   0.990558 S    
C14   H14   1.076588 S    
O87   H61   0.990439 S    
S2    O6    1.682036 S    
C107  S11   1.786032 S    
N1    N12   1.375198 A    
C131  N35   1.435082 S    
C39   C55   1.430421 S    
S13   O39   1.682866 S    
S29   O86   1.502685 D    
C35   C51   1.428684 S    
N27   Ni8   1.845241 S    
C70   C134  1.399213 A    
N44   O119  1.301008 A    
O84   H60   0.990582 S    
C20   C92   1.380235 A    
C21   C93   1.398469 A    
N53   O138  1.301249 A    
O81   H59   0.990444 S    
C5    N5    1.337446 A    
C50   C57   1.196821 T    
S10   O30   1.682432 S    
C114  S18   1.782201 S    
S27   O79   1.503546 D    
C54   C61   1.196949 T    
C67   C131  1.412280 A    
C136  N40   1.437259 S    
C77   C156  1.418580 A    
N25   Ni5   1.845858 S    
C32   C93   1.381416 A    
N5    Ni2   1.837611 S    
S14   O41   1.503607 D    
S20   O60   1.681433 S    
S15   O45   1.682764 S    
N19   Ni7   1.847453 S    
S21   O62   1.502900 D    
C21   N21   1.346298 A    
C68   C132  1.401393 A    
C8    N8    1.333937 A    
C1    H1    1.076656 S    
N51   O133  1.299544 A    
N34   O99   1.300916 A    
C120  C152  1.404290 A    
C40   C104  1.418910 A    
C72   C136  1.401342 A    
N56   O143  1.301169 A    
N15   Ni3   1.847317 S    
C145  N49   1.430786 S    
S14   O42   1.681608 S    
O60   H52   0.990583 S    
N61   O153  1.298322 A    
C48   C120  1.404585 A    
C114  C146  1.408506 A    
N60   O152  1.301201 A    
C39   C103  1.411823 A    
C66   C143  1.410686 A    
C1    C81   1.376573 A    
C26   H26   1.080351 S    
C146  N50   1.435166 S    
N63   O158  1.301024 A    
C5    C85   1.376728 A    
C30   H30   1.079612 S    
N40   O111  1.300913 A    
N31   Ni7   1.847317 S    
C3    C83   1.372609 A    
S30   O89   1.503054 D    
N8    Ni3   1.845117 S    
S25   O75   1.680973 S    
S4    O10   1.501896 D    
C18   H18   1.079507 S    
C33   C112  1.410068 A    
C6    N6    1.342424 A    
S2    O4    1.501300 D    
N61   O154  1.300941 A    
C51   C60   1.196185 T    
C16   C85   1.383809 A    
N10   Ni2   1.845861 S    
C25   N25   1.345562 A    
C37   C53   1.425593 S    
C122  C154  1.401558 A    
S30   O90   1.681577 S    
C118  C150  1.402789 A    
O93   H63   0.990565 S    
C29   N29   1.346565 A    
C18   C90   1.381526 A    
S17   O49   1.503387 D    
O18   H38   0.990558 S    
C31   N31   1.346880 A    
N2    N11   1.375198 A    
N42   O116  1.301372 A    
C17   N17   1.345657 A    
C22   N22   1.321461 A    
C99   C131  1.409571 A    
C48   C64   1.428417 S    
C120  S24   1.785826 S    
C97   C129  1.409479 A    
C72   C137  1.410355 A    
N38   O107  1.300778 A    
N54   O140  1.300994 A    
N39   O109  1.300654 A    
O51   H49   0.990531 S    
C101  C133  1.403679 A    
C119  S23   1.777303 S    
C40   C56   1.428087 S    
S7    O21   1.682779 S    
S23   O67   1.503126 D    
C43   C115  1.403526 A    
N24   Ni7   1.845117 S    
S11   O32   1.503398 D    
C15   H15   1.079673 S    
C12   C81   1.384088 A    
N59   O149  1.299047 A    
C16   H16   1.076633 S    
N41   O113  1.301160 A    
O69   H55   0.990431 S    
C156  N60   1.437234 S    
O96   H64   0.990553 S    
C115  C147  1.408258 A    
O66   H54   0.990583 S    
N30   Ni5   1.837581 S    
N33   O98   1.301083 A    
C113  C145  1.408754 A    
C125  S29   1.781230 S    
C74   C159  1.411309 A    
C24   C96   1.381804 A    
S9    O25   1.502759 D    
N37   O106  1.300609 A    
C79   C151  1.417588 A    
O33   H43   0.990145 S    
C117  C149  1.409790 A    
C140  N44   1.436900 S    
C35   C99   1.411728 A    
C100  S4    1.785372 S    
C69   C133  1.410196 A    
C107  C139  1.406623 A    
C33   C97   1.407674 A    
N50   O132  1.301103 A    
C105  C137  1.404190 A    
N14   Ni1   1.837581 S    
N57   O146  1.301048 A    
C147  N51   1.430613 S    
C41   C128  1.401824 A    
C70   C83   1.462436 S    
N12   Ni3   1.845241 S    
C45   C117  1.405383 A    
S3    O8    1.503029 D    
C149  N53   1.433046 S    
C11   H11   1.074590 S    
C7    N7    1.337934 A    
C122  S26   1.783810 S    
C160  N64   1.438100 S    
C38   C54   1.429843 S    
S4    O12   1.682458 S    
S13   O38   1.503183 D    
N52   O135  1.301095 A    
C71   C86   1.456584 S    
C23   N23   1.333687 A    
C67   C142  1.404745 A    
C38   C107  1.411580 A    
S27   O80   1.502780 D    
S26   O76   1.502430 D    
C9    N9    1.336705 A    
S24   O71   1.502898 D    
N36   O104  1.301391 A    
N45   O122  1.299417 A    
C13   N13   1.344391 A    
C116  S20   1.789322 S    
S20   O59   1.502461 D    
N22   Ni5   1.837611 S    
N43   O117  1.301270 A    
S5    O14   1.503262 D    
S32   O94   1.502443 D    
S17   O51   1.680992 S    
N4    N9    1.374988 A    
C137  N41   1.433872 S    
C74   C95   1.470860 S    
C108  S12   1.785996 S    
N64   O160  1.301377 A    
S31   O92   1.503556 D    
N8    N13   1.374988 A    
C24   N24   1.324032 A    
C31   C94   1.402098 A    
O15   H37   0.990510 S    
C76   C89   1.479946 S    
C68   C81   1.459023 S    
C41   C57   1.427628 S    
C28   N28   1.330514 A    
N6    Ni1   1.837611 S    
O27   H41   0.990531 S    
S1    O2    1.502816 D    
C111  S15   1.785951 S    
N18   Ni6   1.845819 S    
C129  N33   1.434761 S    
C72   C85   1.457417 S    
N20   Ni8   1.847449 S    
C45   C61   1.427922 S    
C32   N32   1.328326 A    
N58   O148  1.301363 A    
C47   C63   1.425093 S    
S10   O29   1.502518 D    
S6    O18   1.682276 S    
N20   N25   1.374988 A    
C79   C154  1.419900 A    
C33   C49   1.429978 S    
S6    O17   1.501746 D    
S16   O46   1.502054 D    
N19   N26   1.374988 A    
N24   N29   1.374988 A    
O39   H45   0.990551 S    
C4    C84   1.382968 A    
C3    N3    1.335554 A    
N38   O108  1.301003 A    
C126  C158  1.402791 A    
C38   C102  1.418485 A    
O78   H58   0.990556 S    
C113  S17   1.778527 S    
S19   O57   1.682504 S    
S12   O34   1.501538 D    
C12   N12   1.341587 A    
C20   H20   1.080101 S    
C27   H27   1.079476 S    
S29   O85   1.503811 D    
C21   H21   1.079402 S    
C10   N10   1.347144 A    
N49   O129  1.299888 A    
N44   O120  1.301249 A    
O75   H57   0.990526 S    
N7    Ni4   1.845117 S    
C75   C158  1.420570 A    
C14   N14   1.341327 A    
N53   O137  1.301268 A    
N48   O128  1.300667 A    
C48   C121  1.403861 A    
C80   C152  1.419979 A    
C41   C113  1.403071 A    
O21   H39   0.990495 S    
N47   O125  1.301170 A    
C19   H19   1.079772 S    
C74   C146  1.411953 A    
S22   O64   1.502680 D    
S23   O69   1.682345 S    
C110  C142  1.402433 A    
C69   C140  1.401038 A    
C155  N59   1.431212 S    
N5    N16   1.375198 A    
C78   C150  1.418389 A    
N7    N14   1.374988 A    
C42   C127  1.413622 A    
C8    C88   1.380882 A    
