data_mof_unit_41352.cif
_audit_creation_date              2012-12-11T17:43:44-0500
_audit_creation_method            fapswitch 2.2
_symmetry_space_group_name_H-M    P1
_symmetry_Int_Tables_number       1
_space_group_crystal_system       triclinic
_cell_length_a                    15.013284
_cell_length_b                    15.173976
_cell_length_c                    17.025403
_cell_angle_alpha                 108.802752
_cell_angle_beta                  106.13697
_cell_angle_gamma                 109.132827
_cell_volume                      3133.5439733

loop_
_atom_site_label
_atom_site_type_symbol
_atom_type_description
_atom_site_fract_x
_atom_site_fract_y
_atom_site_fract_z
_atom_type_partial_charge
C1    C     C_R   0.086294 0.273503 0.039520 -0.134989
C2    C     C_R   0.086758 0.065729 0.957562 -0.231361
C3    C     C_R   0.999568 0.883337 0.921024 0.053947
C4    C     C_R   0.993985 0.072262 0.949281 0.066968
C5    C     C_R   0.091080 0.971903 0.943855 0.028213
C6    C     C_R   0.899916 0.979252 0.913535 0.024384
C7    C     C_R   0.715286 0.924775 0.813602 -0.182131
C8    C     C_R   0.281206 0.041984 0.039191 -0.201336
C9    C     C_R   0.598225 0.956950 0.878853 -0.111073
C10   C     C_R   0.384711 0.970694 0.980529 -0.094709
C11   C     C_R   0.510854 0.525879 0.259470 -0.087221
C12   C     C_R   0.913547 0.707570 0.918267 -0.122802
C13   C     C_R   0.512063 0.411279 0.645736 -0.119323
C14   C     C_R   0.495168 0.514729 0.171237 -0.156034
C15   C     C_R   0.492393 0.386775 0.713726 -0.153354
C16   C     C_R   0.935307 0.513933 0.744840 -0.126811
C17   C     C_R   0.061889 0.532611 0.265440 -0.136543
C18   C     C_R   0.447631 0.414433 0.096586 0.107967
C19   C     C_R   0.492872 0.461884 0.788354 0.106619
C20   C     C_R   0.418740 0.325844 0.112085 -0.207353
C21   C     C_R   0.513574 0.561765 0.793961 -0.169489
C22   C     C_R   0.434927 0.337465 0.200557 -0.122428
C23   C     C_R   0.027046 0.572790 0.743107 0.102620
C24   C     C_R   0.534612 0.586224 0.726582 -0.092646
C25   C     C_R   0.480396 0.437306 0.274038 -0.008513
C26   C     C_R   0.533732 0.510959 0.652449 -0.078789
C27   C     C_R   0.488874 0.361725 0.966416 -0.210472
C28   C     C_R   0.395414 0.457289 0.883051 -0.226444
C29   C     C_R   0.525704 0.397515 0.910101 0.047500
C30   C     C_R   0.382243 0.449484 0.959220 0.059131
C31   C     C_R   0.470985 0.436654 0.860267 0.031505
C32   C     C_R   0.432335 0.402916 0.003176 0.024446
C33   C     C_R   0.616706 0.917020 0.802136 -0.114335
C34   C     C_R   0.969595 0.519984 0.274141 0.102348
C35   C     C_R   0.376954 0.041497 0.051438 -0.116889
C36   C     C_R   0.961486 0.563875 0.360384 0.042052
C37   C     C_R   0.036367 0.610496 0.675649 0.029833
C38   C     C_R   0.141708 0.670551 0.601500 0.475801
C39   C     C_R   0.859026 0.557657 0.447592 0.480942
C40   C     C_R   0.719877 0.216036 0.822566 -0.151585
C41   C     C_R   0.228696 0.797397 0.186107 -0.129130
C42   C     C_R   0.133879 0.654340 0.675171 -0.276127
C43   C     C_R   0.864455 0.536675 0.363716 -0.259895
C44   C     C_R   0.946872 0.592362 0.605823 -0.202784
C45   C     C_R   0.665977 0.218810 0.743560 0.070930
C46   C     C_R   0.052990 0.626334 0.441735 -0.206520
C47   C     C_R   0.951319 0.599307 0.527351 -0.005908
C48   C     C_R   0.049768 0.636756 0.524626 -0.002626
C49   C     C_R   0.558425 0.146416 0.675436 0.122227
C50   C     C_R   0.296691 0.901639 0.357666 0.122493
C51   C     C_R   0.403381 0.089022 0.440114 -0.218253
C52   C     C_R   0.407683 0.977397 0.604850 -0.200057
C53   C     C_R   0.337463 0.999331 0.357859 -0.165179
C54   C     C_R   0.498545 0.057545 0.681012 -0.179618
C55   C     C_R   0.307673 0.896631 0.440395 -0.263541
C56   C     C_R   0.253435 0.805479 0.273270 0.063470
C57   C     C_R   0.519242 0.160507 0.598176 -0.299033
C58   C     C_R   0.378197 0.985326 0.522923 0.176056
C59   C     C_R   0.430729 0.080357 0.521589 0.194919
C60   C     C_R   0.678018 0.003726 0.967276 -0.128537
C61   C     C_R   0.296788 0.900414 0.897199 -0.122787
C62   C     C_R   0.776733 0.011244 0.979137 -0.137470
C63   C     C_R   0.200485 0.900023 0.884804 -0.138475
C64   C     C_R   0.273989 0.548765 0.962915 -0.127641
C65   C     C_R   0.696748 0.399468 0.989299 -0.129289
C66   C     C_R   0.796425 0.973428 0.902203 0.098690
C67   C     C_R   0.312057 0.484577 0.987671 0.053166
C68   C     C_R   0.192201 0.971095 0.955895 0.118155
C69   C     C_R   0.728680 0.310706 0.746087 -0.116067
C70   C     C_R   0.232362 0.705977 0.265761 -0.131918
C71   C     C_R   0.265632 0.453249 0.039873 -0.123855
C72   C     C_R   0.704067 0.497975 0.916917 -0.130646
C73   C     C_R   0.108716 0.599869 0.823077 -0.135308
C74   C     C_R   0.888546 0.457675 0.186841 -0.132574
C75   C     C_R   0.914616 0.194652 0.952195 -0.127299
C76   C     C_R   0.085925 0.794137 0.997325 -0.144964
C77   C     C_R   0.998679 0.176024 0.978336 0.055868
C78   C     C_R   0.636590 0.427977 0.934316 0.064858
C79   C     C_R   0.000982 0.798036 0.943160 0.063629
C80   C     C_R   0.904060 0.885882 0.895590 -0.220663
Cl1   Cl    Cl    0.266627 0.714743 0.602734 -0.772781
Cl2   Cl    Cl    0.734314 0.516984 0.446883 -0.741173
H1    H     H_    0.162839 0.285970 0.079722 0.096098
H2    H     H_    0.475575 0.309355 0.707921 0.130892
H3    H     H_    0.383072 0.248189 0.055509 0.134206
H4    H     H_    0.514964 0.621152 0.851235 0.120301
H5    H     H_    0.412439 0.269237 0.212392 0.111101
H6    H     H_    0.551385 0.663459 0.731773 0.132379
H7    H     H_    0.523437 0.323793 0.999708 0.123719
H8    H     H_    0.351620 0.485443 0.844416 0.132975
H9    H     H_    0.127491 0.656357 0.439489 0.172436
H10   H     H_    0.872407 0.562426 0.608269 0.178647
H11   H     H_    0.792619 0.494353 0.301518 0.161396
H12   H     H_    0.835489 0.676317 0.866520 0.092066
H13   H     H_    0.203963 0.668820 0.728384 0.154131
H14   H     H_    0.856195 0.489956 0.699390 0.099017
H15   H     H_    0.137871 0.564000 0.319463 0.105463
H16   H     H_    0.554652 0.880168 0.733763 0.151848
H17   H     H_    0.445073 0.095920 0.115951 0.117694
H18   H     H_    0.563206 0.228110 0.592133 0.120512
H19   H     H_    0.271195 0.822412 0.440893 0.140863
H20   H     H_    0.524695 0.046332 0.741245 0.126190
H21   H     H_    0.326329 0.006517 0.295164 0.116905
H22   H     H_    0.441295 0.162628 0.438948 0.130822
H23   H     H_    0.728773 0.893623 0.753642 0.131658
H24   H     H_    0.366461 0.906098 0.607561 0.199970
H25   H     H_    0.521953 0.951317 0.869582 0.117298
H26   H     H_    0.458867 0.970269 0.990312 0.097635
H27   H     H_    0.663342 0.034049 0.026608 0.110455
H28   H     H_    0.303635 0.846520 0.842353 0.129500
H29   H     H_    0.837966 0.047259 0.047843 0.118826
H30   H     H_    0.132760 0.844960 0.820082 0.126776
H31   H     H_    0.688204 0.163906 0.849387 0.102857
H32   H     H_    0.236684 0.858967 0.166028 0.095813
H33   H     H_    0.295140 0.589390 0.924142 0.095559
H34   H     H_    0.275745 0.096307 0.094981 0.113745
H35   H     H_    0.669722 0.335887 0.006197 0.087644
H36   H     H_    0.707382 0.347337 0.704225 0.093344
H37   H     H_    0.254507 0.687136 0.321468 0.101480
H38   H     H_    0.276418 0.404658 0.071120 0.113805
H39   H     H_    0.685924 0.531314 0.871378 0.115398
H40   H     H_    0.188896 0.657862 0.851041 0.091871
H41   H     H_    0.805898 0.430192 0.167191 0.102536
H42   H     H_    0.835655 0.141495 0.902819 0.128123
H43   H     H_    0.167361 0.845436 0.022478 0.118839
H44   H     H_    0.831890 0.817741 0.872867 0.127857
H45   H     H_    0.492513 0.446055 0.342377 0.140549
H46   H     H_    0.157175 0.134653 0.977326 0.128557
H47   H     H_    0.549400 0.529700 0.599959 0.130833
H48   H     H_    0.546822 0.603203 0.316599 0.129869
H49   H     H_    0.509941 0.353130 0.587332 0.113467
H50   H     H_    0.519621 0.584011 0.160901 0.120874
N1    N     N_R   0.055660 0.348550 0.045620 -0.039803
N2    N     N_R   0.185200 0.638170 0.176300 -0.040743
N3    N     N_R   0.201680 0.494570 0.045620 -0.042640
N4    N     N_R   0.798320 0.505430 0.954380 -0.041563
N5    N     N_R   0.068420 0.560530 0.871650 -0.039961
N6    N     N_R   0.931580 0.439470 0.128350 -0.043595
N7    N     N_R   0.948070 0.295860 0.997670 -0.043734
N8    N     N_R   0.051930 0.704140 0.002330 -0.041432
N9    N     N_R   0.944340 0.651450 0.954380 -0.040270
N10   N     N_R   0.960830 0.507850 0.823700 -0.042009
N11   N     N_R   0.039170 0.492150 0.176300 -0.041896
N12   N     N_R   0.811290 0.303410 0.871650 -0.040374
N13   N     N_R   0.188710 0.696590 0.128350 -0.042040
N14   N     N_R   0.205200 0.552990 0.997670 -0.041203
N15   N     N_R   0.794800 0.447010 0.002330 -0.040803
N16   N     N_R   0.814800 0.361830 0.823700 -0.039609
Ni1   Ni    Ni4+2 0.119340 0.493420 0.109960 0.223172
Ni2   Ni    Ni4+2 0.880660 0.506580 0.890040 0.212082
Ni3   Ni    Ni4+2 0.872590 0.372590 0.000000 0.213250
Ni4   Ni    Ni4+2 0.127410 0.627410 0.000000 0.216385

loop_
_geom_bond_atom_site_label_1
_geom_bond_atom_site_label_2
_ccdc_geom_bond_type
N5    N10   A    
C72   H39   S    
C27   C29   A    
C1    C77   A    
C14   C18   A    
C10   H26   S    
C76   C79   A    
C41   H32   S    
N12   N16   A    
C19   C31   S    
C14   H50   S    
C15   C19   A    
C74   N6    A    
C80   H44   S    
C71   H38   S    
C19   C21   A    
N16   Ni2   S    
C38   C42   A    
N12   Ni3   S    
N6    N11   A    
C71   N3    A    
C11   C14   A    
C35   H17   S    
C57   C59   A    
C11   C25   A    
C49   C54   A    
C12   C79   A    
C69   H36   S    
C63   H30   S    
C49   C57   A    
C12   N9    A    
C60   C62   A    
C33   H16   S    
N7    Ni3   S    
C37   C42   A    
C61   C63   A    
C72   C78   A    
C60   H27   S    
C63   C68   A    
C29   C78   S    
C40   H31   S    
C22   C25   A    
N11   Ni1   S    
C7    H23   S    
N5    Ni4   S    
C36   C46   A    
C10   C35   A    
C65   N15   A    
N8    Ni4   S    
C67   C71   A    
C30   C67   S    
C44   H10   S    
C44   C47   A    
C74   H41   S    
C52   H24   S    
C64   H33   S    
C9    C33   A    
C76   H43   S    
C7    C33   A    
C12   H12   S    
C23   C73   A    
C5    C68   S    
C1    N1    A    
C61   H28   S    
C52   C54   A    
N9    Ni2   S    
C76   N8    A    
C40   C45   A    
C46   C48   A    
C16   H14   S    
C50   C53   A    
C62   C66   A    
C45   C69   A    
C75   H42   S    
N4    N15   A    
C64   C67   A    
N1    Ni1   S    
N8    N9    A    
C4    C6    A    
C39   C43   A    
C46   H9    S    
C58   C59   A    
N3    Ni1   S    
N2    Ni1   S    
C50   C56   S    
C42   H13   S    
C51   C53   A    
C8    C35   A    
N15   Ni3   S    
C41   C56   A    
C24   H6    S    
C6    C80   A    
C47   C48   A    
C45   C49   S    
C70   H37   S    
N3    N14   A    
C20   H3    S    
C13   H49   S    
C41   N13   A    
C22   H5    S    
C62   H29   S    
C75   C77   A    
C3    C79   S    
C26   H47   S    
C52   C58   A    
C34   C74   A    
C16   N10   A    
N14   Ni4   S    
C20   C22   A    
C8    C68   A    
C16   C23   A    
C56   C70   A    
C13   C15   A    
C38   Cl1   S    
C13   C26   A    
C21   C24   A    
C10   C61   A    
C51   C59   A    
C17   C34   A    
C11   H48   S    
C39   C47   A    
N2    N13   A    
C21   H4    S    
C65   C78   A    
C28   H8    S    
C64   N14   A    
C27   C32   A    
C38   C48   A    
C54   H20   S    
C28   C31   A    
C39   Cl2   S    
C24   C26   A    
C3    C5    A    
N4    Ni2   S    
N1    N7    A    
C15   H2    S    
N6    Ni3   S    
C1    H1    S    
C55   H19   S    
C50   C55   A    
C40   N12   A    
C17   N11   A    
C9    C60   A    
N10   Ni2   S    
C37   C44   A    
C28   C30   A    
C51   H22   S    
C4    C77   S    
C29   C31   A    
C23   C37   S    
C7    C66   A    
C30   C32   A    
C57   H18   S    
C73   N5    A    
C53   H21   S    
C2    C4    A    
C3    C80   A    
C43   H11   S    
C34   C36   S    
C27   H7    S    
C18   C20   A    
C25   H45   S    
N13   Ni4   S    
C72   N4    A    
C8    H34   S    
C2    C5    A    
C6    C66   S    
C18   C32   S    
C73   H40   S    
C55   C58   A    
C70   N2    A    
C69   N16   A    
C65   H35   S    
C9    H25   S    
C36   C43   A    
C75   N7    A    
C17   H15   S    
C2    H46   S    
