data_mof_unit_17279.cif
_audit_creation_date              2012-10-26T19:40:39-0400
_audit_creation_method            fapswitch 2.2
_symmetry_space_group_name_H-M    P1
_symmetry_Int_Tables_number       1
_space_group_crystal_system       triclinic
_cell_length_a                    9.714827
_cell_length_b                    10.935162
_cell_length_c                    13.4673
_cell_angle_alpha                 90.081939
_cell_angle_beta                  72.38701
_cell_angle_gamma                 89.90574
_cell_volume                      1363.60280614

loop_
_atom_site_label
_atom_site_type_symbol
_atom_type_description
_atom_site_fract_x
_atom_site_fract_y
_atom_site_fract_z
_atom_type_partial_charge
C1    C     C_R   0.500375 0.734575 0.498810 0.553917
C2    C     C_R   0.375971 0.493762 0.814837 -0.000698
C3    C     C_2   0.613994 0.066819 0.497768 -0.152998
C4    C     C_R   0.422600 0.494644 0.700013 0.527009
C5    C     C_2   0.495033 0.133473 0.506593 -0.115591
C6    C     C_2   0.611895 0.932857 0.502411 -0.155872
C7    C     C_2   0.500156 0.866582 0.493703 -0.113891
C8    C     C_2   0.060573 0.586787 0.541829 0.009701
C9    C     C_2   0.901419 0.576106 0.554036 -0.011310
C10   C     C_R   0.499468 0.265434 0.501248 0.554078
C11   C     C_R   0.577523 0.498733 0.300141 0.549460
C12   C     C_R   0.437092 0.492617 0.978771 0.035556
C13   C     C_R   0.781861 0.398702 0.028651 -0.135598
C14   C     C_R   0.621506 0.484596 0.186806 -0.000949
C15   C     C_R   0.239132 0.541209 0.867612 -0.134685
C16   C     C_R   0.199960 0.562693 0.973960 -0.141192
C17   C     C_R   0.298299 0.542157 0.028681 -0.116967
C18   C     C_2   0.934634 0.457232 0.402679 0.717629
C19   C     C_R   0.471192 0.459419 0.872067 0.026662
C20   C     C_R   0.542762 0.474000 0.031247 0.031022
C21   C     C_R   0.676011 0.416300 0.978466 0.049872
C22   C     C_R   0.700577 0.373184 0.877327 -0.141831
C23   C     C_R   0.598557 0.391782 0.825805 -0.123493
C24   C     C_R   0.520102 0.510201 0.134960 -0.128274
C25   C     C_R   0.754502 0.432207 0.132612 -0.130496
Cu1   Cu    Cu3+1 0.361370 0.499980 0.499980 0.956768
Cu2   Cu    Cu3+1 0.638630 0.500020 0.500020 1.006252
H1    H     H_    0.834334 0.412108 0.171686 0.156588
H2    H     H_    0.422799 0.556430 0.178701 0.130535
H3    H     H_    0.163580 0.565861 0.826027 0.131296
H4    H     H_    0.260903 0.564744 0.110155 0.111382
H5    H     H_    0.094171 0.599817 0.013764 0.129184
H6    H     H_    0.620060 0.349581 0.750074 0.146828
H7    H     H_    0.717083 0.111296 0.488323 0.173537
H8    H     H_    0.085647 0.492481 0.265990 0.312627
H9    H     H_    0.389604 0.092688 0.520155 0.103610
H10   H     H_    0.707135 0.888027 0.511670 0.152953
H11   H     H_    0.405972 0.907658 0.480343 0.105013
H12   H     H_    0.097806 0.668634 0.571206 0.130729
H13   H     H_    0.112535 0.416681 0.491737 0.227341
H14   H     H_    0.828459 0.633886 0.612211 0.112495
H15   H     H_    0.798835 0.323758 0.837981 0.109501
H16   H     H_    0.883999 0.355372 0.988410 0.114749
N1    N     N_2   0.152660 0.501340 0.501130 -0.323683
N2    N     N_2   0.846520 0.501370 0.501160 -0.229709
O1    O     O_R   0.382960 0.678040 0.499980 -0.500905
O2    O     O_R   0.032035 0.535080 0.333511 -0.702076
O3    O     O_R   0.617100 0.678080 0.500020 -0.501921
O4    O     O_R   0.325800 0.499940 0.650950 -0.507014
O5    O     O_R   0.559930 0.499980 0.650990 -0.520488
O6    O     O_R   0.382900 0.321920 0.499980 -0.505791
O7    O     O_R   0.617040 0.321960 0.500020 -0.476809
O8    O     O_R   0.440070 0.500020 0.349010 -0.486521
O9    O     O_R   0.674200 0.500060 0.349050 -0.478534
O10   O     O_2   0.918943 0.352362 0.376643 -0.528996

loop_
_geom_bond_atom_site_label_1
_geom_bond_atom_site_label_2
_ccdc_geom_bond_type
C12   C17   A    
Cu2   O3    S    
C19   C23   A    
C18   N2    S    
C1    O3    A    
C9    N2    D    
C6    C7    D    
C8    H12   S    
C16   H5    S    
C2    C4    S    
C11   O8    A    
Cu2   O5    S    
C13   H16   S    
C4    O4    A    
C3    C5    D    
C3    C6    S    
C10   O7    A    
C18   O2    S    
Cu2   N2    S    
Cu2   O9    S    
Cu1   N1    S    
C5    C10   S    
C21   C22   A    
C20   C21   A    
C25   H1    S    
C2    C15   A    
C12   C20   A    
Cu1   Cu2   S    
C22   H15   S    
C11   O9    A    
C18   O10   D    
C10   O6    A    
C12   C19   A    
C7    H11   S    
C5    H9    S    
C22   C23   A    
C14   C25   A    
C17   H4    S    
C11   C14   S    
C1    O1    A    
C6    H10   S    
Cu1   O6    S    
Cu1   O1    S    
C13   C21   A    
C15   C16   A    
Cu1   O8    S    
C8    N1    D    
H13   N1    S    
Cu2   O7    S    
C15   H3    S    
Cu1   O4    S    
C14   C24   A    
C24   H2    S    
C8    C9    S    
C3    H7    S    
C23   H6    S    
C2    C19   A    
C1    C7    S    
C9    H14   S    
H8    O2    S    
C20   C24   A    
C4    O5    A    
C16   C17   A    
C13   C25   A    
