data_mof_unit_41101.cif
_audit_creation_date              2012-12-11T15:59:33-0500
_audit_creation_method            fapswitch 2.2
_symmetry_space_group_name_H-M    P1
_symmetry_Int_Tables_number       1
_space_group_crystal_system       triclinic
_cell_length_a                    10.716963
_cell_length_b                    10.785141
_cell_length_c                    17.108245
_cell_angle_alpha                 99.835936
_cell_angle_beta                  100.032485
_cell_angle_gamma                 60.518062
_cell_volume                      1686.68823128

loop_
_atom_site_label
_atom_site_type_symbol
_atom_type_description
_atom_site_fract_x
_atom_site_fract_y
_atom_site_fract_z
_atom_type_partial_charge
C1    C     C_R   0.355743 0.768065 0.397925 0.547564
C2    C     C_R   0.867965 0.203869 0.203660 0.014993
C3    C     C_R   0.881766 0.203661 0.287364 0.021119
C4    C     C_R   0.864017 0.438392 0.305331 -0.121874
C5    C     C_R   0.853486 0.442957 0.224599 -0.019341
C6    C     C_R   0.865845 0.083096 0.156322 -0.063637
C7    C     C_R   0.906934 0.957882 0.190165 -0.132251
C8    C     C_R   0.939047 0.953763 0.272337 -0.135908
C9    C     C_R   0.920620 0.077428 0.321051 -0.085788
C10   C     C_R   0.858828 0.329589 0.335760 -0.021769
C11   C     C_R   0.349963 0.826944 0.160978 -0.001845
C12   C     C_R   0.369218 0.346601 0.357411 0.558357
C13   C     C_R   0.434565 0.869366 0.221816 0.015831
C14   C     C_R   0.414999 0.877505 0.302700 0.034599
C15   C     C_R   0.276735 0.748787 0.258369 -0.141216
C16   C     C_R   0.279607 0.758859 0.180132 -0.148246
C17   C     C_R   0.537532 0.903730 0.204991 -0.104707
C18   C     C_R   0.614050 0.948856 0.265939 -0.149596
C19   C     C_R   0.589612 0.963465 0.344597 -0.080562
C20   C     C_R   0.479501 0.943453 0.362969 0.010236
C21   C     C_R   0.338761 0.811865 0.319996 0.011907
C22   C     C_R   0.298472 0.277724 0.799418 -0.003854
C23   C     C_R   0.783226 0.373431 0.406822 0.543927
C24   C     C_R   0.423729 0.176322 0.762140 0.034814
C25   C     C_R   0.477017 0.223895 0.711649 0.035711
C26   C     C_R   0.248659 0.446374 0.706909 -0.151847
C27   C     C_R   0.210578 0.411580 0.770257 -0.146248
C28   C     C_R   0.501452 0.030433 0.776686 -0.081729
C29   C     C_R   0.639659 0.942105 0.753972 -0.109736
C30   C     C_R   0.703128 0.998087 0.716697 -0.119439
C31   C     C_R   0.622949 0.137775 0.695829 -0.090586
C32   C     C_R   0.380709 0.352676 0.676297 -0.006403
C33   C     C_1   0.818098 0.342432 0.709063 -0.060570
C34   C     C_R   0.381343 0.715404 0.631509 0.540929
C35   C     C_1   0.845246 0.313796 0.776629 -0.050993
C36   C     C_1   0.358509 0.765145 0.713698 -0.056037
C37   C     C_1   0.325658 0.811713 0.780574 -0.062028
C38   C     C_R   0.897561 0.307828 0.090480 0.545359
C39   C     C_R   0.319383 0.299752 0.120163 0.561100
C40   C     C_R   0.297490 0.889674 0.085164 0.549347
C41   C     C_R   0.886520 0.297282 0.858949 0.548607
C42   C     C_R   0.278697 0.253387 0.877023 0.545592
C43   C     C_R   0.280969 0.880995 0.857703 0.538821
C44   C     C_R   0.407380 0.374747 0.600068 0.530212
C45   C     C_R   0.773132 0.380985 0.629837 0.534002
C46   C     C_1   0.342687 0.336622 0.274111 -0.033986
C47   C     C_1   0.331710 0.326407 0.203397 -0.042478
C48   C     C_R   0.858033 0.323738 0.171432 0.007727
Cr1   Cr    Cr6+3 0.608100 0.610860 0.522250 1.010554
Cr2   Cr    Cr6+3 0.288890 0.599990 0.488420 1.000620
Cr3   Cr    Cr6+3 0.603040 0.289190 0.489390 0.971842
Cr4   Cr    Cr6+3 0.053960 0.052250 0.967380 1.018214
Cr5   Cr    Cr6+3 0.059890 0.373160 0.992710 1.005900
Cr6   Cr    Cr6+3 0.373370 0.061690 0.991710 0.997857
H1    H     H_    0.861306 0.529687 0.344723 0.149083
H2    H     H_    0.690471 0.975532 0.251560 0.137977
H3    H     H_    0.650787 0.999377 0.390955 0.140744
H4    H     H_    0.175160 0.546787 0.682152 0.143253
H5    H     H_    0.456576 0.984267 0.806181 0.151229
H6    H     H_    0.112964 0.489537 0.796589 0.145090
H7    H     H_    0.698751 0.831719 0.767432 0.122176
H8    H     H_    0.812982 0.932394 0.702035 0.119130
H9    H     H_    0.675938 0.176586 0.666667 0.155649
H10   H     H_    0.829619 0.083439 0.093428 0.140714
H11   H     H_    0.910549 0.864687 0.152731 0.098381
H12   H     H_    0.969896 0.856869 0.298597 0.113216
H13   H     H_    0.941468 0.072819 0.385029 0.124092
H14   H     H_    0.225750 0.689648 0.270410 0.138539
H15   H     H_    0.569827 0.885881 0.146090 0.144667
H16   H     H_    0.220301 0.719310 0.134482 0.135424
O1    O     O_R   0.749810 0.499790 0.438040 -0.518575
O2    O     O_R   0.298970 0.468800 0.557390 -0.506361
O3    O     O_R   0.489400 0.255930 0.561910 -0.540261
O4    O     O_R   0.723890 0.306050 0.584610 -0.536386
O5    O     O_3   0.500010 0.500010 0.500020 -0.274748
O6    O     O_R   0.171100 0.914680 0.053100 -0.511450
O7    O     O_R   0.941680 0.184840 0.050710 -0.508447
O8    O     O_R   0.922080 0.403420 0.072610 -0.523360
O9    O     O_R   0.196880 0.369150 0.083850 -0.502406
O10   O     O_R   0.411730 0.181020 0.091530 -0.510310
O11   O     O_R   0.365010 0.944360 0.063320 -0.516223
O12   O     O_R   0.477660 0.726260 0.439290 -0.488300
O13   O     O_R   0.159380 0.906670 0.876210 -0.501097
O14   O     O_R   0.930820 0.177420 0.886730 -0.491375
O15   O     O_R   0.910360 0.395420 0.895720 -0.522075
O16   O     O_R   0.186010 0.361730 0.919870 -0.496530
O17   O     O_R   0.400000 0.173010 0.914630 -0.515262
O18   O     O_R   0.354140 0.936940 0.899340 -0.535487
O19   O     O_3   0.162410 0.162370 0.983930 -0.262144
O20   O     O_R   0.260150 0.743000 0.412270 -0.531065
O21   O     O_R   0.297740 0.466550 0.394720 -0.500957
O22   O     O_R   0.488080 0.253500 0.386430 -0.525320
O23   O     O_R   0.722670 0.303800 0.421940 -0.498493
O24   O     O_R   0.751130 0.502220 0.613520 -0.509559
O25   O     O_R   0.478890 0.728510 0.601960 -0.489179
O26   O     O_R   0.261470 0.745430 0.587750 -0.512838
C49   C     C_3   0.424015 0.009919 0.443358 -0.348150
H17   H     H_    0.400981 0.122772 0.452238 0.181059
H18   H     H_    0.319697 0.015174 0.447952 0.118994
H19   H     H_    0.505759 0.952210 0.491974 0.153432
C50   C     C_3   0.835503 0.579655 0.199525 -0.369181
H20   H     H_    0.804881 0.667285 0.248689 0.111107
H21   H     H_    0.938909 0.562946 0.183172 0.161290
H22   H     H_    0.748477 0.617818 0.149636 0.147227

loop_
_geom_bond_atom_site_label_1
_geom_bond_atom_site_label_2
_ccdc_geom_bond_type
C25   C31   A    
C1    C21   S    
C1    O20   A    
C43   O13   A    
C12   O21   A    
C19   C20   A    
Cr3   O4    S    
C49   H17   S    
C7    C8    A    
C22   C42   S    
C19   H3    S    
C26   C32   A    
C26   C27   A    
C50   H20   S    
C43   O18   A    
C14   C21   A    
C28   C29   A    
Cr5   O9    S    
Cr3   O5    S    
C27   H6    S    
Cr6   O17   S    
C15   C16   A    
C33   C45   S    
C18   C19   A    
C6    H10   S    
Cr4   O14   S    
Cr2   O2    S    
C17   H15   S    
Cr3   O3    S    
Cr2   O20   S    
C20   C49   S    
C8    C9    A    
Cr1   O5    S    
Cr5   O16   S    
C42   O16   A    
Cr1   O24   S    
C38   C48   S    
C18   H2    S    
C25   C32   A    
C50   H21   S    
C13   C14   A    
Cr4   O19   S    
C2    C6    A    
C45   O24   A    
C49   H18   S    
Cr6   O10   S    
C5    C48   A    
C29   H7    S    
C14   C20   A    
C16   H16   S    
C34   O25   A    
Cr6   O19   S    
C12   C46   S    
C38   O8    A    
C2    C48   A    
C1    O12   A    
C41   O14   A    
C8    H12   S    
Cr1   O25   S    
C23   O23   A    
C45   O4    A    
C39   O9    A    
Cr1   O12   S    
C37   C43   S    
Cr4   O13   S    
C9    H13   S    
C29   C30   A    
C3    C9    A    
C23   O1    A    
Cr3   O22   S    
C7    H11   S    
C11   C16   A    
C17   C18   A    
C32   C44   S    
C24   C25   A    
C26   H4    S    
Cr3   O23   S    
C50   H22   S    
C22   C27   A    
C30   H8    S    
C4    H1    S    
Cr5   O19   S    
C22   C24   A    
C4    C10   A    
Cr4   O7    S    
C49   H19   S    
C39   C47   S    
C28   H5    S    
C44   O3    A    
C46   C47   T    
C36   C37   T    
C40   O11   A    
C12   O22   A    
C24   C28   A    
C34   O26   A    
C4    C5    A    
Cr4   O6    S    
C6    C7    A    
C38   O7    A    
C10   C23   S    
C31   H9    S    
C41   O15   A    
C5    C50   S    
C13   C17   A    
C39   O10   A    
C2    C3    A    
C3    C10   A    
Cr2   O5    S    
Cr6   O18   S    
C11   C13   A    
Cr2   O26   S    
C30   C31   A    
C15   H14   S    
C33   C35   T    
C44   O2    A    
C34   C36   S    
C11   C40   S    
C35   C41   S    
Cr5   O8    S    
C40   O6    A    
Cr2   O21   S    
C15   C21   A    
Cr1   O1    S    
Cr5   O15   S    
C42   O17   A    
Cr6   O11   S    
