data_mof_unit_55818.cif
_audit_creation_date              2012-10-26T21:07:46-0400
_audit_creation_method            fapswitch 2.2
_symmetry_space_group_name_H-M    P1
_symmetry_Int_Tables_number       1
_space_group_crystal_system       triclinic
_cell_length_a                    10.800114
_cell_length_b                    9.090938
_cell_length_c                    7.79019
_cell_angle_alpha                 89.962875
_cell_angle_beta                  100.451044
_cell_angle_gamma                 89.979411
_cell_volume                      752.176356302

loop_
_atom_site_label
_atom_site_type_symbol
_atom_type_description
_atom_site_fract_x
_atom_site_fract_y
_atom_site_fract_z
_atom_type_partial_charge
C1    C     C_R   0.499725 0.220043 0.499960 0.544113
C2    C     C_1   0.499598 0.934620 0.499837 -0.041033
C3    C     C_3   0.976263 0.577642 0.872106 -0.007626
C4    C     C_3   0.113604 0.568017 0.960504 -0.301858
C5    C     C_3   0.105047 0.259479 0.319014 -0.010091
C6    C     C_3   0.008787 0.145042 0.239771 -0.344641
C7    C     C_R   0.499804 0.779964 0.499912 0.543559
C8    C     C_R   0.261004 0.500465 0.433125 0.497725
C9    C     C_R   0.739025 0.508903 0.566416 0.585185
C10   C     C_2   0.122132 0.505019 0.404222 0.227606
C11   C     C_2   0.876058 0.533943 0.592302 0.283315
C12   C     C_2   0.063730 0.613370 0.479389 0.238213
C13   C     C_2   0.926074 0.606559 0.468385 0.318078
C14   C     C_1   0.499564 0.065381 0.499920 -0.046091
Cu1   Cu    Cu3+1 0.500010 0.500000 0.669080 1.026715
Cu2   Cu    Cu3+1 0.499990 0.500000 0.330920 1.038639
H1    H     H_    0.902161 0.722609 0.255814 0.313301
H2    H     H_    0.974460 0.169964 0.099588 0.176768
H3    H     H_    0.052594 0.034062 0.251276 0.107967
H4    H     H_    0.927721 0.145272 0.309484 0.181177
H5    H     H_    0.207510 0.748110 0.528335 0.317446
H6    H     H_    0.915922 0.551315 0.969368 0.190961
H7    H     H_    0.957154 0.694126 0.829070 0.131190
H8    H     H_    0.175963 0.597468 0.867296 0.198166
H9    H     H_    0.131575 0.645547 0.072269 0.104563
H10   H     H_    0.136338 0.454280 0.007557 0.194038
H11   H     H_    0.138776 0.229928 0.458619 0.147000
H12   H     H_    0.184980 0.255690 0.246997 0.144016
N1    N     N_1   0.499980 0.500000 0.076820 -0.070689
N2    N     N_1   0.500020 0.500000 0.923180 -0.076418
O1    O     O_R   0.500010 0.288400 0.642760 -0.491767
O2    O     O_3   0.124958 0.734117 0.564132 -0.745688
O3    O     O_3   0.953401 0.472865 0.735825 -0.594430
O4    O     O_3   0.047815 0.399860 0.303120 -0.596743
O5    O     O_R   0.499990 0.711600 0.357240 -0.484146
O6    O     O_R   0.499990 0.288400 0.357240 -0.500889
O7    O     O_R   0.500010 0.711600 0.642760 -0.501447
O8    O     O_R   0.320690 0.500000 0.590310 -0.510012
O9    O     O_R   0.679310 0.500000 0.409690 -0.454541
O10   O     O_R   0.320680 0.500000 0.304730 -0.528807
O11   O     O_R   0.679320 0.500000 0.695270 -0.498959
O12   O     O_3   0.848494 0.676032 0.331296 -0.703865

loop_
_geom_bond_atom_site_label_1
_geom_bond_atom_site_label_2
_ccdc_geom_bond_type
C4    H10   S    
Cu1   O8    S    
Cu1   O1    S    
N1    N2    T    
C5    H12   S    
C11   C13   D    
C9    O11   A    
C2    C7    S    
C1    O1    A    
C5    O4    S    
C4    H9    S    
C7    O7    A    
C10   O4    S    
Cu2   O6    S    
C6    H3    S    
C9    C11   S    
C10   C12   D    
Cu2   O10   S    
C2    C14   T    
C13   O12   S    
C8    O8    A    
Cu2   O5    S    
C5    C6    S    
C4    H8    S    
H5    O2    S    
C6    H2    S    
C3    O3    S    
Cu2   O9    S    
Cu1   Cu2   S    
C11   O3    S    
C6    H4    S    
C12   C13   S    
Cu1   O11   S    
Cu1   N2    S    
C8    C10   S    
C3    H7    S    
H1    O12   S    
Cu1   O7    S    
C3    H6    S    
C1    C14   S    
C8    O10   A    
Cu2   N1    S    
C5    H11   S    
C7    O5    A    
C9    O9    A    
C12   O2    S    
C3    C4    S    
C1    O6    A    
