data_mof_unit_43915.cif
_audit_creation_date              2012-12-10T20:30:15-0500
_audit_creation_method            fapswitch 2.2
_symmetry_space_group_name_H-M    P1
_symmetry_Int_Tables_number       1
_space_group_crystal_system       triclinic
_cell_length_a                    9.918235
_cell_length_b                    10.668179
_cell_length_c                    13.098266
_cell_angle_alpha                 90.934592
_cell_angle_beta                  71.342164
_cell_angle_gamma                 90.816558
_cell_volume                      1312.85093794

loop_
_atom_site_label
_atom_site_type_symbol
_atom_type_description
_atom_site_fract_x
_atom_site_fract_y
_atom_site_fract_z
_atom_type_partial_charge
C1    C     C_R   0.498509 0.739854 0.505471 0.864976
C2    C     C_R   0.485112 0.452802 0.959330 0.047877
C3    C     C_R   0.458283 0.524255 0.878050 0.054557
C4    C     C_R   0.565863 0.510216 0.019565 0.080124
C5    C     C_R   0.634512 0.627997 0.987734 0.176777
C6    C     C_R   0.611652 0.693140 0.903810 -0.255138
C7    C     C_R   0.520272 0.644186 0.852360 -0.217608
C8    C     C_R   0.564844 0.462462 0.118363 -0.250975
C9    C     C_R   0.711931 0.634436 0.144596 -0.194433
C10   C     C_R   0.377968 0.471374 0.817375 -0.103688
C11   C     C_R   0.364341 0.933793 0.539069 0.131101
C12   C     C_R   0.421780 0.498860 0.703436 0.854760
C13   C     C_R   0.490485 0.870995 0.527635 -0.103528
C14   C     C_R   0.607836 0.937143 0.539416 -0.242675
C15   C     C_R   0.607286 0.066883 0.538644 -0.223504
C16   C     C_R   0.489498 0.128702 0.525879 -0.104630
C17   C     C_R   0.363986 0.061886 0.537814 0.132118
C18   C     C_3   0.265634 0.063398 0.472305 -0.506014
C19   C     C_3   0.264559 0.921778 0.474842 -0.473507
C20   C     C_R   0.908310 0.591970 0.553239 0.197269
C21   C     C_R   0.951069 0.416951 0.439345 -0.199863
C22   C     C_R   0.095897 0.418699 0.436416 0.249244
C23   C     C_R   0.497639 0.259899 0.504611 0.878414
C24   C     C_R   0.050184 0.591625 0.553617 0.160401
C25   C     C_3   0.007478 0.621038 0.670976 -0.507522
C26   C     C_3   0.854441 0.621084 0.670856 -0.485447
C27   C     C_R   0.578791 0.503018 0.296785 0.873260
C28   C     C_R   0.715543 0.684358 0.046412 -0.204194
C29   C     C_R   0.628116 0.528180 0.182889 -0.058530
C30   C     C_R   0.301548 0.360058 0.849820 -0.228241
C31   C     C_R   0.329362 0.287472 0.927564 -0.211123
C32   C     C_R   0.431769 0.326676 0.974471 0.211792
H1    H     H_    0.762018 0.685615 0.195142 0.148968
H2    H     H_    0.702816 0.117152 0.538996 0.170993
H3    H     H_    0.160982 0.104526 0.518065 0.197093
H4    H     H_    0.318425 0.100324 0.390085 0.211272
H5    H     H_    0.159853 0.881338 0.522582 0.199410
H6    H     H_    0.314120 0.877750 0.394136 0.210212
H7    H     H_    0.914217 0.348066 0.392523 0.155338
H8    H     H_    0.030568 0.543476 0.718425 0.219476
H9    H     H_    0.046197 0.715106 0.687376 0.197113
H10   H     H_    0.789468 0.543253 0.718247 0.234711
H11   H     H_    0.659485 0.784766 0.881036 0.145225
H12   H     H_    0.805046 0.715231 0.687074 0.193575
H13   H     H_    0.771182 0.772418 0.021194 0.134626
H14   H     H_    0.501839 0.382173 0.153368 0.179054
H15   H     H_    0.238487 0.319433 0.803434 0.156856
H16   H     H_    0.283890 0.193932 0.941540 0.140202
H17   H     H_    0.499938 0.699909 0.790474 0.142824
H18   H     H_    0.703582 0.889881 0.539933 0.168868
N1    N     N_R   0.856940 0.500860 0.500710 -0.114438
N2    N     N_R   0.142580 0.500820 0.500710 -0.120834
O1    O     O_R   0.385310 0.683210 0.499990 -0.614304
O2    O     O_R   0.614650 0.683240 0.500000 -0.622714
O3    O     O_R   0.328390 0.499940 0.653610 -0.621835
O4    O     O_R   0.557730 0.499980 0.653620 -0.603510
O5    O     O_R   0.385350 0.316760 0.500000 -0.598962
O6    O     O_R   0.614690 0.316790 0.500010 -0.624183
O7    O     O_R   0.442270 0.500020 0.346380 -0.584717
O8    O     O_R   0.671610 0.500060 0.346390 -0.612818
Zn1   Zn    Zn3+2 0.346870 0.499980 0.499990 0.956393
Zn2   Zn    Zn3+2 0.653130 0.500020 0.500010 0.940283
N3    N     N_2   0.190374 0.332252 0.367808 -0.257967
H19   H     H_    0.152595 0.242338 0.385563 0.199341
C33   C     C_3   0.215409 0.354405 0.254602 -0.798887
H20   H     H_    0.115301 0.345328 0.234094 0.221602
H21   H     H_    0.289139 0.282517 0.206881 0.230056
H22   H     H_    0.261343 0.449528 0.232533 0.265039
N4    N     N_2   0.492762 0.233925 0.023021 -0.335602
H23   H     H_    0.427814 0.157137 0.051219 0.217295
C34   C     C_3   0.635553 0.197725 0.959876 -0.796158
H24   H     H_    0.635137 0.153093 0.882679 0.240025
H25   H     H_    0.676492 0.129446 0.005617 0.234574
H26   H     H_    0.708324 0.280382 0.942648 0.254456

loop_
_geom_bond_atom_site_label_1
_geom_bond_atom_site_label_2
_ccdc_geom_bond_type
O6    Zn2   S    
C23   O6    A    
N3    C33   S    
C24   N2    A    
C27   C29   S    
C4    C8    A    
C26   H12   S    
C11   C19   S    
C8    C29   A    
O8    Zn2   S    
C20   N1    A    
C3    C7    A    
N2    Zn1   S    
C25   H8    S    
C5    C6    A    
C15   C16   A    
C2    C32   A    
C18   C19   S    
N4    C34   S    
C1    O1    A    
C19   H5    S    
C22   N3    S    
O1    Zn1   S    
C20   C24   A    
C16   C17   A    
C33   H21   S    
C18   H3    S    
C15   H2    S    
C9    C29   A    
C13   C14   A    
C9    H1    S    
N1    Zn2   S    
C6    C7    A    
C28   H13   S    
O7    Zn1   S    
C30   H15   S    
C24   C25   S    
C7    H17   S    
C25   H9    S    
C34   H25   S    
O2    Zn2   S    
C25   C26   S    
C2    C4    A    
C1    O2    A    
C19   H6    S    
C5    C28   A    
C10   C30   A    
C31   C32   A    
C21   H7    S    
C30   C31   A    
C33   H22   S    
C17   C18   S    
C12   O4    A    
C10   C12   S    
C6    H11   S    
C16   C23   S    
C31   H16   S    
O4    Zn2   S    
C1    C13   S    
C21   N1    A    
C26   H10   S    
C22   N2    A    
C23   O5    A    
C11   C17   A    
C4    C5    A    
C34   H26   S    
O5    Zn1   S    
C32   N4    S    
C27   O8    A    
C2    C3    A    
C34   H24   S    
C3    C10   A    
C27   O7    A    
C11   C13   A    
C14   H18   S    
C20   C26   S    
O3    Zn1   S    
N4    H23   S    
C8    H14   S    
C12   O3    A    
N3    H19   S    
C33   H20   S    
C14   C15   A    
C21   C22   A    
C18   H4    S    
C9    C28   A    
