data_mof_unit_52914.cif
_audit_creation_date              2012-12-10T18:15:12-0500
_audit_creation_method            fapswitch 2.2
_symmetry_space_group_name_H-M    P1
_symmetry_Int_Tables_number       1
_space_group_crystal_system       triclinic
_cell_length_a                    12.624586
_cell_length_b                    13.128678
_cell_length_c                    22.510446
_cell_angle_alpha                 90.896768
_cell_angle_beta                  100.669742
_cell_angle_gamma                 82.941354
_cell_volume                      3638.58325339

loop_
_atom_site_label
_atom_site_type_symbol
_atom_type_description
_atom_site_fract_x
_atom_site_fract_y
_atom_site_fract_z
_atom_type_partial_charge
C1    C     C_R   0.439215 0.691085 0.493543 0.913320
C2    C     C_R   0.266977 0.709032 0.005041 -0.099004
C3    C     C_R   0.267875 0.715534 0.942298 -0.091273
C4    C     C_R   0.368303 0.699736 0.921782 -0.077914
C5    C     C_R   0.467071 0.690299 0.963990 -0.039712
C6    C     C_R   0.566544 0.688658 0.943093 -0.155975
C7    C     C_R   0.663681 0.696191 0.985112 0.426385
C8    C     C_R   0.663867 0.687859 0.047587 -0.149487
C9    C     C_R   0.376193 0.691497 0.860167 0.457880
C10   C     C_R   0.563421 0.674794 0.880460 0.690597
C11   C     C_R   0.575384 0.526606 0.781806 0.356220
C12   C     C_R   0.499711 0.499583 0.611589 0.922036
C13   C     C_R   0.586340 0.495345 0.722810 -0.130650
C14   C     C_R   0.493887 0.509556 0.676184 -0.152818
C15   C     C_R   0.391404 0.533666 0.691790 -0.219684
C16   C     C_R   0.381277 0.560285 0.750883 -0.003332
C17   C     C_R   0.475675 0.580597 0.792344 0.056515
C18   C     C_R   0.514060 0.665310 0.254105 -0.129138
C19   C     C_R   0.524015 0.633433 0.313605 0.408174
C20   C     C_R   0.490099 0.538576 0.326155 -0.090319
C21   C     C_R   0.444165 0.478611 0.278471 -0.255898
C22   C     C_R   0.435977 0.510743 0.218766 -0.047904
C23   C     C_R   0.560380 0.309252 0.507613 0.883424
C24   C     C_R   0.471655 0.603997 0.206568 0.234363
C25   C     C_R   0.691005 0.071780 0.593338 0.387194
C26   C     C_R   0.595244 0.201828 0.521571 -0.138375
C27   C     C_R   0.309035 0.835437 0.442108 0.388291
C28   C     C_R   0.283894 0.939608 0.429541 -0.139270
C29   C     C_R   0.353105 0.008143 0.456503 -0.247992
C30   C     C_R   0.447988 0.973898 0.498796 0.118924
C31   C     C_R   0.463344 0.871700 0.519337 0.058250
C32   C     C_R   0.528118 0.037965 0.521271 0.070853
C33   C     C_R   0.613095 0.005399 0.570559 0.058777
C34   C     C_R   0.498459 0.506018 0.388802 0.891389
C35   C     C_R   0.616499 0.908558 0.596278 -0.164258
C36   C     C_R   0.542494 0.842803 0.571152 -0.189908
C37   C     C_R   0.526505 0.133357 0.494947 -0.247060
C38   C     C_R   0.680296 0.170663 0.569300 -0.186742
C39   C     C_R   0.400348 0.800458 0.486835 -0.190195
C40   C     C_R   0.115130 0.307233 0.448715 -0.081590
C41   C     C_R   0.794215 0.639259 0.564218 0.053931
C42   C     C_R   0.897894 0.667709 0.580577 -0.191802
C43   C     C_R   0.984567 0.609252 0.561363 -0.135893
C44   C     C_R   0.967798 0.521161 0.525780 0.018109
C45   C     C_R   0.564972 0.642817 0.127251 0.532783
C46   C     C_R   0.860933 0.493755 0.510712 0.223690
C47   C     C_R   0.051977 0.461911 0.501975 -0.005902
C48   C     C_R   0.035281 0.363651 0.476856 0.083819
C49   C     C_R   0.934033 0.330176 0.473456 -0.286231
C50   C     C_R   0.845586 0.401716 0.477720 -0.042792
C51   C     C_R   0.149966 0.499158 0.498818 0.004176
C52   C     C_R   0.207615 0.352071 0.444766 0.052772
C53   C     C_R   0.371227 0.658877 0.107917 0.512863
C54   C     C_R   0.366689 0.685726 0.046710 -0.092325
C55   C     C_R   0.466463 0.684533 0.026200 0.014579
C56   C     C_R   0.566243 0.673118 0.067622 -0.151197
H1    H     H_    0.416535 0.406455 0.287469 0.174470
H2    H     H_    0.403112 0.462866 0.182018 0.172395
H3    H     H_    0.734569 0.224449 0.589838 0.225677
H4    H     H_    0.677060 0.882033 0.635235 0.202850
H5    H     H_    0.468901 0.158922 0.454807 0.155866
H6    H     H_    0.329321 0.087723 0.444232 0.182196
H7    H     H_    0.212875 0.967293 0.396429 0.218190
H8    H     H_    0.547462 0.769044 0.592950 0.146512
H9    H     H_    0.272078 0.310571 0.425119 0.158123
H10   H     H_    0.917655 0.258104 0.451781 0.134416
H11   H     H_    0.170937 0.571059 0.518469 0.136565
H12   H     H_    0.727146 0.683847 0.579796 0.133475
H13   H     H_    0.064157 0.632640 0.576336 0.157076
H14   H     H_    0.911135 0.734615 0.608412 0.187177
H15   H     H_    0.318640 0.529573 0.658100 0.206315
H16   H     H_    0.540087 0.737947 0.244489 0.176016
N1    N     N_R   0.468943 0.635675 0.145564 -0.333767
N2    N     N_R   0.471262 0.647258 0.845147 -0.326390
N3    N     N_R   0.222200 0.444670 0.469780 -0.116662
N4    N     N_R   0.776960 0.554790 0.529910 -0.125428
O1    O     O_R   0.366740 0.627150 0.485570 -0.572744
O2    O     O_2   0.279761 0.652245 0.129728 -0.541598
O3    O     O_2   0.295298 0.733551 0.816692 -0.545172
O4    O     O_2   0.648330 0.690002 0.854654 -0.441426
O5    O     O_R   0.544830 0.662520 0.504870 -0.595166
O6    O     O_R   0.410930 0.482340 0.574190 -0.625900
O7    O     O_R   0.589010 0.517710 0.593490 -0.601844
O8    O     O_R   0.455170 0.337480 0.495130 -0.623219
O9    O     O_R   0.633260 0.372850 0.514430 -0.638113
O10   O     O_R   0.410990 0.482290 0.406510 -0.591134
O11   O     O_R   0.589070 0.517660 0.425810 -0.563364
O12   O     O_2   0.658752 0.615040 0.166138 -0.533332
Zn1   Zn    Zn3+2 0.381090 0.476380 0.487110 0.989672
Zn2   Zn    Zn3+2 0.618910 0.523620 0.512890 1.003537
C57   C     C_2   0.161623 0.726313 0.026491 0.632834
H17   H     H_    0.152063 0.779561 0.063026 0.099465
O13   O     O_2   0.086010 0.679590 0.004540 -0.462494
Cl1   Cl    Cl    0.574935 0.717884 0.370531 -0.550449
Cl2   Cl    Cl    0.799157 0.037000 0.653893 -0.542496
Cl3   Cl    Cl    0.226665 0.752967 0.397551 -0.540149
C58   C     C_2   0.163518 0.733270 0.898555 0.624918
H18   H     H_    0.145919 0.680952 0.861250 0.094554
O14   O     O_2   0.097136 0.807272 0.903617 -0.486882
C59   C     C_2   0.103909 0.203993 0.422094 0.370881
H19   H     H_    0.058861 0.151072 0.440643 0.083126
O15   O     O_2   0.145813 0.176702 0.378803 -0.564371
C60   C     C_2   0.762153 0.396646 0.423723 0.550936
H20   H     H_    0.710222 0.335866 0.418784 0.018958
O16   O     O_2   0.759443 0.453539 0.380855 -0.519930
Cl4   Cl    Cl    0.785596 0.717574 0.961127 -0.361033
C61   C     C_2   0.764523 0.700609 0.091818 0.633320
H21   H     H_    0.759900 0.748954 0.131036 0.072580
O17   O     O_2   0.852271 0.654979 0.086038 -0.445402
Cl5   Cl    Cl    0.675339 0.473967 0.843336 -0.514417
C62   C     C_2   0.692532 0.443416 0.712169 0.534395
H22   H     H_    0.767484 0.463111 0.739350 0.124150
O18   O     O_2   0.697371 0.375273 0.674888 -0.557020
C63   C     C_2   0.277499 0.546735 0.770142 0.549776
H23   H     H_    0.275972 0.533836 0.817444 0.040550
O19   O     O_2   0.193000 0.547752 0.733397 -0.555742

loop_
_geom_bond_atom_site_label_1
_geom_bond_atom_site_label_2
_ccdc_geom_bond_type
C55   C56   A    
C1    O1    A    
C41   C42   A    
C62   H22   S    
C52   N3    A    
C8    C56   A    
C46   N4    A    
C63   H23   S    
C7    C8    A    
C53   C54   A    
O1    Zn1   S    
C40   C59   S    
O6    Zn1   S    
C18   C24   A    
C28   C29   A    
C51   N3    A    
C9    O3    S    
C5    C6    A    
C24   N1    S    
C1    O5    A    
C15   C16   A    
C42   H14   S    
C45   N1    A    
C18   C19   A    
C34   O10   A    
C23   C26   S    
C49   H10   S    
C29   H6    S    
C19   C20   A    
C45   C56   A    
C27   C39   A    
C16   C17   A    
C61   H21   S    
C10   N2    A    
C42   C43   A    
C44   C47   A    
C20   C34   S    
C50   C60   S    
C43   H13   S    
C21   C22   A    
C11   Cl5   S    
C61   O17   D    
C27   Cl3   S    
C58   O14   D    
C44   C46   A    
C58   H18   S    
C41   H12   S    
C18   H16   S    
C23   O8    A    
C45   O12   S    
C62   O18   D    
C2    C54   A    
C57   H17   S    
C10   O4    S    
C26   C38   A    
C47   C51   A    
C40   C52   A    
C12   O7    A    
C35   H4    S    
C35   C36   A    
C43   C44   A    
C21   H1    S    
C29   C30   A    
C25   C38   A    
C57   O13   D    
C3    C58   S    
C1    C39   S    
C37   H5    S    
C47   C48   A    
C59   O15   D    
C7    Cl4   S    
C12   O6    A    
C60   O16   D    
C51   H11   S    
C32   C37   A    
C19   Cl1   S    
O5    Zn2   S    
C48   C49   A    
C12   C14   S    
C25   Cl2   S    
C23   O9    A    
C17   N2    S    
C22   C24   A    
C9    N2    A    
C3    C4    A    
C8    C61   S    
C27   C28   A    
C40   C48   A    
O7    Zn2   S    
C54   C55   A    
C11   C17   A    
C31   C36   A    
C5    C55   A    
C53   N1    A    
C4    C5    A    
O10   Zn1   S    
C16   C63   S    
C22   H2    S    
C63   O19   D    
O9    Zn2   S    
C26   C37   A    
C6    C7    A    
C15   H15   S    
C46   C50   A    
C32   C33   A    
C2    C3    A    
C13   C62   S    
C36   H8    S    
C41   N4    A    
C30   C32   A    
C11   C13   A    
C30   C31   A    
C59   H19   S    
C33   C35   A    
C31   C39   A    
C53   O2    S    
C34   O11   A    
C2    C57   S    
C6    C10   A    
N3    Zn1   S    
C38   H3    S    
C28   H7    S    
C20   C21   A    
C49   C50   A    
O8    Zn1   S    
O11   Zn2   S    
C25   C33   A    
C60   H20   S    
C14   C15   A    
C4    C9    A    
C13   C14   A    
C52   H9    S    
N4    Zn2   S    
