data_mof_unit_33442.cif
_audit_creation_date              2012-12-10T16:59:13-0500
_audit_creation_method            fapswitch 2.2
_symmetry_space_group_name_H-M    P1
_symmetry_Int_Tables_number       1
_space_group_crystal_system       triclinic
_cell_length_a                    7.669322
_cell_length_b                    8.642895
_cell_length_c                    27.554286
_cell_angle_alpha                 90.6359
_cell_angle_beta                  87.189535
_cell_angle_gamma                 93.641067
_cell_volume                      1820.50228774

loop_
_atom_site_label
_atom_site_type_symbol
_atom_type_description
_atom_site_fract_x
_atom_site_fract_y
_atom_site_fract_z
_atom_type_partial_charge
C1    C     C_R   0.545182 0.794271 0.497474 0.868386
C2    C     C_R   0.532639 0.677234 0.127612 0.013056
C3    C     C_R   0.518913 0.498863 0.647177 -0.228172
C4    C     C_R   0.485229 0.519290 0.353566 -0.207080
C5    C     C_R   0.578381 0.664368 0.025552 0.114319
C6    C     C_R   0.442272 0.398306 0.975598 0.119532
C7    C     C_R   0.394248 0.419317 0.025293 -0.176693
C8    C     C_R   0.618131 0.647924 0.974874 -0.164532
C9    C     C_R   0.474885 0.545480 0.050676 0.008175
C10   C     C_R   0.542821 0.517527 0.950006 0.008154
C11   C     C_R   0.630126 0.799288 0.051987 -0.174580
C12   C     C_R   0.454221 0.205593 0.500985 0.867856
C13   C     C_R   0.401234 0.257507 0.951069 -0.180844
C14   C     C_R   0.612945 0.803466 0.102295 -0.151218
C15   C     C_R   0.427252 0.245243 0.901187 -0.217287
C16   C     C_R   0.504617 0.499495 0.594249 0.912624
C17   C     C_R   0.495900 0.503994 0.405980 0.903206
C18   C     C_R   0.738728 0.751021 0.948088 0.366623
C19   C     C_R   0.263369 0.322022 0.050646 0.397614
C20   C     C_2   0.568659 0.956116 0.492959 0.173998
C21   C     C_2   0.428548 0.043266 0.502023 0.162295
C22   C     C_R   0.658380 0.618539 0.821174 0.554069
C23   C     C_R   0.569187 0.504520 0.899013 -0.131824
C24   C     C_R   0.364140 0.428978 0.178193 0.570098
C25   C     C_R   0.514067 0.365733 0.824014 0.585961
C26   C     C_R   0.528604 0.672959 0.178272 0.570117
C27   C     C_R   0.390843 0.496050 0.729641 0.464691
C28   C     C_R   0.339286 0.611540 0.284000 0.474811
C29   C     C_R   0.369556 0.489720 0.679355 0.396623
C30   C     C_R   0.355753 0.607524 0.334396 0.376395
C31   C     C_R   0.686616 0.504819 0.665839 -0.297859
C32   C     C_R   0.604885 0.446781 0.322322 -0.302851
C33   C     C_R   0.706685 0.500731 0.715477 -0.171965
C34   C     C_R   0.453146 0.552339 0.101848 -0.137547
C35   C     C_R   0.593113 0.457281 0.272396 -0.217728
C36   C     C_R   0.559801 0.495910 0.747427 0.130988
C37   C     C_R   0.461071 0.539094 0.253364 0.157807
C38   C     C_3   0.771764 0.999611 0.871830 -0.149442
C39   C     C_3   0.980084 0.276158 0.138010 -0.175953
C40   C     C_3   0.316444 0.837512 0.372434 -0.202222
C41   C     C_3   0.140044 0.322472 0.662836 -0.242971
C42   C     C_3   0.052569 0.609867 0.266706 -0.248844
C43   C     C_3   0.199973 0.644472 0.771036 -0.239206
C44   C     C_3   0.004627 0.767563 0.981108 -0.233004
C45   C     C_R   0.658312 0.625862 0.872235 -0.216568
C46   C     C_3   0.020597 0.318624 0.005837 -0.294843
C47   C     C_3   0.777242 0.012991 0.433053 -0.220454
C48   C     C_3   0.203279 0.986113 0.557709 -0.199529
C49   C     C_R   0.356114 0.432517 0.127393 -0.242561
C50   C     C_R   0.744186 0.749491 0.897105 0.451545
C51   C     C_R   0.251648 0.323087 0.101516 0.485907
C52   C     C_R   0.503489 0.370573 0.874634 0.008893
H1    H     H_    0.803296 0.511962 0.642009 0.215143
H2    H     H_    0.897825 0.277665 0.106054 0.150606
H3    H     H_    0.995813 0.394548 0.154292 0.120924
H4    H     H_    0.908433 0.200670 0.165612 0.198671
H5    H     H_    0.331890 0.903825 0.337934 0.185747
H6    H     H_    0.444432 0.835377 0.389706 0.106732
H7    H     H_    0.227291 0.899751 0.397636 0.198812
H8    H     H_    0.018990 0.310007 0.642357 0.174666
H9    H     H_    0.106264 0.284064 0.700692 0.207614
H10   H     H_    0.235289 0.245098 0.645023 0.125507
H11   H     H_    0.003744 0.590340 0.304951 0.194700
H12   H     H_    0.706102 0.380634 0.336535 0.187504
H13   H     H_    0.060765 0.497106 0.247141 0.159726
H14   H     H_    0.954769 0.675868 0.248717 0.215953
H15   H     H_    0.160339 0.700621 0.737483 0.189228
H16   H     H_    0.308399 0.715235 0.787578 0.164664
H17   H     H_    0.086144 0.641006 0.797530 0.224080
H18   H     H_    0.663271 0.906102 0.121245 0.194036
H19   H     H_    0.384861 0.137738 0.883501 0.188896
H20   H     H_    0.681335 0.905002 0.034842 0.209726
H21   H     H_    0.350565 0.154174 0.969882 0.205539
H22   H     H_    0.065354 0.715048 0.947801 0.160132
H23   H     H_    0.014612 0.383990 0.463713 0.203910
H24   H     H_    0.968221 0.676826 0.008704 0.142897
H25   H     H_    0.104779 0.849345 0.996706 0.212721
H26   H     H_    0.080481 0.383045 0.973916 0.169745
H27   H     H_    0.963540 0.401518 0.032423 0.128079
H28   H     H_    0.911379 0.241175 0.992825 0.210355
H29   H     H_    0.683848 0.078741 0.412941 0.123097
H30   H     H_    0.777995 0.891590 0.419232 0.163218
H31   H     H_    0.910048 0.068640 0.425542 0.192149
H32   H     H_    0.179806 0.106402 0.569620 0.157099
H33   H     H_    0.299145 0.935349 0.581090 0.125914
H34   H     H_    0.985356 0.615858 0.536327 0.199290
H35   H     H_    0.077524 0.916166 0.562938 0.193096
H36   H     H_    0.836705 0.501982 0.729220 0.208117
H37   H     H_    0.685991 0.401168 0.248312 0.161786
H38   H     H_    0.755822 0.049558 0.909039 0.156859
H39   H     H_    0.642934 0.985713 0.854822 0.166081
H40   H     H_    0.855749 0.084098 0.849733 0.192200
N1    N     N_R   0.581291 0.492148 0.798587 -0.330718
N2    N     N_R   0.450391 0.547588 0.202073 -0.330848
N3    N     N_2   0.950320 0.457960 0.486880 -0.150791
N4    N     N_2   0.049680 0.542040 0.513120 -0.149331
O1    O     O_R   0.389250 0.738570 0.503220 -0.579756
O2    O     O_2   0.289745 0.307532 0.203662 -0.512684
O3    O     O_2   0.605646 0.790837 0.203609 -0.557004
O4    O     O_2   0.453505 0.237541 0.800160 -0.561589
O5    O     O_3   0.853693 0.857971 0.872065 -0.560473
O6    O     O_3   0.141374 0.212346 0.125355 -0.526253
O7    O     O_3   0.241895 0.686437 0.364662 -0.589506
O8    O     O_3   0.203085 0.479448 0.661944 -0.598667
O9    O     O_3   0.214379 0.697325 0.264246 -0.580043
O10   O     O_3   0.245792 0.491333 0.761563 -0.608251
O11   O     O_3   0.858980 0.850667 0.970384 -0.611604
O12   O     O_R   0.610750 0.261430 0.496780 -0.579777
O13   O     O_3   0.142133 0.226560 0.026977 -0.589088
O14   O     O_3   0.738777 0.017876 0.483655 -0.580640
O15   O     O_3   0.256910 0.981027 0.507979 -0.587722
O16   O     O_R   0.678390 0.711630 0.494810 -0.606685
O17   O     O_R   0.321610 0.288370 0.505190 -0.620002
O18   O     O_R   0.355440 0.513440 0.575450 -0.575487
O19   O     O_R   0.644560 0.486560 0.424550 -0.630934
O20   O     O_R   0.644590 0.486500 0.567040 -0.643606
O21   O     O_R   0.355410 0.513500 0.432960 -0.581213
O22   O     O_2   0.729386 0.737900 0.794188 -0.534333
Zn1   Zn    Zn3+2 0.306940 0.517990 0.505620 0.999885
Zn2   Zn    Zn3+2 0.693060 0.482010 0.494380 0.973938

loop_
_geom_bond_atom_site_label_1
_geom_bond_atom_site_label_2
_ccdc_geom_bond_type
C26   N2    A    
C25   N1    A    
C23   C45   A    
C27   C29   A    
O12   Zn2   S    
N4    Zn1   S    
N3    N4    D    
C41   H9    S    
H23   N3    S    
C51   O6    S    
C48   H32   S    
C17   O19   A    
C24   O2    S    
C45   C50   A    
C44   H25   S    
C35   C37   A    
C33   H36   S    
C5    C11   A    
C38   O5    S    
O21   Zn1   S    
C1    O16   A    
C46   H27   S    
C11   C14   A    
C39   H2    S    
C38   H40   S    
C33   C36   A    
C44   H24   S    
C47   H30   S    
C3    C29   A    
C18   O11   S    
O17   Zn1   S    
C36   N1    S    
C39   H3    S    
C43   H16   S    
C49   C51   A    
C30   O7    S    
C42   H13   S    
C31   C33   A    
C47   H31   S    
O18   Zn1   S    
C17   O21   A    
C26   O3    S    
C2    C34   A    
C12   O12   A    
C43   H17   S    
C40   H7    S    
C14   H18   S    
C41   H10   S    
C16   O20   A    
C21   O15   S    
C19   O13   S    
C40   H6    S    
C32   C35   A    
C32   H12   S    
C1    O1    A    
C46   H26   S    
C11   H20   S    
C27   O10   S    
C38   H39   S    
C8    C18   A    
O20   Zn2   S    
C29   O8    S    
C43   O10   S    
O1    Zn1   S    
C44   H22   S    
C5    C9    A    
C24   N2    A    
C25   O4    S    
C39   H4    S    
C28   O9    S    
C22   C45   A    
C48   H35   S    
C2    C26   A    
C15   C52   A    
C31   H1    S    
C3    C31   A    
C4    C32   A    
H34   N4    S    
C50   O5    S    
C20   O14   S    
C4    C17   S    
C35   H37   S    
C43   H15   S    
C13   H21   S    
C7    C19   A    
C13   C15   A    
C9    C34   A    
C10   C23   A    
C22   N1    A    
C18   C50   A    
C39   O6    S    
O16   Zn2   S    
C12   O17   A    
C44   O11   S    
C24   C49   A    
C7    C9    A    
C22   O22   S    
C1    C20   S    
C40   H5    S    
C41   H8    S    
C16   O18   A    
C6    C10   A    
C5    C8    A    
C6    C7    A    
N3    Zn2   S    
C47   O14   S    
C15   H19   S    
C38   H38   S    
C41   O8    S    
C27   C36   A    
C28   C30   A    
C25   C52   A    
C40   O7    S    
C46   H28   S    
C23   C52   A    
C28   C37   A    
C12   C21   S    
C37   N2    S    
C47   H29   S    
C2    C14   A    
C42   O9    S    
C19   C51   A    
C48   O15   S    
C20   C21   D    
C34   C49   A    
C8    C10   A    
O19   Zn2   S    
C46   O13   S    
C42   H14   S    
C48   H33   S    
C42   H11   S    
C4    C30   A    
C3    C16   S    
C6    C13   A    
