data_mof_unit_61247.cif
_audit_creation_date              2012-12-10T20:45:29-0500
_audit_creation_method            fapswitch 2.2
_symmetry_space_group_name_H-M    P1
_symmetry_Int_Tables_number       1
_space_group_crystal_system       triclinic
_cell_length_a                    28.029845
_cell_length_b                    26.087697
_cell_length_c                    15.184386
_cell_angle_alpha                 90.040364
_cell_angle_beta                  97.485722
_cell_angle_gamma                 89.911915
_cell_volume                      11008.6966428

loop_
_atom_site_label
_atom_site_type_symbol
_atom_type_description
_atom_site_fract_x
_atom_site_fract_y
_atom_site_fract_z
_atom_type_partial_charge
C1    C     C_R   0.408636 0.098334 0.490459 0.501412
C2    C     C_R   0.022503 0.520001 0.115286 0.036429
C3    C     C_3   0.896191 0.505292 0.828462 -0.316127
C4    C     C_3   0.322932 0.047334 0.596765 -0.312623
C5    C     C_3   0.359430 0.920305 0.662101 -0.295884
C6    C     C_3   0.822936 0.547334 0.596767 -0.312614
C7    C     C_3   0.859431 0.420302 0.662107 -0.295889
C8    C     C_3   0.218987 0.143353 0.580794 -0.297198
C9    C     C_3   0.252943 0.839772 0.656412 -0.281832
C10   C     C_3   0.718991 0.643347 0.580800 -0.297197
C11   C     C_3   0.752944 0.339771 0.656417 -0.281833
C12   C     C_R   0.449227 0.968569 0.112341 0.101450
C13   C     C_R   0.949226 0.468571 0.112341 0.101451
C14   C     C_R   0.447351 0.963411 0.021012 -0.124026
C15   C     C_R   0.947350 0.463414 0.021012 -0.124024
C16   C     C_R   0.631767 0.864304 0.516670 0.043189
C17   C     C_R   0.630335 0.137053 0.514394 0.026958
C18   C     C_R   0.131769 0.364305 0.516672 0.043182
C19   C     C_R   0.130336 0.637052 0.514395 0.026958
C20   C     C_R   0.675981 0.880055 0.491306 -0.206022
C21   C     C_R   0.408966 0.901279 0.489572 0.528514
C22   C     C_R   0.674701 0.122707 0.487943 -0.182383
C23   C     C_R   0.175979 0.380052 0.491286 -0.206024
C24   C     C_R   0.174701 0.622706 0.487942 -0.182383
C25   C     C_R   0.716073 0.847516 0.500136 -0.002360
C26   C     C_R   0.714102 0.156172 0.497535 0.057216
C27   C     C_R   0.216071 0.347516 0.500115 -0.002359
C28   C     C_R   0.214102 0.656171 0.497534 0.057217
C29   C     C_R   0.711140 0.797463 0.532788 0.182305
C30   C     C_R   0.708096 0.205815 0.531958 0.180109
C31   C     C_R   0.211144 0.297467 0.532789 0.182303
C32   C     C_R   0.908636 0.598334 0.490459 0.501415
C33   C     C_R   0.208097 0.705814 0.531959 0.180110
C34   C     C_R   0.667556 0.781796 0.559562 -0.112487
C35   C     C_R   0.664193 0.220063 0.559000 -0.117358
C36   C     C_R   0.167564 0.281803 0.559586 -0.112492
C37   C     C_R   0.164195 0.720061 0.559003 -0.117358
C38   C     C_R   0.591766 0.901582 0.509328 0.516260
C39   C     C_R   0.591482 0.098646 0.508822 0.516575
C40   C     C_R   0.091766 0.401582 0.509328 0.516259
C41   C     C_R   0.091482 0.598646 0.508822 0.516576
C42   C     C_R   0.627592 0.814507 0.551317 0.113724
C43   C     C_R   0.908966 0.401279 0.489572 0.528505
C44   C     C_R   0.624903 0.186622 0.549334 0.112584
C45   C     C_R   0.127599 0.314512 0.551342 0.113720
C46   C     C_R   0.124905 0.686621 0.549337 0.112583
C47   C     C_R   0.298261 0.167745 0.547156 0.187344
C48   C     C_R   0.292610 0.836268 0.523262 0.158932
C49   C     C_R   0.798262 0.667745 0.547159 0.187344
C50   C     C_R   0.792609 0.336269 0.523264 0.158930
C51   C     C_R   0.338016 0.134200 0.553023 0.097944
C52   C     C_R   0.330464 0.872154 0.528779 0.099800
C53   C     C_R   0.838017 0.634201 0.553025 0.097943
C54   C     C_R   0.483300 0.984114 0.975803 -0.006565
C55   C     C_R   0.830464 0.372155 0.528781 0.099802
C56   C     C_R   0.291432 0.203973 0.477300 0.186021
C57   C     C_R   0.296267 0.790316 0.475313 0.200388
C58   C     C_R   0.791431 0.703971 0.477301 0.186023
C59   C     C_R   0.796265 0.290318 0.475312 0.200388
C60   C     C_R   0.370030 0.136329 0.488496 0.032592
C61   C     C_R   0.371267 0.862122 0.485898 0.050398
C62   C     C_R   0.870030 0.636329 0.488496 0.032592
C63   C     C_R   0.871267 0.362123 0.485898 0.050396
C64   C     C_R   0.361493 0.170900 0.416755 0.077527
C65   C     C_R   0.983299 0.484114 0.975803 -0.006563
C66   C     C_R   0.374557 0.816435 0.436695 0.080845
C67   C     C_R   0.861491 0.670898 0.416753 0.077528
C68   C     C_R   0.874555 0.316437 0.436693 0.080834
C69   C     C_R   0.322175 0.204225 0.412017 -0.091253
C70   C     C_R   0.336120 0.781569 0.431052 -0.101503
C71   C     C_R   0.822173 0.704223 0.412017 -0.091253
C72   C     C_R   0.836117 0.281572 0.431048 -0.101493
C73   C     C_R   0.489783 0.000458 0.257334 0.531904
C74   C     C_R   0.989783 0.500458 0.257334 0.531902
C75   C     C_R   0.510768 0.000127 0.741879 0.534385
C76   C     C_R   0.523606 0.009160 0.023944 -0.025912
C77   C     C_R   0.010768 0.500127 0.741879 0.534386
C78   C     C_R   0.486653 0.997096 0.160181 0.019622
C79   C     C_R   0.986653 0.497097 0.160181 0.019622
C80   C     C_R   0.515495 0.000842 0.838191 0.045756
C81   C     C_R   0.015495 0.500842 0.838191 0.045756
C82   C     C_R   0.562412 0.024290 0.977628 0.053638
C83   C     C_R   0.062413 0.524288 0.977628 0.053637
C84   C     C_R   0.557060 0.021224 0.885200 -0.154293
C85   C     C_R   0.057060 0.521223 0.885200 -0.154294
C86   C     C_R   0.478565 0.981979 0.882408 0.135551
C87   C     C_R   0.023606 0.509160 0.023944 -0.025914
C88   C     C_R   0.978565 0.481980 0.882408 0.135551
C89   C     C_2   0.550925 0.063629 0.157809 0.589075
C90   C     C_2   0.050927 0.563627 0.157810 0.589077
C91   C     C_3   0.548838 0.779205 0.505501 -0.282521
C92   C     C_3   0.545526 0.219682 0.500142 -0.264379
C93   C     C_3   0.048845 0.279200 0.505574 -0.282511
C94   C     C_3   0.045528 0.719683 0.500148 -0.264378
C95   C     C_3   0.373227 0.152109 0.265174 -0.288820
C96   C     C_3   0.430998 0.754621 0.381825 -0.307443
C97   C     C_3   0.873221 0.652106 0.265171 -0.288818
C98   C     C_R   0.522502 0.020002 0.115286 0.036429
C99   C     C_3   0.931014 0.254623 0.381891 -0.307430
C100  C     C_2   0.762587 0.866830 0.475556 0.624758
C101  C     C_2   0.761290 0.137516 0.475333 0.604025
C102  C     C_2   0.262581 0.366828 0.475513 0.624757
C103  C     C_2   0.261290 0.637514 0.475330 0.604023
C104  C     C_3   0.368528 0.973208 0.150176 -0.270223
C105  C     C_3   0.868527 0.473213 0.150176 -0.270223
C106  C     C_2   0.610931 0.037846 0.022122 0.604842
C107  C     C_2   0.110932 0.537843 0.022122 0.604842
C108  C     C_3   0.396190 0.005289 0.828464 -0.316127
H1    H     H_    0.316159 0.231643 0.358119 0.174352
H2    H     H_    0.917354 0.442502 0.986123 0.123791
H3    H     H_    0.694920 0.647981 0.632833 0.135290
H4    H     H_    0.732593 0.380346 0.539282 0.238936
H5    H     H_    0.771016 0.372927 0.692083 0.130939
H6    H     H_    0.772995 0.304146 0.677604 0.180887
H7    H     H_    0.716112 0.336658 0.675277 0.140221
H8    H     H_    0.586103 0.033424 0.849309 0.149385
H9    H     H_    0.086104 0.533422 0.849310 0.149384
H10   H     H_    0.664518 0.743523 0.585827 0.119386
H11   H     H_    0.660167 0.258233 0.585318 0.127564
H12   H     H_    0.164531 0.243534 0.585868 0.119393
H13   H     H_    0.160170 0.758231 0.585323 0.127563
H14   H     H_    0.605836 0.088045 0.247130 0.343117
H15   H     H_    0.105840 0.588040 0.247130 0.343118
H16   H     H_    0.588127 0.771024 0.629652 0.245949
H17   H     H_    0.336715 0.746831 0.392348 0.149874
H18   H     H_    0.540834 0.809625 0.454553 0.156102
H19   H     H_    0.562682 0.744637 0.474237 0.125819
H20   H     H_    0.514830 0.769162 0.531489 0.151087
H21   H     H_    0.583516 0.229828 0.625084 0.250221
H22   H     H_    0.558899 0.254216 0.468253 0.139185
H23   H     H_    0.510919 0.229261 0.524518 0.159746
H24   H     H_    0.538709 0.188610 0.450049 0.157154
H25   H     H_    0.088147 0.271042 0.629718 0.245949
H26   H     H_    0.040834 0.309610 0.454611 0.156116
H27   H     H_    0.062688 0.244627 0.474322 0.125809
H28   H     H_    0.816156 0.731641 0.358117 0.174340
H29   H     H_    0.014842 0.269160 0.531580 0.151077
H30   H     H_    0.083519 0.729827 0.625090 0.250221
H31   H     H_    0.058901 0.754217 0.468261 0.139184
H32   H     H_    0.010921 0.729262 0.524526 0.159746
H33   H     H_    0.038711 0.688612 0.450054 0.157156
H34   H     H_    0.427829 0.162441 0.369967 0.252999
H35   H     H_    0.399139 0.157814 0.216625 0.157547
H36   H     H_    0.338930 0.171412 0.239127 0.153324
H37   H     H_    0.366870 0.110332 0.271916 0.154149
H38   H     H_    0.442854 0.832999 0.399141 0.252201
H39   H     H_    0.836711 0.246835 0.392339 0.149883
H40   H     H_    0.466002 0.754156 0.354917 0.132867
H41   H     H_    0.404999 0.732929 0.334591 0.163458
H42   H     H_    0.435765 0.735633 0.447876 0.148727
H43   H     H_    0.927826 0.662438 0.369962 0.252998
H44   H     H_    0.899133 0.657809 0.216620 0.157544
H45   H     H_    0.838924 0.671410 0.239126 0.153321
H46   H     H_    0.866864 0.610329 0.271915 0.154146
H47   H     H_    0.942839 0.333012 0.399096 0.252204
H48   H     H_    0.966017 0.254159 0.354977 0.132864
H49   H     H_    0.905022 0.232901 0.334693 0.163455
H50   H     H_    0.679341 0.918225 0.464742 0.156362
H51   H     H_    0.935792 0.235666 0.447968 0.148722
H52   H     H_    0.756414 0.936990 0.530813 0.298918
H53   H     H_    0.833764 0.142302 0.496814 0.336609
H54   H     H_    0.256411 0.436993 0.530752 0.298921
H55   H     H_    0.333765 0.642299 0.496812 0.336609
H56   H     H_    0.407293 0.906864 0.137194 0.247724
H57   H     H_    0.343915 0.954231 0.191671 0.153434
H58   H     H_    0.350791 0.974558 0.080335 0.115467
H59   H     H_    0.375267 0.012957 0.175055 0.168617
H60   H     H_    0.907290 0.406868 0.137193 0.247723
H61   H     H_    0.679249 0.084317 0.462951 0.180527
H62   H     H_    0.843914 0.454237 0.191669 0.153433
H63   H     H_    0.850790 0.474565 0.080334 0.115467
H64   H     H_    0.875267 0.512962 0.175055 0.168616
H65   H     H_    0.668856 0.083896 0.025345 0.351329
H66   H     H_    0.168858 0.583891 0.025346 0.351329
H67   H     H_    0.423803 0.930175 0.840631 0.242796
H68   H     H_    0.363941 0.988302 0.852508 0.117890
H69   H     H_    0.386602 0.018326 0.759154 0.149850
H70   H     H_    0.407142 0.039628 0.869704 0.167245
H71   H     H_    0.923801 0.430177 0.840630 0.242795
H72   H     H_    0.179334 0.418220 0.464704 0.156373
H73   H     H_    0.863943 0.488309 0.852516 0.117893
H74   H     H_    0.886599 0.518324 0.759150 0.149849
H75   H     H_    0.907145 0.539634 0.869691 0.167247
H76   H     H_    0.378420 0.094016 0.654673 0.263160
H77   H     H_    0.314347 0.027236 0.657055 0.135896
H78   H     H_    0.348651 0.023779 0.564262 0.173021
H79   H     H_    0.289108 0.051366 0.550359 0.152995
H80   H     H_    0.294758 0.934322 0.579561 0.243963
H81   H     H_    0.338426 0.931574 0.716164 0.113569
H82   H     H_    0.387986 0.949121 0.657315 0.177026
H83   H     H_    0.179249 0.584317 0.462949 0.180525
H84   H     H_    0.376830 0.882688 0.679900 0.164250
H85   H     H_    0.878422 0.594019 0.654677 0.263160
H86   H     H_    0.814342 0.527240 0.657056 0.135897
H87   H     H_    0.848660 0.523775 0.564283 0.173013
H88   H     H_    0.789117 0.551363 0.550345 0.152994
H89   H     H_    0.794760 0.434322 0.579566 0.243963
H90   H     H_    0.838427 0.431576 0.716168 0.113570
H91   H     H_    0.887991 0.449113 0.657321 0.177036
H92   H     H_    0.876824 0.382683 0.679909 0.164243
H93   H     H_    0.279844 0.152151 0.673307 0.277824
H94   H     H_    0.417356 0.942499 0.986124 0.123792
H95   H     H_    0.222680 0.101873 0.567185 0.129746
H96   H     H_    0.201921 0.162696 0.519572 0.167498
H97   H     H_    0.194918 0.147986 0.632828 0.135286
H98   H     H_    0.232592 0.880344 0.539274 0.238937
H99   H     H_    0.271014 0.872928 0.692077 0.130938
H100  H     H_    0.272994 0.804148 0.677602 0.180886
H101  H     H_    0.216110 0.836658 0.675270 0.140220
H102  H     H_    0.779847 0.652154 0.673311 0.277822
H103  H     H_    0.722687 0.601866 0.567199 0.129749
H104  H     H_    0.701924 0.662686 0.519575 0.167489
N1    N     N_2   0.749961 0.762638 0.541539 -0.172756
N2    N     N_2   0.580137 0.203439 0.574006 -0.478560
N3    N     N_2   0.083608 0.296918 0.577924 -0.479834
N4    N     N_2   0.080138 0.703438 0.574011 -0.478561
N5    N     N_2   0.392786 0.173624 0.350039 -0.504503
N6    N     N_2   0.414973 0.807072 0.389689 -0.511357
N7    N     N_2   0.892783 0.673622 0.350035 -0.504499
N8    N     N_2   0.914968 0.307072 0.389682 -0.511353
N9    N     N_2   0.413117 0.944622 0.155770 -0.484179
N10   N     N_2   0.913115 0.444625 0.155769 -0.484181
N11   N     N_2   0.434384 0.967429 0.831593 -0.527302
N12   N     N_2   0.745232 0.242650 0.539874 -0.177567
N13   N     N_2   0.934383 0.467431 0.831593 -0.527305
N14   N     N_2   0.343959 0.096719 0.621673 -0.535103
N15   N     N_2   0.328284 0.918361 0.578178 -0.535817
N16   N     N_2   0.843961 0.596720 0.621675 -0.535104
N17   N     N_2   0.828285 0.418361 0.578183 -0.535816
N18   N     N_2   0.265490 0.165545 0.611622 -0.470898
N19   N     N_2   0.249753 0.846874 0.561251 -0.488462
N20   N     N_2   0.765492 0.665544 0.611625 -0.470893
N21   N     N_2   0.749753 0.346875 0.561256 -0.488462
N22   N     N_2   0.249965 0.262642 0.541537 -0.172763
N23   N     N_2   0.245233 0.742649 0.539875 -0.177568
N24   N     N_2   0.253469 0.240243 0.470129 -0.206752
N25   N     N_2   0.259496 0.752713 0.467464 -0.190475
N26   N     N_2   0.753467 0.740241 0.470129 -0.206759
N27   N     N_2   0.759493 0.252715 0.467463 -0.190477
N28   N     N_2   0.583595 0.796909 0.577873 -0.479838
O1    O     O_3   0.500000 0.000000 0.500000 -0.456207
O2    O     O_R   0.057820 0.602510 0.558190 -0.501369
O3    O     O_R   0.402690 0.940060 0.437800 -0.528303
O4    O     O_R   0.402690 0.059940 0.437800 -0.550082
O5    O     O_R   0.902690 0.440060 0.437800 -0.528312
O6    O     O_R   0.902690 0.559940 0.437800 -0.550079
O7    O     O_R   0.592810 0.059930 0.457190 -0.542754
O8    O     O_R   0.592810 0.940070 0.457190 -0.544994
O9    O     O_R   0.092810 0.559930 0.457190 -0.542755
O10   O     O_R   0.092810 0.440070 0.457190 -0.544997
O11   O     O_R   0.451940 0.000000 0.295720 -0.525550
O12   O     O_3   0.000000 0.500000 0.500000 -0.456206
O13   O     O_R   0.951940 0.500000 0.295720 -0.525550
O14   O     O_R   0.508560 0.042600 0.700250 -0.538451
O15   O     O_R   0.508560 0.957400 0.700250 -0.527814
O16   O     O_R   0.008560 0.542600 0.700250 -0.538451
O17   O     O_R   0.008560 0.457400 0.700250 -0.527815
O18   O     O_R   0.530930 0.000000 0.303780 -0.493792
O19   O     O_R   0.030930 0.500000 0.303780 -0.493793
O20   O     O_2   0.540926 0.107265 0.132400 -0.517978
O21   O     O_R   0.589520 0.055082 0.224331 -0.608358
O22   O     O_2   0.040929 0.607263 0.132403 -0.517977
O23   O     O_R   0.446670 0.102520 0.546820 -0.543913
O24   O     O_R   0.089523 0.555078 0.224331 -0.608357
O25   O     O_2   0.788528 0.838517 0.438815 -0.429242
O26   O     O_R   0.777450 0.917431 0.492968 -0.636694
O27   O     O_2   0.762714 0.102979 0.421187 -0.498758
O28   O     O_R   0.804226 0.158260 0.517805 -0.671898
O29   O     O_2   0.288520 0.338512 0.438771 -0.429251
O30   O     O_R   0.277444 0.417430 0.492905 -0.636691
O31   O     O_2   0.262713 0.602978 0.421183 -0.498760
O32   O     O_R   0.304226 0.658256 0.517804 -0.671897
O33   O     O_2   0.630036 0.011727 0.083716 -0.462805
O34   O     O_R   0.446670 0.897480 0.546820 -0.549337
O35   O     O_R   0.635828 0.078866 0.990416 -0.678875
O36   O     O_2   0.130037 0.511722 0.083715 -0.462803
O37   O     O_R   0.135830 0.578862 0.990418 -0.678875
O38   O     O_R   0.946670 0.602520 0.546820 -0.543913
O39   O     O_R   0.946670 0.397480 0.546820 -0.549330
O40   O     O_R   0.557820 0.897490 0.558190 -0.506256
O41   O     O_R   0.557820 0.102510 0.558190 -0.501369
O42   O     O_R   0.057820 0.397490 0.558190 -0.506254
Zn1   Zn    Zn3+2 0.503210 0.939150 0.575020 0.941242
Zn2   Zn    Zn3+2 0.503210 0.060850 0.575020 0.945147
Zn3   Zn    Zn3+2 0.003210 0.439150 0.575020 0.941240
Zn4   Zn    Zn3+2 0.003210 0.560850 0.575020 0.945147
Zn5   Zn    Zn3+2 0.440370 0.000000 0.419230 0.926417
Zn6   Zn    Zn3+2 0.940370 0.500000 0.419230 0.926412
Zn7   Zn    Zn3+2 0.553220 0.000000 0.430750 0.973356
Zn8   Zn    Zn3+2 0.053220 0.500000 0.430750 0.973354

loop_
_geom_bond_atom_site_label_1
_geom_bond_atom_site_label_2
_ccdc_geom_bond_type
C34   H10   S    
C83   C87   A    
C13   C79   A    
C95   H35   S    
C105  H64   S    
C99   H51   S    
C93   N3    S    
C94   H32   S    
C55   N17   S    
O6    Zn6   S    
C34   C42   A    
O40   Zn1   S    
H76   N14   S    
C13   N10   S    
C80   C84   A    
C75   O14   A    
O12   Zn3   S    
C6    H88   S    
C19   C46   A    
C43   C63   S    
C48   C57   A    
C47   N18   S    
C74   O19   A    
O41   Zn2   S    
H52   O26   S    
C89   O20   D    
C40   O42   A    
O11   Zn5   S    
C64   N5    S    
C44   N2    S    
C50   C59   A    
O39   Zn3   S    
C4    H79   S    
C68   N8    S    
C43   O5    A    
C5    H82   S    
C75   O15   A    
C52   C61   A    
C31   C36   A    
C26   C101  S    
H16   N28   S    
O16   Zn4   S    
C6    N16   S    
C58   C71   A    
C62   C67   A    
C20   C25   A    
C96   H41   S    
H53   O28   S    
C76   C98   A    
C105  N10   S    
C15   C65   A    
O12   Zn6   S    
C74   O13   A    
H21   N2    S    
C17   C39   S    
C4    H78   S    
C7    H92   S    
C2    C90   S    
C11   H6    S    
C18   C40   S    
O2    Zn4   S    
C80   C86   A    
C2    C79   A    
C52   N15   S    
C45   N3    S    
C104  H57   S    
C1    O23   A    
C48   N19   S    
C69   H1    S    
H56   N9    S    
C49   C53   A    
C8    N18   S    
C9    H101  S    
C12   C78   A    
C91   N28   S    
C78   C98   A    
C73   C78   S    
C97   N7    S    
C92   N2    S    
C23   C27   A    
C57   C70   A    
C96   H42   S    
C11   H7    S    
C75   C80   S    
C3    N13   S    
C21   C61   S    
C33   N23   S    
C16   C20   A    
C59   C72   A    
C21   O3    A    
H80   N15   S    
C101  O27   D    
C38   O8    A    
C95   H36   S    
C84   H8    S    
C77   O17   A    
C21   O34   A    
O5    Zn6   S    
C94   H31   S    
N23   N25   D    
C15   H2    S    
C106  O33   D    
N22   N24   D    
O1    Zn1   S    
C102  O30   S    
C61   C66   A    
H65   O35   S    
O17   Zn3   S    
C6    H87   S    
C3    H74   S    
O12   Zn8   S    
C65   C87   A    
C25   C29   A    
C96   H40   S    
C31   N22   S    
O13   Zn6   S    
O3    Zn5   S    
C105  H62   S    
O34   Zn1   S    
C41   O2    A    
C27   C31   A    
C18   C23   A    
H25   N3    S    
C32   C62   S    
C10   H3    S    
C92   H23   S    
C53   N16   S    
C5    H84   S    
C93   H26   S    
C9    H99   S    
C1    C60   S    
C76   C82   A    
C71   H28   S    
C54   C86   A    
C108  N11   S    
C42   N28   S    
C73   O18   A    
C47   C51   A    
O19   Zn8   S    
C64   C69   A    
O1    Zn7   S    
C29   C34   A    
C33   C37   A    
C49   C58   A    
C5    N15   S    
C55   C63   A    
C103  O31   D    
C4    H77   S    
H71   N13   S    
C50   N21   S    
C59   N27   S    
H34   N5    S    
C35   C44   A    
C1    O4    A    
H4    N21   S    
C91   H20   S    
C40   O10   A    
C53   C62   A    
C25   C100  S    
C29   N1    S    
C88   N13   S    
C77   C81   S    
H15   O24   S    
C68   C72   A    
C50   C55   A    
H30   N4    S    
C99   H48   S    
O7    Zn7   S    
C51   N14   S    
C10   N20   S    
C108  H70   S    
C36   C45   A    
C97   H46   S    
O1    Zn5   S    
C85   H9    S    
C107  O36   D    
C3    H73   S    
C23   H72   S    
C90   O22   D    
C91   H19   S    
O42   Zn3   S    
C37   H13   S    
O8    Zn7   S    
C70   H17   S    
C38   O40   A    
H93   N18   S    
C83   C85   A    
C101  O28   S    
C12   C14   A    
C28   C33   A    
N1    N26   D    
C102  O29   D    
C82   C84   A    
C74   C79   S    
C13   C15   A    
C22   C26   A    
C8    H96   S    
C81   C88   A    
C97   H45   S    
H43   N7    S    
C89   O21   S    
C86   N11   S    
C91   H18   S    
O15   Zn1   S    
C77   O16   A    
C107  O37   S    
C18   C45   A    
C105  H63   S    
C104  N9    S    
C6    H86   S    
C32   O38   A    
C95   H37   S    
O18   Zn7   S    
C65   C88   A    
C7    N17   S    
C10   H104  S    
C32   O6    A    
C63   C68   A    
H54   O30   S    
H102  N20   S    
O38   Zn4   S    
C90   O24   S    
C92   H24   S    
H98   N19   S    
C54   C76   A    
C94   H33   S    
C94   N4    S    
C8    H95   S    
C108  H68   S    
C106  O35   S    
C24   C28   A    
H85   N16   S    
H60   N10   S    
C93   H27   S    
C9    H100  S    
O12   Zn4   S    
C30   N12   S    
H14   O21   S    
H47   N8    S    
H89   N17   S    
C72   H39   S    
C30   C35   A    
H55   O32   S    
C27   C102  S    
C46   N4    S    
C17   C22   A    
O10   Zn8   S    
C9    N19   S    
C89   C98   S    
C60   C64   A    
C14   C54   A    
C103  O32   S    
C7    H90   S    
C99   H49   S    
C19   C24   A    
C17   C44   A    
C5    H81   S    
C66   N6    S    
C104  H59   S    
C28   C103  S    
C39   O7    A    
C35   H11   S    
C66   C70   A    
C100  O26   S    
C11   N21   S    
C39   O41   A    
C96   N6    S    
O9    Zn8   S    
C14   H94   S    
C67   N7    S    
C95   N5    S    
C97   H44   S    
C83   C107  S    
C108  H69   S    
C24   H83   S    
C67   C71   A    
C16   C42   A    
C82   C106  S    
C7    H91   S    
C8    H97   S    
C11   H5    S    
N12   N27   D    
C57   N25   S    
C12   N9    S    
C22   H61   S    
C93   H29   S    
O23   Zn2   S    
C104  H58   S    
H38   N6    S    
C2    C87   A    
C10   H103  S    
C48   C52   A    
H66   O37   S    
C43   O39   A    
C99   N8    S    
O4    Zn5   S    
C56   C69   A    
C100  O25   D    
C41   O9    A    
H67   N11   S    
C92   H22   S    
C56   N24   S    
C20   H50   S    
C51   C60   A    
O1    Zn2   S    
C37   C46   A    
C58   N26   S    
C49   N20   S    
C3    H75   S    
C4    N14   S    
C36   H12   S    
C81   C85   A    
C19   C41   S    
C16   C38   S    
C47   C56   A    
C73   O11   A    
C26   C30   A    
O14   Zn2   S    
