data_mof_unit_52005.cif
_audit_creation_date              2012-12-10T17:16:34-0500
_audit_creation_method            fapswitch 2.2
_symmetry_space_group_name_H-M    P1
_symmetry_Int_Tables_number       1
_space_group_crystal_system       triclinic
_cell_length_a                    10.099241
_cell_length_b                    10.652515
_cell_length_c                    10.709186
_cell_angle_alpha                 90.644063
_cell_angle_beta                  95.939504
_cell_angle_gamma                 79.254133
_cell_volume                      1125.80061926

loop_
_atom_site_label
_atom_site_type_symbol
_atom_type_description
_atom_site_fract_x
_atom_site_fract_y
_atom_site_fract_z
_atom_type_partial_charge
C1    C     C_R   0.442824 0.511358 0.266045 0.794809
C2    C     C_R   0.492701 0.741118 0.484742 0.880889
C3    C     C_R   0.753070 0.063549 0.463745 -0.133123
C4    C     C_R   0.246136 0.936245 0.533859 -0.136772
C5    C     C_R   0.841059 0.988115 0.388829 -0.178086
C6    C     C_R   0.157927 0.011556 0.608647 -0.181083
C7    C     C_R   0.801390 0.884591 0.325461 -0.141440
C8    C     C_R   0.197515 0.114929 0.672359 -0.142779
C9    C     C_R   0.678198 0.851057 0.344733 -0.125390
C10   C     C_R   0.320840 0.148461 0.653516 -0.125530
C11   C     C_R   0.592338 0.921954 0.427532 0.075565
C12   C     C_R   0.556832 0.498067 0.733701 0.823158
C13   C     C_R   0.406889 0.077802 0.570702 0.072719
C14   C     C_R   0.621930 0.037403 0.474975 0.088448
C15   C     C_R   0.377323 0.962443 0.523066 0.090379
C16   C     C_R   0.479816 0.878205 0.466491 -0.257321
C17   C     C_R   0.519622 0.121556 0.532027 -0.261087
C18   C     C_3   0.799695 0.561256 0.918443 -0.307424
C19   C     C_3   0.254028 0.403338 0.085652 -0.315789
C20   C     C_2   0.408816 0.533338 0.131648 0.348930
C21   C     C_2   0.589781 0.517190 0.866940 0.328650
C22   C     C_2   0.504669 0.566201 0.067910 -0.228257
C23   C     C_2   0.488096 0.570397 0.932914 -0.236068
C24   C     C_2   0.073500 0.489259 0.489509 -0.125308
C25   C     C_2   0.926464 0.510879 0.510347 -0.132254
C26   C     C_R   0.507166 0.258769 0.514820 0.901309
H1    H     H_    0.131040 0.171421 0.733427 0.141694
H2    H     H_    0.603487 0.574974 0.114293 0.176703
H3    H     H_    0.888745 0.580724 0.578909 0.163462
H4    H     H_    0.111190 0.419550 0.420807 0.166116
H5    H     H_    0.881945 0.382824 0.384687 0.166575
H6    H     H_    0.118098 0.617038 0.615451 0.162304
H7    H     H_    0.757053 0.651081 0.965916 0.152848
H8    H     H_    0.814188 0.581745 0.819654 0.167831
H9    H     H_    0.901098 0.523820 0.968125 0.197611
H10   H     H_    0.231429 0.386262 0.182699 0.174650
H11   H     H_    0.338696 0.328425 0.058755 0.156644
H12   H     H_    0.867738 0.827953 0.264386 0.140776
H13   H     H_    0.162657 0.394468 0.021626 0.187065
H14   H     H_    0.791717 0.138644 0.515980 0.162269
H15   H     H_    0.207809 0.861034 0.481500 0.162076
H16   H     H_    0.939680 0.010721 0.379208 0.139809
H17   H     H_    0.059271 0.988905 0.617998 0.140029
H18   H     H_    0.650503 0.769148 0.294982 0.137193
H19   H     H_    0.348481 0.230154 0.703682 0.149250
H20   H     H_    0.386719 0.605339 0.887402 0.196216
N1    N     N_2   0.157300 0.551390 0.551120 -0.194804
N2    N     N_2   0.842700 0.448610 0.448880 -0.194160
O1    O     O_R   0.568940 0.489660 0.307530 -0.629806
O2    O     O_3   0.281183 0.527391 0.072079 -0.604548
O3    O     O_R   0.431060 0.510340 0.692470 -0.637157
O4    O     O_R   0.348880 0.522640 0.340350 -0.589176
O5    O     O_R   0.651120 0.477360 0.659650 -0.590285
O6    O     O_R   0.610030 0.300280 0.483580 -0.611224
O7    O     O_R   0.389970 0.699720 0.516420 -0.619084
O8    O     O_R   0.389970 0.333270 0.516400 -0.607483
O9    O     O_R   0.610030 0.666730 0.483600 -0.611610
O10   O     O_3   0.717943 0.468164 0.924787 -0.597999
Zn1   Zn    Zn3+2 0.646940 0.477980 0.478080 0.936145
Zn2   Zn    Zn3+2 0.353060 0.522020 0.521920 0.932926

loop_
_geom_bond_atom_site_label_1
_geom_bond_atom_site_label_2
_ccdc_geom_bond_type
O6    Zn1   S    
C6    C8    A    
C5    H16   S    
C19   H11   S    
C18   H7    S    
C2    C16   S    
C18   H9    S    
C12   O5    A    
O1    Zn1   S    
C13   C17   A    
C9    C11   A    
C10   H19   S    
C21   C23   D    
O5    Zn1   S    
C2    O9    A    
C21   O10   S    
C23   H20   S    
C22   H2    S    
O7    Zn2   S    
C18   H8    S    
C14   C17   A    
C3    C14   A    
C19   H13   S    
C4    C15   A    
C17   C26   S    
C26   O6    A    
C8    C10   A    
C1    O4    A    
C7    H12   S    
C20   C22   D    
C3    H14   S    
C7    C9    A    
C19   H10   S    
C13   C15   A    
C25   H3    S    
H5    N2    S    
H6    N1    S    
C24   H4    S    
O9    Zn1   S    
C2    O7    A    
C4    H15   S    
C15   C16   A    
C25   N2    D    
C19   O2    S    
C12   O3    A    
C24   C25   S    
N2    Zn1   S    
C4    C6    A    
C11   C16   A    
C11   C14   A    
C5    C7    A    
C8    H1    S    
C6    H17   S    
C9    H18   S    
C20   O2    S    
O3    Zn2   S    
O4    Zn2   S    
C3    C5    A    
N1    Zn2   S    
C22   C23   S    
C24   N1    D    
C1    O1    A    
C12   C21   S    
C18   O10   S    
O8    Zn2   S    
C1    C20   S    
C10   C13   A    
C26   O8    A    
