data_mof_unit_43803.cif
_audit_creation_date              2012-12-10T20:32:42-0500
_audit_creation_method            fapswitch 2.2
_symmetry_space_group_name_H-M    P1
_symmetry_Int_Tables_number       1
_space_group_crystal_system       triclinic
_cell_length_a                    11.503581
_cell_length_b                    10.715782
_cell_length_c                    9.984757
_cell_angle_alpha                 88.907811
_cell_angle_beta                  88.358562
_cell_angle_gamma                 91.581143
_cell_volume                      1229.60342468

loop_
_atom_site_label
_atom_site_type_symbol
_atom_type_description
_atom_site_fract_x
_atom_site_fract_y
_atom_site_fract_z
_atom_type_partial_charge
C1    C     C_R   0.500357 0.260418 0.501256 0.893485
C2    C     C_R   0.498927 0.127946 0.501918 -0.087809
C3    C     C_R   0.557738 0.067927 0.398101 -0.254996
C4    C     C_R   0.552316 0.939491 0.392643 -0.190147
C5    C     C_R   0.493113 0.870941 0.495024 -0.131395
C6    C     C_R   0.426344 0.931096 0.591017 0.096792
C7    C     C_3   0.424724 0.917382 0.740161 0.251543
C8    C     C_3   0.426197 0.058498 0.743499 -0.581032
C9    C     C_R   0.407626 0.449902 0.074117 0.101861
C10   C     C_R   0.592462 0.549815 0.063759 0.190940
C11   C     C_R   0.588373 0.553212 0.921417 -0.154446
C12   C     C_R   0.282342 0.501913 0.501352 0.950826
C13   C     C_R   0.404261 0.457652 0.932744 0.182397
C14   C     C_3   0.346170 0.332684 0.921251 0.197887
C15   C     C_3   0.359351 0.315645 0.074300 0.068049
C16   C     C_R   0.499307 0.739313 0.498815 0.866577
C17   C     C_R   0.717764 0.500461 0.498424 0.878818
C18   C     C_1   0.161771 0.504293 0.503154 -0.083476
C19   C     C_1   0.059494 0.504861 0.501092 0.040301
C20   C     C_1   0.940809 0.503899 0.497264 0.021946
C21   C     C_1   0.838453 0.502320 0.495749 -0.174757
C22   C     C_R   0.428175 0.059243 0.593753 0.099431
H1    H     H_    0.610957 0.120044 0.324106 0.175933
H2    H     H_    0.403105 0.274295 0.860029 0.104802
H3    H     H_    0.600469 0.894683 0.313865 0.164333
H4    H     H_    0.504341 0.875661 0.780416 0.102071
H5    H     H_    0.343918 0.095624 0.784674 0.252942
H6    H     H_    0.507444 0.098780 0.784828 0.185665
H7    H     H_    0.660406 0.592579 0.860951 0.163755
N1    N     N_R   0.499240 0.499140 0.142800 -0.106564
N2    N     N_R   0.499240 0.499180 0.857150 -0.142915
O1    O     O_R   0.500010 0.316790 0.614690 -0.612242
O2    O     O_R   0.500000 0.316760 0.385350 -0.638719
O3    O     O_R   0.334450 0.500030 0.614670 -0.498893
O4    O     O_R   0.334440 0.500000 0.385330 -0.652242
O5    O     O_R   0.500000 0.683240 0.614650 -0.605649
O6    O     O_R   0.499990 0.683210 0.385310 -0.607688
O7    O     O_R   0.665560 0.500000 0.614670 -0.617966
O8    O     O_R   0.665550 0.499970 0.385330 -0.633944
Zn1   Zn    Zn3+2 0.500010 0.500020 0.653130 1.021828
Zn2   Zn    Zn3+2 0.499990 0.499980 0.346870 0.950154
C23   C     C_3   0.246724 0.300608 0.163584 -0.325527
C24   C     C_3   0.195570 0.166558 0.173398 -0.736974
H8    H     H_    0.203079 0.118057 0.076544 0.305688
H9    H     H_    0.242012 0.111065 0.249140 0.232006
H10   H     H_    0.102486 0.168406 0.205729 0.253693
H11   H     H_    0.267809 0.325281 0.267019 0.215686
H12   H     H_    0.180037 0.367086 0.131749 0.248737
C25   C     C_3   0.446313 0.209362 0.103222 -0.373877
C26   C     C_3   0.574439 0.234152 0.062114 -0.905718
H13   H     H_    0.584483 0.272615 0.958516 0.251292
H14   H     H_    0.616802 0.298014 0.133019 0.276351
H15   H     H_    0.620976 0.144798 0.066146 0.252061
H16   H     H_    0.440741 0.182811 0.210216 0.254564
H17   H     H_    0.416499 0.124591 0.050005 0.224912
S1    S     S_3+6 0.291547 0.847201 0.806132 0.051072
O9    O     O_2   0.297395 0.707899 0.797468 -0.208586
O10   O     O_2   0.274887 0.881204 0.950662 -0.316638
O11   O     O_3   0.178110 0.896020 0.718221 -0.520971
H18   H     H_    0.160198 0.979224 0.753716 0.371790
C27   C     C_3   0.711567 0.583906 0.116070 -0.341677
C28   C     C_3   0.718991 0.712782 0.177590 -0.790732
H19   H     H_    0.665575 0.779719 0.121495 0.243119
H20   H     H_    0.691755 0.708681 0.284134 0.272527
H21   H     H_    0.810727 0.748222 0.173153 0.241748
H22   H     H_    0.745634 0.508531 0.178851 0.222904
H23   H     H_    0.777258 0.587141 0.031941 0.185869
S2    S     S_3+6 0.203263 0.341189 0.850015 0.013124
O12   O     O_2   0.111839 0.263633 0.925765 -0.329336
O13   O     O_2   0.165148 0.474132 0.843761 -0.229175
O14   O     O_3   0.213263 0.285039 0.694159 -0.596855
H24   H     H_    0.131957 0.268096 0.668226 0.371469

loop_
_geom_bond_atom_site_label_1
_geom_bond_atom_site_label_2
_ccdc_geom_bond_type
C2    C22   A    
C8    C22   S    
C24   H8    S    
N1    Zn2   S    
C6    C7    S    
S1    O9    D    
C27   H23   S    
C26   H14   S    
C19   C20   S    
S1    O11   S    
C28   H20   S    
C16   O6    A    
C17   O7    A    
O2    Zn2   S    
C6    C22   A    
O1    Zn1   S    
C4    H3    S    
C9    C15   S    
C11   N2    A    
C7    C8    S    
O8    Zn2   S    
O11   H18   S    
C23   H12   S    
C13   C14   S    
C16   O5    A    
C12   O4    A    
O7    Zn1   S    
C4    C5    A    
C24   H9    S    
C28   H19   S    
C7    H4    S    
C9    N1    A    
S2    O14   S    
O3    Zn1   S    
C5    C6    A    
C7    S1    S    
C17   O8    A    
S1    O10   D    
C2    C3    A    
C23   H11   S    
C15   C25   S    
O6    Zn2   S    
C27   C28   S    
O4    Zn2   S    
C24   H10   S    
C10   N1    A    
C26   H15   S    
C10   C11   A    
C1    O2    A    
C25   H16   S    
C10   C27   S    
O5    Zn1   S    
O14   H24   S    
C20   C21   T    
C11   H7    S    
C8    H6    S    
S2    O13   D    
C1    C2    S    
C23   C24   S    
C14   H2    S    
C25   C26   S    
C8    H5    S    
C14   S2    S    
C14   C15   S    
C18   C19   T    
C5    C16   S    
C9    C13   A    
C3    H1    S    
C28   H21   S    
C26   H13   S    
N2    Zn1   S    
C25   H17   S    
C12   O3    A    
C27   H22   S    
C13   N2    A    
C1    O1    A    
C17   C21   S    
C3    C4    A    
C15   C23   S    
S2    O12   D    
C12   C18   S    
