data_mof_unit_63282.cif
_audit_creation_date              2012-12-10T16:39:47-0500
_audit_creation_method            fapswitch 2.2
_symmetry_space_group_name_H-M    P1
_symmetry_Int_Tables_number       1
_space_group_crystal_system       triclinic
_cell_length_a                    10.923235
_cell_length_b                    10.864809
_cell_length_c                    16.027843
_cell_angle_alpha                 91.662457
_cell_angle_beta                  97.229203
_cell_angle_gamma                 98.538567
_cell_volume                      1863.92288525

loop_
_atom_site_label
_atom_site_type_symbol
_atom_type_description
_atom_site_fract_x
_atom_site_fract_y
_atom_site_fract_z
_atom_type_partial_charge
C1    C     C_R   0.837479 0.523382 0.517192 0.513162
C2    C     C_R   0.529227 0.835927 0.520051 0.499533
C3    C     C_R   0.472117 0.162831 0.481485 0.520771
C4    C     C_R   0.483886 0.515508 0.275926 0.505511
C5    C     C_R   0.515454 0.484637 0.723902 0.501588
C6    C     C_1   0.475249 0.522733 0.186348 -0.023520
C7    C     C_2   0.456835 0.537079 0.019971 0.276367
C8    C     C_2   0.529375 0.473849 0.978950 -0.075871
C9    C     C_3   0.304349 0.667179 0.024143 -0.001453
C10   C     C_3   0.219664 0.739037 0.968296 -0.364973
C11   C     C_3   0.037677 0.636651 0.594237 -0.349552
C12   C     C_1   0.525522 0.476427 0.888821 0.006946
C13   C     C_3   0.357587 0.953623 0.410063 -0.385096
C14   C     C_1   0.467155 0.529144 0.111009 -0.084478
C15   C     C_1   0.521319 0.479649 0.813491 0.027006
C16   C     C_2   0.025865 0.468500 0.477527 -0.100325
C17   C     C_2   0.971055 0.539211 0.527923 -0.002358
C18   C     C_2   0.458284 0.026750 0.474018 -0.019421
C19   C     C_2   0.536628 0.969373 0.524920 -0.078713
C20   C     C_R   0.160772 0.476333 0.482206 0.510844
H1    H     H_    0.593006 0.419068 0.013021 0.077440
H2    H     H_    0.094203 0.592811 0.644140 0.161087
H3    H     H_    0.097321 0.710671 0.565027 0.153321
H4    H     H_    0.300988 0.014934 0.373079 0.155547
H5    H     H_    0.400925 0.899332 0.365179 0.132387
H6    H     H_    0.293249 0.888606 0.442727 0.134679
H7    H     H_    0.968333 0.402262 0.431072 0.089566
H8    H     H_    0.609859 0.021073 0.570253 0.111277
H9    H     H_    0.365829 0.734707 0.070624 0.136405
H10   H     H_    0.244400 0.598101 0.057356 0.137137
H11   H     H_    0.156342 0.674118 0.921427 0.163561
H12   H     H_    0.162520 0.787234 0.007405 0.097347
H13   H     H_    0.276681 0.809599 0.934622 0.165643
H14   H     H_    0.969854 0.682578 0.625408 0.110274
O1    O     O_3   0.500000 0.500000 0.500000 -0.439168
O2    O     O_R   0.566290 0.591070 0.323460 -0.536183
O3    O     O_R   0.580640 0.419420 0.684420 -0.539832
O4    O     O_R   0.407770 0.434760 0.307690 -0.537966
O5    O     O_R   0.445300 0.554750 0.684430 -0.532030
O6    O     O_3   0.376311 0.606429 0.973536 -0.541346
O7    O     O_R   0.452040 0.769470 0.559450 -0.539040
O8    O     O_R   0.554760 0.223750 0.537250 -0.546668
O9    O     O_R   0.782610 0.596300 0.470630 -0.538776
O10   O     O_R   0.210590 0.410470 0.432660 -0.536615
O11   O     O_R   0.777820 0.443700 0.559450 -0.536960
O12   O     O_R   0.228980 0.549520 0.537250 -0.548876
O13   O     O_R   0.592170 0.786730 0.470640 -0.535351
O14   O     O_R   0.401030 0.220040 0.432660 -0.541257
Zn1   Zn    Zn3+2 0.408180 0.591840 0.569080 0.932180
Zn2   Zn    Zn3+2 0.608390 0.616500 0.442190 0.937649
Zn3   Zn    Zn3+2 0.381900 0.393170 0.419650 0.939352
Zn4   Zn    Zn3+2 0.601540 0.398480 0.569080 0.939247

loop_
_geom_bond_atom_site_label_1
_geom_bond_atom_site_label_2
_ccdc_geom_bond_type
O1    Zn1   S    
C7    O6    S    
C4    O2    A    
O9    Zn2   S    
C5    O3    A    
C2    O13   A    
O13   Zn2   S    
C9    C10   S    
C11   H2    S    
C1    C17   S    
C12   C15   T    
C16   C20   S    
C8    C12   S    
C1    O11   A    
C16   H7    S    
C5    O5    A    
C8    H1    S    
C7    C8    D    
C3    O8    A    
C19   H8    S    
O12   Zn1   S    
C13   H5    S    
C13   C18   S    
O1    Zn2   S    
C9    H10   S    
O10   Zn3   S    
O7    Zn1   S    
C20   O10   A    
C4    O4    A    
C10   H13   S    
C9    O6    S    
O1    Zn3   S    
C13   H6    S    
C20   O12   A    
C9    H9    S    
O14   Zn3   S    
C5    C15   S    
C2    O7    A    
C10   H12   S    
C3    O14   A    
O1    Zn4   S    
O2    Zn2   S    
C3    C18   S    
C4    C6    S    
C18   C19   D    
C11   H3    S    
C6    C14   T    
O3    Zn4   S    
C11   C17   S    
O4    Zn3   S    
O11   Zn4   S    
O5    Zn1   S    
C2    C19   S    
C10   H11   S    
C1    O9    A    
C11   H14   S    
C7    C14   S    
C13   H4    S    
O8    Zn4   S    
C16   C17   D    
