data_mof_unit_57186.cif
_audit_creation_date              2012-12-10T17:05:14-0500
_audit_creation_method            fapswitch 2.2
_symmetry_space_group_name_H-M    P1
_symmetry_Int_Tables_number       1
_space_group_crystal_system       triclinic
_cell_length_a                    10.733421
_cell_length_b                    10.914876
_cell_length_c                    9.806468
_cell_angle_alpha                 110.44565
_cell_angle_beta                  98.624179
_cell_angle_gamma                 91.13512
_cell_volume                      1061.08436503

loop_
_atom_site_label
_atom_site_type_symbol
_atom_type_description
_atom_site_fract_x
_atom_site_fract_y
_atom_site_fract_z
_atom_type_partial_charge
C1    C     C_R   0.499238 0.254205 0.441592 0.837001
C2    C     C_3   0.877944 0.494478 0.497017 0.132113
C3    C     C_3   0.951130 0.550240 0.658807 -0.407937
C4    C     C_3   0.918347 0.584332 0.415974 -0.378443
C5    C     C_2   0.507042 0.114399 0.411192 -0.394129
C6    C     C_2   0.578798 0.066418 0.503184 0.127400
C7    C     C_2   0.538520 0.886051 0.588426 -0.381497
C8    C     C_2   0.551762 0.927479 0.477690 -0.185742
C9    C     C_2   0.511352 0.510220 0.081136 -0.082433
C10   C     C_2   0.489013 0.489403 0.918806 -0.081075
C11   C     C_R   0.260026 0.501051 0.501016 0.771276
C12   C     C_R   0.513779 0.746506 0.558423 0.863701
C13   C     C_R   0.740067 0.497396 0.498773 0.732982
C14   C     C_3   0.060934 0.358434 0.414985 -0.373668
C15   C     C_3   0.917682 0.351257 0.423637 -0.072451
C16   C     C_3   0.093834 0.545410 0.660897 -0.388713
C17   C     C_3   0.062820 0.592253 0.424676 -0.386462
C18   C     C_3   0.122351 0.499527 0.501139 0.131500
Cu1   Cu    Cu3+1 0.522160 0.521810 0.644910 0.916158
Cu2   Cu    Cu3+1 0.477840 0.478190 0.355090 0.916916
H1    H     H_    0.108275 0.288116 0.461027 0.129796
H2    H     H_    0.887695 0.684753 0.466903 0.148939
H3    H     H_    0.141615 0.644488 0.726629 0.172975
H4    H     H_    0.929185 0.653501 0.713882 0.175982
H5    H     H_    0.535242 0.859460 0.363973 0.165527
H6    H     H_    0.551737 0.954248 0.701792 0.157353
H7    H     H_    0.444140 0.048173 0.314799 0.132466
H8    H     H_    0.414482 0.417479 0.846124 0.159543
H9    H     H_    0.585829 0.582212 0.153856 0.154838
H10   H     H_    0.626329 0.621478 0.933943 0.186894
H11   H     H_    0.075943 0.329521 0.298364 0.171998
H12   H     H_    0.374298 0.377814 0.065863 0.187866
H13   H     H_    0.904085 0.297966 0.499225 0.139695
H14   H     H_    0.130389 0.476674 0.716042 0.169976
H15   H     H_    0.922092 0.492683 0.724388 0.169117
H16   H     H_    0.102792 0.694958 0.487457 0.155241
H17   H     H_    0.084932 0.565046 0.310962 0.174610
H18   H     H_    0.871967 0.546587 0.298334 0.166337
N1    N     N_2   0.444530 0.445420 0.137360 -0.284918
N2    N     N_2   0.555520 0.554510 0.862630 -0.286603
O1    O     O_R   0.511820 0.332340 0.577400 -0.574691
O2    O     O_R   0.474400 0.295500 0.332650 -0.573368
O3    O     O_R   0.336400 0.518400 0.622370 -0.581248
O4    O     O_R   0.298980 0.481560 0.377620 -0.580481
O5    O     O_R   0.525600 0.704500 0.667350 -0.569311
O6    O     O_R   0.488180 0.667660 0.422600 -0.570949
O7    O     O_R   0.701020 0.518440 0.622380 -0.588978
O8    O     O_R   0.663600 0.481600 0.377630 -0.590312
C19   C     C_3   0.681860 0.148600 0.629699 -0.319885
C20   C     C_3   0.804338 0.078524 0.635063 -0.378811
C21   C     C_3   0.909432 0.166808 0.753627 -0.891611
H19   H     H_    0.933394 0.255191 0.728590 0.243202
H20   H     H_    0.879734 0.198153 0.863654 0.257327
H21   H     H_    0.995341 0.112281 0.757410 0.245462
H22   H     H_    0.787873 0.988385 0.660023 0.229529
H23   H     H_    0.836217 0.049788 0.526228 0.212009
H24   H     H_    0.707589 0.242598 0.617228 0.204896
H25   H     H_    0.646400 0.171136 0.735970 0.190222
C22   C     C_3   0.836959 0.269258 0.271959 -0.394828
C23   C     C_3   0.873256 0.126775 0.212640 -0.373534
C24   C     C_3   0.777097 0.042489 0.079600 -0.847016
H26   H     H_    0.682906 0.037184 0.112132 0.254497
H27   H     H_    0.768972 0.083990 0.990473 0.254963
H28   H     H_    0.807839 0.941513 0.036446 0.237319
H29   H     H_    0.967645 0.123696 0.178717 0.218723
H30   H     H_    0.877430 0.083436 0.300093 0.213491
H31   H     H_    0.736350 0.264295 0.284895 0.224187
H32   H     H_    0.845641 0.316058 0.189416 0.205066

loop_
_geom_bond_atom_site_label_1
_geom_bond_atom_site_label_2
_ccdc_geom_bond_type
C17   C18   S    
C24   H28   S    
C2    C4    S    
Cu1   O5    S    
C11   C18   S    
C11   O3    A    
C2    C15   S    
C17   H16   S    
C3    H15   S    
C22   H32   S    
C13   O8    A    
C4    H2    S    
C9    C10   S    
C14   C18   S    
Cu2   O2    S    
C20   H22   S    
C9    H9    S    
C14   H11   S    
C21   H21   S    
C22   H31   S    
C24   H26   S    
C2    C3    S    
C23   H30   S    
C22   C23   S    
C16   C18   S    
C17   H17   S    
C20   H23   S    
C8    H5    S    
C2    C13   S    
Cu1   O1    S    
C3    H4    S    
C5    C6    D    
C7    H6    S    
C15   C22   S    
C1    C5    S    
C4    C17   S    
C14   H1    S    
C1    O1    A    
Cu2   O4    S    
C4    H18   S    
C23   H29   S    
C20   C21   S    
C16   H3    S    
C6    C19   S    
C7    C12   S    
Cu1   O7    S    
C7    C8    D    
Cu1   N2    S    
C19   H25   S    
H10   N2    S    
C21   H19   S    
C11   O4    A    
C1    O2    A    
C9    N1    D    
C19   H24   S    
C10   N2    D    
C19   C20   S    
H12   N1    S    
C10   H8    S    
C24   H27   S    
Cu2   N1    S    
C14   C15   S    
C23   C24   S    
C6    C8    S    
Cu2   O8    S    
C16   H14   S    
C5    H7    S    
C13   O7    A    
C15   H13   S    
Cu2   O6    S    
C3    C16   S    
Cu1   Cu2   S    
Cu1   O3    S    
C12   O5    A    
C21   H20   S    
C12   O6    A    
