data_mof_unit_67340.cif
_audit_creation_date              2013-03-05T16:05:43-0500
_audit_creation_method            fapswitch 2.2
_symmetry_space_group_name_H-M    P1
_symmetry_Int_Tables_number       1
_space_group_crystal_system       triclinic
_cell_length_a                    8.289617
_cell_length_b                    15.126738
_cell_length_c                    16.365361
_cell_angle_alpha                 110.882096
_cell_angle_beta                  97.601284
_cell_angle_gamma                 81.90698
_cell_volume                      1890.75344948

loop_
_atom_site_label
_atom_site_type_symbol
_atom_site_description
_atom_site_fract_x
_atom_site_fract_y
_atom_site_fract_z
_atom_type_partial_charge
P1    P     P_3+3 0.592580 0.619730 0.703530 0.527194
O1    O     O_2   0.428380 0.595290 0.716080 -0.381103
O2    O     O_3   0.649320 0.571640 0.606850 -0.311271
O3    O     O_3   0.202060 0.415890 0.655600 -0.381981
O4    O     O_2   0.346337 0.512315 0.811091 -0.387518
O5    O     O_3   0.579878 0.742809 0.721078 -0.543313
O6    O     O_3   0.284392 0.341462 0.793101 -0.499027
H1    H     H_    0.285655 0.239304 0.669373 0.145437
C1    C     C_3   0.226213 0.182545 0.763782 -0.999172
H2    H     H_    0.174875 0.119847 0.712816 0.216866
H3    H     H_    0.355453 0.162203 0.782815 0.301919
P2    P     P_3+3 0.156500 0.273340 0.422460 0.473149
P3    P     P_3+3 0.650994 0.242701 0.604924 0.476588
O7    O     O_2   0.338780 0.265250 0.448290 -0.327788
O8    O     O_3   0.612600 0.359160 0.609560 -0.354209
O9    O     O_2   0.500691 0.195013 0.550087 -0.355598
O10   O     O_3   0.143990 0.217718 0.308001 -0.575116
O11   O     O_3   0.631187 0.246310 0.711291 -0.495583
C2    C     C_3   0.776645 0.274331 0.763087 0.293324
H4    H     H_    0.810471 0.340222 0.757020 0.069104
H5    H     H_    0.876671 0.216203 0.742617 0.066638
C3    C     C_3   0.755452 0.295765 0.859883 -0.652408
H6    H     H_    0.655625 0.354099 0.881165 0.215365
C4    C     C_3   0.742223 0.231188 0.327515 0.244849
H7    H     H_    0.854417 0.261547 0.325899 0.118942
H8    H     H_    0.705179 0.258363 0.395548 0.072805
C5    C     C_3   0.777426 0.121999 0.294866 -0.336436
H9    H     H_    0.903440 0.104862 0.321846 0.148942
Ba1   Ba    Ba6+2 0.364200 0.465260 0.540910 1.592723
C6    C     C_3   0.433657 0.794062 0.754576 0.459276
H10   H     H_    0.330918 0.750668 0.738684 0.116395
H11   H     H_    0.396482 0.848469 0.722755 0.076655
C7    C     C_3   0.460244 0.845993 0.853156 -1.090808
H12   H     H_    0.494833 0.794167 0.887912 0.274808
H13   H     H_    0.346452 0.890393 0.877716 0.238629
H14   H     H_    0.557516 0.894091 0.867600 0.278396
C8    C     C_3   0.194795 0.275821 0.268531 0.336883
H15   H     H_    0.302309 0.311310 0.306975 0.111160
H16   H     H_    0.093029 0.330475 0.263663 0.062016
C9    C     C_3   0.245542 0.214688 0.176767 -0.427056
H17   H     H_    0.343989 0.158531 0.182059 0.250818
H18   H     H_    0.295880 0.259578 0.148176 0.157301
P4    P     P_3+3 0.597130 0.380190 0.296460 0.479973
O12   O     O_2   0.761310 0.404670 0.283870 -0.379801
O13   O     O_3   0.540390 0.428280 0.393140 -0.349398
O14   O     O_3   0.987650 0.584030 0.344390 -0.331253
O15   O     O_3   0.617307 0.257318 0.272237 -0.595876
P5    P     P_3+3 0.534619 0.763390 0.401951 0.502332
O16   O     O_3   0.122140 0.620560 0.549160 -0.372954
O17   O     O_3   0.577110 0.640760 0.390430 -0.347722
O18   O     O_2   0.694941 0.812385 0.433329 -0.329001
O19   O     O_3   0.473137 0.769696 0.297114 -0.583297
Ba2   Ba    Ba6+2 0.825640 0.534660 0.459080 1.626553
P6    P     P_3+3 0.211708 0.444416 0.768742 0.455076
C10   C     C_3   0.215941 0.263499 0.728214 0.538257
H19   H     H_    0.085452 0.280904 0.708315 -0.035360
H20   H     H_    0.156048 0.205064 0.822416 0.266417
O20   O     O_3   0.067570 0.379360 0.450830 -0.402786
C11   C     C_3   0.018435 0.710865 0.732463 0.344217
H21   H     H_    0.892799 0.690556 0.712300 0.110438
H22   H     H_    0.106403 0.647529 0.705132 0.095989
C12   C     C_3   0.051963 0.743544 0.832911 -0.484093
H23   H     H_    0.169895 0.774683 0.853771 0.210055
H24   H     H_    0.066243 0.680629 0.853711 0.155764
P7    P     P_3+3 0.037419 0.741259 0.588157 0.447978
O21   O     O_2   0.850910 0.734710 0.551660 -0.330886
O22   O     O_3   0.039094 0.784468 0.702813 -0.608887
H25   H     H_    0.870436 0.320316 0.899456 0.119131
C13   C     C_3   0.598236 0.731688 0.240272 0.361109
H26   H     H_    0.708888 0.702564 0.271830 0.156637
C14   C     C_3   0.647139 0.810488 0.212470 -0.728947
H27   H     H_    0.701058 0.864617 0.271336 0.228565
H28   H     H_    0.743067 0.780063 0.165971 0.193617
P8    P     P_3+3 0.979953 0.542807 0.228624 0.455050
C15   C     C_3   0.082329 0.694335 0.218368 0.390139
H29   H     H_    0.194263 0.657204 0.241563 0.050535
O23   O     O_2   0.823343 0.491996 0.190642 -0.383860
O24   O     O_3   0.945354 0.641462 0.193858 -0.580384
H30   H     H_    0.222202 0.760238 0.155657 0.264340
C16   C     C_3   0.122923 0.713129 0.137867 -0.878309
H31   H     H_    0.013692 0.746517 0.108561 0.250736
H32   H     H_    0.166544 0.645554 0.087979 0.246448
C17   C     C_2   0.286983 0.455964 0.239669 -0.509028
C18   C     C_R   0.891257 0.525360 0.750998 -0.497484
C19   C     C_2   0.481717 0.381699 0.129430 -0.230499
C20   C     C_2   0.449600 0.411083 0.213987 0.357567
C21   C     C_2   0.164082 0.468309 0.182072 0.212563
C22   C     C_3   0.179959 0.420951 0.083996 -0.079990
C23   C     C_3   0.358829 0.402503 0.060066 0.163022
C24   C     C_2   0.057542 0.461387 0.025044 -0.130753
C25   C     C_2   0.099043 0.484794 0.958885 -0.179090
C26   C     C_R   0.824455 0.563770 0.923506 0.133385
C27   C     C_R   0.976737 0.515898 0.896568 -0.058542
C28   C     C_R   0.709325 0.594638 0.866019 -0.284819
C29   C     C_R   0.742126 0.575787 0.779213 0.267113
C30   C     C_R   0.011397 0.499143 0.809684 0.160615
H33   H     H_    0.600281 0.344969 0.110124 0.152900
H34   H     H_    0.594603 0.632902 0.889369 0.181419
H35   H     H_    0.264272 0.474204 0.307081 0.201133
H36   H     H_    0.917194 0.510585 0.684067 0.165738
H37   H     H_    0.928896 0.465262 0.033715 0.177123
H38   H     H_    0.227041 0.478330 0.948438 0.183593
C31   C     C_R   0.846946 0.185084 0.555389 0.130483
H39   H     H_    0.873402 0.310967 0.527013 0.169735
C32   C     C_R   0.071105 0.204694 0.480825 0.274894
C33   C     C_R   0.283051 0.781475 0.507006 -0.591687
C34   C     C_R   0.362131 0.829604 0.468924 0.198622
C35   C     C_R   0.292765 0.919804 0.469128 -0.147669
C36   C     C_R   0.150788 0.965270 0.513691 0.023169
C37   C     C_R   0.078102 0.913930 0.555185 0.079358
C38   C     C_R   0.074419 0.057587 0.515261 0.042992
C39   C     C_R   0.920400 0.092700 0.552608 -0.004241
C40   C     C_R   0.850205 0.034913 0.588189 -0.126214
C41   C     C_R   0.937245 0.953612 0.597005 -0.197186
C42   C     C_R   0.143919 0.114288 0.478213 -0.278466
C43   C     C_R   0.927168 0.240198 0.522689 -0.500410
C44   C     C_R   0.139918 0.819799 0.548010 0.177135
H40   H     H_    0.256155 0.090391 0.447348 0.173681
H41   H     H_    0.346777 0.949834 0.429995 0.194938
H42   H     H_    0.881859 0.915417 0.628897 0.174861
C45   C     C_3   0.768553 0.079728 0.193293 -0.270062
C46   C     C_3   0.872196 0.984558 0.159941 -0.874818
H43   H     H_    0.864058 0.958727 0.087146 0.246299
H44   H     H_    0.002334 0.992042 0.185512 0.300405
H45   H     H_    0.826857 0.931543 0.180900 0.278663
H46   H     H_    0.812169 0.129664 0.167312 0.198391
H47   H     H_    0.639903 0.070450 0.164895 0.220292
C47   C     C_2   0.659222 0.079829 0.329428 1.062031
O25   O     O_2   0.710250 0.032932 0.376402 -0.644422
O26   O     O_R   0.491292 0.096001 0.308968 -0.754302
H48   H     H_    0.424646 0.065792 0.337514 0.352282
C48   C     C_3   0.102913 0.168646 0.114168 -0.270240
C49   C     C_3   0.147546 0.128070 0.019401 -0.888951
H49   H     H_    0.176719 0.185534 0.998014 0.272527
H50   H     H_    0.254332 0.073384 0.012683 0.259083
H51   H     H_    0.042096 0.094628 0.976127 0.274510
H52   H     H_    0.073138 0.109669 0.132711 0.233995
H53   H     H_    0.993959 0.221705 0.118521 0.192451
C50   C     C_3   0.916643 0.814004 0.882879 -0.301546
C51   C     C_3   0.898995 0.909684 0.868918 -0.663108
H54   H     H_    0.020808 0.934963 0.874771 0.247231
H55   H     H_    0.835639 0.903568 0.803256 0.285494
H56   H     H_    0.824815 0.963246 0.919347 0.208720
H57   H     H_    0.798942 0.782171 0.863664 0.216375
H58   H     H_    0.947283 0.826514 0.954040 0.196838
C52   C     C_2   0.538990 0.650110 0.162788 0.969265
O27   O     O_2   0.481842 0.587146 0.176180 -0.653792
O28   O     O_R   0.549476 0.645104 0.076588 -0.802899
H59   H     H_    0.504756 0.586256 0.031358 0.320517
C53   C     C_2   0.506481 0.858476 0.170293 1.160583
O29   O     O_2   0.391846 0.903299 0.212246 -0.611837
O30   O     O_R   0.509341 0.852982 0.083408 -0.795117
H60   H     H_    0.409082 0.888540 0.062431 0.312514
C54   C     C_2   0.041717 0.786040 0.291601 0.943774
O31   O     O_2   0.994952 0.783415 0.358248 -0.621506
O32   O     O_R   0.056227 0.873662 0.283920 -0.793129
H61   H     H_    0.017279 0.929577 0.335831 0.340774
C55   C     C_2   0.675831 0.038938 0.598327 1.122387
O33   O     O_2   0.579456 0.021280 0.532982 -0.616625
O34   O     O_R   0.624988 0.048335 0.679314 -0.793087
H62   H     H_    0.504351 0.040801 0.675274 0.307754
C56   C     C_2   0.346094 0.685750 0.498327 1.209771
O35   O     O_2   0.431925 0.671694 0.558319 -0.558190
O36   O     O_R   0.305894 0.610490 0.423525 -0.726308
H63   H     H_    0.254478 0.634285 0.374721 0.258025
C57   C     C_2   0.719046 0.209852 0.877121 1.201913
O37   O     O_2   0.814445 0.137643 0.858109 -0.661369
O38   O     O_R   0.577790 0.213692 0.916823 -0.812399
H64   H     H_    0.567086 0.151918 0.925854 0.306545

loop_
_geom_bond_atom_site_label_1
_geom_bond_atom_site_label_2
_geom_bond_distance
_ccdc_geom_bond_type
C17   C21   1.333862 D    
C21   C22   1.521944 S    
Ba2   O20   2.842174 S    
P2    Ba1   3.415076 S    
C32   C43   1.398227 A    
C2    H4    1.112901 S    
C4    C5    1.541135 S    
O6    C10   1.405933 S    
C10   H19   1.110491 S    
C47   O25   1.221227 D    
C49   H49   1.111325 S    
C5    C45   1.549387 S    
Ba1   O16   2.842815 S    
C19   C20   1.345013 D    
C12   H23   1.104925 S    
O16   P7    1.777888 S    
P3    O11   1.750830 S    
O1    Ba1   2.870776 S    
O36   H63   1.010363 S    
C2    H5    1.109562 S    
C4    H8    1.109744 S    
C56   O35   1.198656 D    
C8    C9    1.534580 S    
C36   C38   1.442680 A    
C52   O28   1.399210 S    
P2    C32   1.893307 S    
P5    C34   1.864879 S    
C33   C34   1.383511 A    
C28   H34   1.081174 S    
C48   H53   1.112277 S    
C7    H14   1.107965 S    
C35   C36   1.425358 A    
H1    C10   1.109784 S    
C13   C14   1.537417 S    
P1    O1    1.517029 D    
C18   C30   1.406694 A    
O2    Ba1   2.915211 S    
C12   H24   1.106424 S    
O19   C13   1.406195 S    
C11   O22   1.401857 S    
H39   C43   1.081496 S    
O12   Ba2   2.871225 S    
C55   O34   1.396810 S    
P5    O18   1.550715 D    
C50   H58   1.111183 S    
C38   C39   1.438701 A    
C48   C49   1.525831 S    
P7    O22   1.752021 S    
P8    O23   1.545774 D    
P2    O10   1.754145 S    
C49   H51   1.107658 S    
C34   C35   1.403096 A    
C51   H56   1.110406 S    
C1    C10   1.520305 S    
P8    C21   1.841572 S    
P3    C31   1.871206 S    
C1    H2    1.109994 S    
C37   C41   1.383217 A    
P6    C30   1.844828 S    
O3    Ba1   2.799371 S    
P2    O20   1.599328 S    
C50   H57   1.107205 S    
P5    O17   1.784622 S    
C9    C48   1.528151 S    
O13   Ba2   2.916116 S    
C11   H21   1.102183 S    
C17   H35   1.073305 S    
C57   O38   1.397103 S    
C13   C52   1.504092 S    
C4    O15   1.392381 S    
C35   H41   1.075875 S    
C57   O37   1.222666 D    
C28   C29   1.401772 A    
C37   C44   1.412494 A    
C26   C28   1.401478 A    
C39   C40   1.427403 A    
P4    Ba2   3.407365 S    
O8    Ba1   2.796610 S    
C56   O36   1.382399 S    
C11   H22   1.110763 S    
O17   Ba2   2.797259 S    
P1    O5    1.769584 S    
C18   H36   1.081774 S    
O38   H64   1.013988 S    
O4    P6    1.546406 D    
C2    C3    1.528656 S    
C4    H7    1.100910 S    
C16   H32   1.105116 S    
C14   H28   1.109339 S    
C19   C23   1.511241 S    
O11   C2    1.403384 S    
C48   H52   1.106232 S    
Ba1   O13   2.834494 S    
C31   C39   1.431133 A    
P1    O2    1.591794 S    
C18   C29   1.399208 A    
C15   H29   1.110228 S    
C24   H37   1.085062 S    
C8    H15   1.106315 S    
C25   C27   1.491175 S    
C1    H3    1.107573 S    
C5    C47   1.505595 S    
P1    C29   1.860484 S    
C42   H40   1.072805 S    
P1    Ba1   3.406774 S    
C7    H12   1.109853 S    
C45   C46   1.524533 S    
O10   C8    1.395714 S    
C51   H54   1.109986 S    
Ba2   O21   2.884913 S    
P4    O13   1.591791 S    
C3    H25   1.109410 S    
C54   O31   1.220050 D    
C40   C41   1.379493 A    
C9    H17   1.110695 S    
O5    C6    1.406784 S    
C22   C24   1.523686 S    
C27   C30   1.413944 A    
P3    O8    1.721537 S    
C33   C44   1.390629 A    
C55   O33   1.218050 D    
C12   C50   1.532226 S    
C53   O30   1.397649 S    
C14   C53   1.506280 S    
O7    Ba1   2.884666 S    
C46   H44   1.110363 S    
O14   P8    1.766143 S    
Ba1   O20   2.912578 S    
C52   O27   1.217742 D    
C15   C16   1.529992 S    
O32   H61   1.012314 S    
C11   C12   1.537022 S    
C6    C7    1.523028 S    
O3    P6    1.738397 S    
C3    H6    1.111892 S    
P4    C20   1.840580 S    
C54   O32   1.398117 S    
C32   C42   1.403248 A    
C51   H55   1.110227 S    
C16   H31   1.110870 S    
C47   O26   1.396069 S    
C50   C51   1.528277 S    
C45   H47   1.112449 S    
O34   H62   1.013244 S    
C46   H45   1.103225 S    
C31   C43   1.411380 A    
P2    O7    1.514170 D    
C40   C55   1.467026 S    
C45   H46   1.108429 S    
C8    H16   1.110986 S    
C36   C37   1.429440 A    
C6    H11   1.111374 S    
O2    Ba2   2.835139 S    
C15   C54   1.504680 S    
C24   C25   1.349854 D    
C6    H10   1.095885 S    
Ba1   Ba2   4.584258 S    
P4    O12   1.517349 D    
O16   Ba2   2.911674 S    
O14   Ba2   2.798720 S    
C9    H18   1.100960 S    
C26   C27   1.405182 A    
C7    H13   1.109916 S    
O26   H48   1.011838 S    
C1    H20   1.110841 S    
O28   H59   1.014064 S    
C33   C56   1.431773 S    
C13   H26   1.106930 S    
C15   O24   1.412930 S    
C19   H33   1.085251 S    
H30   C16   1.106216 S    
C3    C57   1.501285 S    
P5    O19   1.756170 S    
C17   C20   1.464090 S    
C14   H27   1.106830 S    
C22   C23   1.545656 S    
P7    O21   1.585428 D    
P8    O24   1.753464 S    
P3    O9    1.540741 D    
C5    H9    1.112072 S    
C49   H50   1.111179 S    
P7    C44   1.885061 S    
C53   O29   1.222076 D    
C38   C42   1.427390 A    
O30   H60   1.014003 S    
C25   H38   1.082352 S    
O6    P6    1.749905 S    
C46   H43   1.109406 S    
P4    O15   1.744830 S    
C41   H42   1.081697 S    
