data_mof_unit_44899.cif
_audit_creation_date              2012-10-26T21:02:37-0400
_audit_creation_method            fapswitch 2.2
_symmetry_space_group_name_H-M    P1
_symmetry_Int_Tables_number       1
_space_group_crystal_system       triclinic
_cell_length_a                    12.367146
_cell_length_b                    13.147787
_cell_length_c                    15.038864
_cell_angle_alpha                 76.495851
_cell_angle_beta                  99.671769
_cell_angle_gamma                 116.541392
_cell_volume                      2121.43491451

loop_
_atom_site_label
_atom_site_type_symbol
_atom_type_description
_atom_site_fract_x
_atom_site_fract_y
_atom_site_fract_z
_atom_type_partial_charge
C1    C     C_R   0.855546 0.286324 0.510117 0.532914
C2    C     C_R   0.926617 0.546149 0.795187 -0.138430
C3    C     C_R   0.009926 0.518185 0.765643 -0.033401
C4    C     C_R   0.002738 0.505789 0.670232 0.534948
C5    C     C_R   0.102472 0.503683 0.827646 -0.142601
C6    C     C_R   0.295212 0.025489 0.365773 -0.099510
C7    C     C_R   0.231422 0.836133 0.461375 -0.016197
C8    C     C_R   0.807396 0.089285 0.594604 -0.177978
C9    C     C_R   0.721410 0.981743 0.630116 -0.103951
C10   C     C_R   0.599818 0.945353 0.597617 0.275916
C11   C     C_R   0.565087 0.010975 0.516842 0.020928
C12   C     C_R   0.112589 0.516723 0.104940 0.038123
C13   C     C_R   0.655876 0.120202 0.479717 -0.055080
C14   C     C_R   0.444229 0.977020 0.474195 -0.034057
C15   C     C_R   0.415697 0.054921 0.402091 -0.000012
C16   C     C_R   0.145361 0.713830 0.483360 0.549507
C17   C     C_R   0.507964 0.159533 0.364814 0.253792
C18   C     C_R   0.627101 0.187512 0.400294 -0.085383
C19   C     C_R   0.351215 0.866735 0.498369 -0.180857
C20   C     C_R   0.203080 0.916067 0.394033 0.249786
C21   C     C_R   0.773918 0.162250 0.524111 -0.012734
C22   C     C_R   0.300337 0.280799 0.593936 -0.146846
C23   C     C_R   0.828458 0.549745 0.013853 -0.099292
C24   C     C_R   0.769834 0.656639 0.382562 0.059448
C25   C     C_R   0.675980 0.691579 0.353826 0.236957
C26   C     C_R   0.568416 0.632451 0.398116 -0.102817
C27   C     C_R   0.547950 0.530979 0.463462 -0.076992
C28   C     C_R   0.003592 0.504018 0.328691 0.547439
C29   C     C_R   0.643121 0.494155 0.486531 0.132973
C30   C     C_R   0.436220 0.463936 0.506929 -0.020628
C31   C     C_R   0.409443 0.348342 0.551144 0.026506
C32   C     C_R   0.496653 0.305762 0.558130 -0.027225
C33   C     C_R   0.617368 0.387421 0.549592 0.061768
C34   C     C_R   0.830229 0.556184 0.920039 0.271912
C35   C     C_R   0.349637 0.506138 0.508694 0.078524
C36   C     C_R   0.221659 0.328495 0.595933 0.044874
C37   C     C_R   0.114748 0.522076 0.197159 0.266217
C38   C     C_R   0.010589 0.513672 0.230688 -0.014262
C39   C     C_R   0.914776 0.521678 0.169204 -0.193235
C40   C     C_R   0.918992 0.531792 0.075706 -0.053200
C41   C     C_R   0.015093 0.523714 0.043832 0.000240
C42   C     C_3   0.278063 0.662696 0.259183 0.001680
C43   C     C_3   0.380230 0.728404 0.195255 -0.400565
C44   C     C_3   0.494024 0.330391 0.310066 -0.012707
C45   C     C_R   0.923413 0.542942 0.888068 0.013811
C46   C     C_3   0.455716 0.400970 0.226577 -0.377723
C47   C     C_3   0.475863 0.878230 0.713980 -0.026751
C48   C     C_3   0.378923 0.770271 0.764837 -0.364963
C49   C     C_3   0.470385 0.181675 0.601449 -0.415765
C50   C     C_3   0.704999 0.765656 0.201867 -0.024551
C51   C     C_3   0.700698 0.862129 0.124470 -0.371177
C52   C     C_3   0.687854 0.386965 0.641052 -0.323457
C53   C     C_3   0.641896 0.477615 0.845337 -0.014219
C54   C     C_3   0.539346 0.455612 0.901556 -0.382595
C55   C     C_3   0.083684 0.872821 0.261031 -0.017530
C56   C     C_R   0.015060 0.525274 0.950432 0.021564
C57   C     C_3   0.044100 0.959326 0.195416 -0.383265
C58   C     C_R   0.107696 0.510588 0.919275 0.015191
C59   C     C_R   0.203244 0.501800 0.980339 -0.156819
C60   C     C_R   0.206981 0.507230 0.072222 -0.123970
Cu1   Cu    Cu3+1 0.098270 0.475420 0.521130 0.945281
Cu2   Cu    Cu3+1 0.901730 0.524580 0.478870 0.923041
H1    H     H_    0.272486 0.086058 0.313134 0.165196
H2    H     H_    0.855880 0.705645 0.352746 0.162111
H3    H     H_    0.499600 0.663743 0.376697 0.121505
H4    H     H_    0.757211 0.560506 0.038196 0.112515
H5    H     H_    0.864070 0.570126 0.746464 0.159933
H6    H     H_    0.171127 0.487618 0.804801 0.131381
H7    H     H_    0.275584 0.491809 0.956865 0.100129
H8    H     H_    0.282544 0.501671 0.117843 0.145616
H9    H     H_    0.316500 0.670423 0.330413 0.146806
H10   H     H_    0.215922 0.706355 0.245412 0.094423
H11   H     H_    0.342593 0.735303 0.122852 0.136032
H12   H     H_    0.371177 0.798974 0.540838 0.214477
H13   H     H_    0.435198 0.816791 0.210658 0.131416
H14   H     H_    0.439021 0.682568 0.204752 0.169341
H15   H     H_    0.589469 0.384206 0.332331 0.146410
H16   H     H_    0.433789 0.309906 0.365282 0.149070
H17   H     H_    0.361016 0.349210 0.201758 0.163619
H18   H     H_    0.460890 0.480055 0.245136 0.110900
H19   H     H_    0.516551 0.426675 0.170887 0.139113
H20   H     H_    0.434449 0.938971 0.680981 0.127830
H21   H     H_    0.550977 0.919052 0.764721 0.129345
H22   H     H_    0.417240 0.707895 0.799564 0.158372
H23   H     H_    0.898166 0.119097 0.627881 0.124549
H24   H     H_    0.344832 0.793668 0.817203 0.100008
H25   H     H_    0.301942 0.728658 0.715896 0.166619
H26   H     H_    0.550583 0.164602 0.602799 0.139074
H27   H     H_    0.447652 0.163238 0.673560 0.112518
H28   H     H_    0.393689 0.122187 0.561923 0.141649
H29   H     H_    0.631770 0.682248 0.185884 0.109331
H30   H     H_    0.794077 0.763422 0.203491 0.115216
H31   H     H_    0.771385 0.947039 0.138588 0.161402
H32   H     H_    0.716843 0.847819 0.058923 0.097633
H33   H     H_    0.610727 0.863717 0.117295 0.149590
H34   H     H_    0.747553 0.929516 0.688754 0.143323
H35   H     H_    0.729795 0.475651 0.654602 0.144602
H36   H     H_    0.629644 0.337918 0.699426 0.074749
H37   H     H_    0.749118 0.345018 0.645170 0.165586
H38   H     H_    0.661273 0.399831 0.859662 0.110179
H39   H     H_    0.609623 0.488814 0.771773 0.154499
H40   H     H_    0.520833 0.533284 0.888498 0.160214
H41   H     H_    0.455831 0.381693 0.881898 0.100689
H42   H     H_    0.563470 0.434185 0.975777 0.136739
H43   H     H_    0.015857 0.784261 0.253043 0.132875
H44   H     H_    0.170750 0.882351 0.240079 0.106598
H45   H     H_    0.697326 0.263704 0.364811 0.149333
H46   H     H_    0.117562 0.048069 0.192317 0.144113
H47   H     H_    0.022450 0.937697 0.125560 0.096957
H48   H     H_    0.962625 0.957002 0.219037 0.187094
H49   H     H_    0.137048 0.275549 0.627613 0.121951
H50   H     H_    0.275472 0.192061 0.627686 0.098975
H51   H     H_    0.837238 0.521840 0.193727 0.132201
H52   H     H_    0.363105 0.592316 0.475381 0.110881
N1    N     N_R   0.246280 0.438190 0.553160 -0.235244
N2    N     N_R   0.754320 0.561190 0.447410 -0.271520
O1    O     O_R   0.972510 0.318130 0.526570 -0.504923
O2    O     O_3   0.483383 0.228247 0.286636 -0.576197
O3    O     O_3   0.518476 0.846589 0.648155 -0.577686
O4    O     O_3   0.689852 0.787105 0.285862 -0.555809
O5    O     O_3   0.744020 0.581217 0.859732 -0.566695
O6    O     O_3   0.086839 0.885432 0.352727 -0.544344
O7    O     O_R   0.806530 0.359650 0.490890 -0.512988
O8    O     O_R   0.082980 0.479210 0.647590 -0.504635
O9    O     O_R   0.917000 0.520730 0.611900 -0.516894
O10   O     O_R   0.193470 0.640350 0.509110 -0.535654
O11   O     O_R   0.027490 0.681870 0.473430 -0.452291
O12   O     O_R   0.083000 0.479270 0.388100 -0.445285
O13   O     O_R   0.917020 0.520790 0.352410 -0.539452
O14   O     O_3   0.221187 0.543703 0.252533 -0.557665

loop_
_geom_bond_atom_site_label_1
_geom_bond_atom_site_label_2
_ccdc_geom_bond_type
C43   H11   S    
C1    C21   S    
C27   C29   A    
Cu2   O13   S    
C49   H28   S    
C53   C54   S    
C33   C52   S    
C26   C27   A    
C37   C38   A    
C5    C58   A    
C55   H43   S    
Cu1   O8    S    
C50   O4    S    
C23   H4    S    
C54   H42   S    
C44   H15   S    
C8    H23   S    
C30   C31   A    
C11   C14   A    
C23   C40   A    
C29   C33   A    
C52   H35   S    
C37   O14   S    
C4    O8    A    
C35   H52   S    
C28   O13   A    
C47   H20   S    
C12   C37   A    
C18   H45   S    
C10   O3    S    
C6    C15   A    
C57   H47   S    
C46   H17   S    
C57   H48   S    
C45   C56   A    
C53   H39   S    
C8    C9    A    
C39   H51   S    
Cu1   N1    S    
C35   N1    A    
Cu1   O10   S    
C60   H8    S    
C9    C10   A    
C20   O6    S    
C47   O3    S    
C55   O6    S    
C59   C60   A    
C2    C45   A    
C27   C30   A    
C49   H26   S    
C5    H6    S    
Cu2   O7    S    
C44   C46   S    
C50   C51   S    
C53   H38   S    
C43   H13   S    
C22   C31   A    
C55   H44   S    
Cu1   O1    S    
C47   C48   S    
C54   H41   S    
C24   C25   A    
C4    O9    A    
C2    H5    S    
C39   C40   A    
C58   C59   A    
C48   H22   S    
C6    H1    S    
C1    O7    A    
C41   C56   A    
Cu2   N2    S    
C12   C41   A    
C46   H19   S    
C31   C32   A    
C28   C38   S    
C23   C34   A    
C36   H49   S    
C42   H10   S    
C17   C18   A    
C48   H25   S    
C13   C21   A    
C42   O14   S    
C34   C45   A    
C1    O1    A    
C9    H34   S    
C17   O2    S    
C59   H7    S    
C13   C18   A    
C50   H30   S    
C7    C16   S    
C29   N2    A    
C51   H31   S    
C24   N2    A    
C34   O5    S    
C22   H50   S    
C55   C57   S    
C48   H24   S    
C44   O2    S    
C3    C4    S    
C25   O4    S    
C22   C36   A    
C43   H14   S    
C15   C17   A    
C40   C41   A    
C26   H3    S    
C14   C19   A    
C54   H40   S    
C19   H12   S    
C49   H27   S    
C3    C5    A    
C8    C21   A    
Cu2   O9    S    
C30   C35   A    
C52   H37   S    
C7    C19   A    
C32   C33   A    
C44   H16   S    
C2    C3    A    
C25   C26   A    
C53   O5    S    
C46   H18   S    
C11   C13   A    
C38   C39   A    
C6    C20   A    
C52   H36   S    
C42   H9    S    
C56   C58   A    
Cu1   O12   S    
Cu1   Cu2   S    
C16   O11   A    
C32   C49   S    
Cu2   O11   S    
C10   C11   A    
C51   H32   S    
C47   H21   S    
C12   C60   A    
C50   H29   S    
C57   H46   S    
C24   H2    S    
C7    C20   A    
C42   C43   S    
C14   C15   A    
C36   N1    A    
C16   O10   A    
C28   O12   A    
C51   H33   S    
