data_mof_unit_34362.cif
_audit_creation_date              2012-12-11T15:26:37-0500
_audit_creation_method            fapswitch 2.2
_symmetry_space_group_name_H-M    P1
_symmetry_Int_Tables_number       1
_space_group_crystal_system       triclinic
_cell_length_a                    7.223265
_cell_length_b                    12.126058
_cell_length_c                    29.076082
_cell_angle_alpha                 89.691741
_cell_angle_beta                  87.366801
_cell_angle_gamma                 90.338056
_cell_volume                      2543.99210259

loop_
_atom_site_label
_atom_site_type_symbol
_atom_type_description
_atom_site_fract_x
_atom_site_fract_y
_atom_site_fract_z
_atom_type_partial_charge
O1    O     O_R   0.647170 0.849180 0.201220 -0.531069
O2    O     O_R   0.352830 0.150820 0.798780 -0.538516
O3    O     O_R   0.352830 0.150820 0.701220 -0.542008
O4    O     O_R   0.647170 0.849180 0.298780 -0.534431
O5    O     O_R   0.147170 0.650820 0.298780 -0.541102
O6    O     O_R   0.852830 0.349180 0.701220 -0.528353
O7    O     O_R   0.852830 0.349180 0.798780 -0.531590
O8    O     O_R   0.147170 0.650820 0.201220 -0.542618
O9    O     O_R   0.317430 0.862210 0.298450 -0.544801
O10   O     O_R   0.682570 0.137790 0.701550 -0.532813
O11   O     O_R   0.682570 0.137790 0.798450 -0.540895
O12   O     O_R   0.317430 0.862210 0.201550 -0.539679
O13   O     O_R   0.817430 0.637790 0.201550 -0.534771
O14   O     O_R   0.182570 0.362210 0.798450 -0.549934
O15   O     O_R   0.182570 0.362210 0.701550 -0.545760
O16   O     O_R   0.817430 0.637790 0.298450 -0.539593
H1    H     H_    0.786911 0.248328 0.462700 0.140567
H2    H     H_    0.202160 0.752636 0.537139 0.143887
H3    H     H_    0.834370 0.759279 0.958720 0.142666
H4    H     H_    0.160777 0.240259 0.042161 0.135308
H5    H     H_    0.802629 0.202514 0.030384 0.141252
H6    H     H_    0.302430 0.729406 0.955296 0.143027
H7    H     H_    0.657057 0.730888 0.544109 0.141907
H8    H     H_    0.334262 0.251637 0.462150 0.138147
C1    C     C_R   0.482603 0.885108 0.314574 0.697614
C2    C     C_R   0.516660 0.110608 0.687142 0.730931
C3    C     C_R   0.510407 0.108911 0.812500 0.696942
C4    C     C_R   0.489314 0.885168 0.185061 0.692887
C5    C     C_R   0.988464 0.611119 0.187019 0.706819
C6    C     C_R   0.011145 0.387952 0.813520 0.727167
C7    C     C_R   0.017977 0.388976 0.686728 0.701807
C8    C     C_R   0.981868 0.611505 0.313510 0.691227
H9    H     H_    0.763252 0.286719 0.382436 0.132448
H10   H     H_    0.210554 0.720062 0.617869 0.135808
H11   H     H_    0.807824 0.717466 0.878831 0.123359
H12   H     H_    0.112681 0.265847 0.123269 0.129023
H13   H     H_    0.722963 0.197282 0.109652 0.130580
H14   H     H_    0.258206 0.783527 0.876650 0.132956
H15   H     H_    0.687747 0.773317 0.624249 0.133892
H16   H     H_    0.384170 0.226881 0.381194 0.125349
H17   H     H_    0.921002 0.351827 0.603069 0.118882
H18   H     H_    0.113437 0.636608 0.395575 0.121957
H19   H     H_    0.960278 0.659177 0.100545 0.114879
H20   H     H_    0.117215 0.357717 0.898011 0.117503
H21   H     H_    0.663509 0.110535 0.891764 0.122980
H22   H     H_    0.457143 0.822206 0.098078 0.117241
H23   H     H_    0.507197 0.829009 0.402353 0.111304
H24   H     H_    0.396043 0.138034 0.604632 0.121820
O17   O     O_3   0.480630 0.680630 0.250000 -0.382627
O18   O     O_3   0.519370 0.319370 0.750000 -0.379870
O19   O     O_3   0.980630 0.819370 0.250000 -0.375240
O20   O     O_3   0.019370 0.180630 0.750000 -0.379693
V1    V     V_3+5 0.205800 0.762860 0.250000 1.396209
V2    V     V_3+5 0.794200 0.237140 0.750000 1.420853
V3    V     V_3+5 0.705800 0.737140 0.250000 1.412305
V4    V     V_3+5 0.294200 0.262860 0.750000 1.395417
H25   H     H_    0.857149 0.302156 0.538045 0.127402
H26   H     H_    0.146542 0.694645 0.461367 0.126004
H27   H     H_    0.890510 0.705652 0.035198 0.131904
H28   H     H_    0.138033 0.301069 0.964928 0.125974
H29   H     H_    0.771055 0.137847 0.954792 0.122313
H30   H     H_    0.390119 0.773564 0.031294 0.130892
H31   H     H_    0.591596 0.783799 0.467634 0.132271
H32   H     H_    0.356000 0.190190 0.538780 0.127312
C9    C     C_R   0.972918 0.529866 0.351426 -0.115874
C10   C     C_R   0.026266 0.469547 0.648510 -0.114142
C11   C     C_R   0.991225 0.466886 0.851916 -0.074997
C12   C     C_R   0.005779 0.532414 0.148791 -0.091674
C13   C     C_R   0.512957 0.955687 0.142991 -0.116215
C14   C     C_R   0.489464 0.022431 0.848641 -0.116732
C15   C     C_R   0.518779 0.027924 0.650240 -0.082748
C16   C     C_R   0.479270 0.960148 0.354482 -0.085559
C17   C     C_R   0.839927 0.363081 0.385965 -0.188289
C18   C     C_R   0.142908 0.640702 0.614370 -0.183352
C19   C     C_R   0.876015 0.639069 0.883737 -0.238917
C20   C     C_R   0.078080 0.351655 0.118282 -0.218452
C21   C     C_R   0.659539 0.116595 0.106995 -0.184127
C22   C     C_R   0.346550 0.855139 0.880672 -0.193491
C23   C     C_R   0.622555 0.852543 0.619211 -0.218738
C24   C     C_R   0.413346 0.140364 0.386523 -0.188996
C25   C     C_R   0.867467 0.432038 0.347655 0.274711
C26   C     C_R   0.108731 0.574674 0.653511 0.303285
C27   C     C_R   0.897296 0.567145 0.846521 0.274337
C28   C     C_R   0.046248 0.420522 0.156532 0.285784
C29   C     C_R   0.573215 0.066521 0.145867 0.289088
C30   C     C_R   0.367770 0.931439 0.844392 0.288049
C31   C     C_R   0.602001 0.924934 0.656389 0.282373
C32   C     C_R   0.451927 0.073872 0.348580 0.269703
C33   C     C_R   0.037843 0.559921 0.394407 -0.271444
C34   C     C_R   0.978766 0.433686 0.604751 -0.268228
C35   C     C_R   0.048987 0.436170 0.895618 -0.291335
C36   C     C_R   0.989514 0.572550 0.103898 -0.271566
C37   C     C_R   0.506029 0.906342 0.099195 -0.263073
C38   C     C_R   0.577654 0.037969 0.890054 -0.274472
C39   C     C_R   0.457909 0.057818 0.606997 -0.289531
C40   C     C_R   0.487401 0.916776 0.399269 -0.272475
C41   C     C_R   0.992855 0.496382 0.434657 0.078445
C42   C     C_R   0.017617 0.498830 0.564706 0.079562
C43   C     C_R   0.009902 0.502962 0.934858 0.083243
C44   C     C_R   0.018581 0.503683 0.065119 0.088355
C45   C     C_R   0.565419 0.964672 0.058423 0.079771
C46   C     C_R   0.540418 0.968036 0.928767 0.075507
C47   C     C_R   0.487857 0.988584 0.568227 0.081622
C48   C     C_R   0.464128 0.985745 0.438510 0.086626
C49   C     C_R   0.898845 0.394736 0.429134 0.075795
C50   C     C_R   0.099755 0.603865 0.570571 0.066866
C51   C     C_R   0.929185 0.607583 0.927569 0.090731
C52   C     C_R   0.070740 0.393105 0.073193 0.084104
C53   C     C_R   0.654131 0.067798 0.063866 0.078419
C54   C     C_R   0.426952 0.874096 0.922902 0.069035
C55   C     C_R   0.567242 0.883565 0.575434 0.080981
C56   C     C_R   0.416288 0.097410 0.431039 0.072817
C57   C     C_R   0.031005 0.531999 0.480227 0.064247
C58   C     C_R   0.981924 0.462483 0.519073 0.065363
C59   C     C_R   0.040453 0.467950 0.981094 0.069339
C60   C     C_R   0.997635 0.540759 0.018759 0.063839
C61   C     C_R   0.536330 0.926959 0.012584 0.057809
C62   C     C_R   0.598778 0.993563 0.973850 0.065027
C63   C     C_R   0.451523 0.022556 0.522357 0.067791
C64   C     C_R   0.488336 0.948770 0.484677 0.062907
C65   C     C_R   0.897775 0.359378 0.510982 -0.191871
C66   C     C_R   0.109936 0.636475 0.488404 -0.191003
C67   C     C_R   0.928072 0.646577 0.008948 -0.198824
C68   C     C_R   0.103501 0.360799 0.991144 -0.191266
C69   C     C_R   0.707316 0.087865 0.981876 -0.186016
C70   C     C_R   0.436858 0.829266 0.004118 -0.190382
C71   C     C_R   0.558144 0.842977 0.494191 -0.201012
C72   C     C_R   0.389027 0.130032 0.512682 -0.190160
C73   C     C_R   0.856565 0.326848 0.466990 -0.189118
C74   C     C_R   0.142255 0.671465 0.532622 -0.185182
C75   C     C_R   0.893859 0.678664 0.964339 -0.189418
C76   C     C_R   0.116545 0.324260 0.036215 -0.207150
C77   C     C_R   0.730581 0.125125 0.025991 -0.193263
C78   C     C_R   0.385068 0.803061 0.959974 -0.183050
C79   C     C_R   0.597713 0.811607 0.538650 -0.190268
C80   C     C_R   0.375258 0.166924 0.467931 -0.194523
N1    N     N_2   0.164826 0.613538 0.697104 -0.517222
H33   H     H_    0.169221 0.556126 0.723213 0.264661
C81   C     C_3   0.078347 0.714609 0.712634 -0.613833
H34   H     H_    0.125824 0.735350 0.747310 0.220506
H35   H     H_    0.925891 0.703651 0.714762 0.211827
H36   H     H_    0.116329 0.784173 0.689061 0.203090
N2    N     N_2   0.782677 0.403562 0.306013 -0.537259
H37   H     H_    0.847280 0.434691 0.276388 0.270240
C82   C     C_3   0.583540 0.417829 0.307357 -0.470375
H38   H     H_    0.529729 0.398994 0.273189 0.181876
H39   H     H_    0.546086 0.504035 0.316270 0.204324
H40   H     H_    0.515831 0.361385 0.333107 0.201214
N3    N     N_2   0.061329 0.380873 0.202630 -0.548272
H41   H     H_    0.157147 0.421321 0.221765 0.247145
C83   C     C_3   0.033630 0.264844 0.213333 -0.584742
H42   H     H_    0.022986 0.253228 0.251251 0.213607
H43   H     H_    0.150036 0.214710 0.199535 0.205112
H44   H     H_    0.905341 0.233625 0.198698 0.227231
N4    N     N_2   0.821115 0.595471 0.803894 -0.540314
H45   H     H_    0.851386 0.675714 0.794302 0.245763
C84   C     C_3   0.624139 0.573534 0.802496 -0.488639
H46   H     H_    0.580491 0.581513 0.766554 0.196736
H47   H     H_    0.544956 0.633399 0.824417 0.176847
H48   H     H_    0.590022 0.488609 0.814742 0.222256
N5    N     N_2   0.265391 0.915312 0.804139 -0.542828
H49   H     H_    0.317376 0.954925 0.774880 0.259406
C85   C     C_3   0.066681 0.927550 0.810988 -0.507616
H50   H     H_    0.999150 0.915078 0.777852 0.187144
H51   H     H_    0.032987 0.011678 0.823705 0.213274
H52   H     H_    0.009431 0.865349 0.836002 0.183397
N6    N     N_2   0.539163 0.128305 0.186950 -0.538200
H53   H     H_    0.439200 0.092258 0.208401 0.242618
C86   C     C_3   0.509492 0.246242 0.181873 -0.585010
H54   H     H_    0.450464 0.280471 0.214576 0.209498
H55   H     H_    0.412392 0.262843 0.154260 0.209765
H56   H     H_    0.640845 0.290681 0.173429 0.212061
N7    N     N_2   0.472758 0.124602 0.304827 -0.539582
H57   H     H_    0.387609 0.090804 0.281252 0.241725
C87   C     C_3   0.664382 0.137301 0.288590 -0.507663
H58   H     H_    0.676346 0.206217 0.263682 0.246905
H59   H     H_    0.714647 0.060699 0.271545 0.200028
H60   H     H_    0.755081 0.157560 0.317285 0.203658
N8    N     N_2   0.670108 0.895930 0.699824 -0.536087
H61   H     H_    0.811623 0.885595 0.698678 0.253702
C88   C     C_3   0.571433 0.806216 0.723025 -0.586063
H62   H     H_    0.616058 0.799806 0.758942 0.207234
H63   H     H_    0.599639 0.727170 0.704992 0.206241
H64   H     H_    0.420558 0.821609 0.723873 0.230381

loop_
_geom_bond_atom_site_label_1
_geom_bond_atom_site_label_2
_ccdc_geom_bond_type
C7    C10   S    
O14   V4    S    
C11   C27   A    
C84   H46   S    
H24   C39   S    
N4    C84   S    
C86   H54   S    
C4    C13   S    
C44   C60   A    
C19   C27   A    
C20   C28   A    
C23   C31   A    
O4    C1    A    
C64   C71   A    
O9    C1    A    
N6    C86   S    
C88   H62   S    
C9    C33   A    
N1    C81   S    
H11   C19   S    
C12   C36   A    
H6    C78   S    
O8    C5    A    
H9    C17   S    
O13   C5    A    
C14   C38   A    
C56   C80   A    
C26   N1    S    
C13   C37   A    
N3    C83   S    
C43   C59   A    
C81   H36   S    
C42   C58   A    
C27   N4    S    
C45   C53   A    
C59   C60   A    
N2    C82   S    
C68   C76   A    
C47   C55   A    
C83   H44   S    
H5    C77   S    
H28   C68   S    
H12   C20   S    
N5    C85   S    
C58   C65   A    
C9    C25   A    
C57   C66   A    
C85   H50   S    
C39   C47   A    
H32   C72   S    
O1    C4    A    
H23   C40   S    
H16   C24   S    
O2    C3    A    
C62   C69   A    
C61   C70   A    
C6    C11   S    
C46   C62   A    
O5    C8    A    
C41   C49   A    
C28   N3    S    
H8    C80   S    
C88   H63   S    
H17   C34   S    
C21   C29   A    
C20   C52   A    
O7    C6    A    
N8    C88   S    
H3    C75   S    
C2    C15   S    
C86   H55   S    
H4    C76   S    
H21   C38   S    
C17   C25   A    
C16   C32   A    
O20   V2    S    
N5    H49   S    
C87   H60   S    
N7    C87   S    
H27   C67   S    
C81   H34   S    
C44   C52   A    
H26   C66   S    
C82   H39   S    
C53   C77   A    
C29   N6    S    
C19   C51   A    
C85   H52   S    
C87   H59   S    
C37   C45   A    
N6    H53   S    
C48   C56   A    
C49   C73   A    
H14   C22   S    
N7    H57   S    
H13   C21   S    
O18   V4    S    
C32   N7    S    
C33   C41   A    
O19   V1    S    
H15   C23   S    
C60   C67   A    
C18   C50   A    
C5    C12   S    
O3    V4    S    
C17   C49   A    
C87   H58   S    
O11   C3    A    
C83   H42   S    
C69   C77   A    
C24   C56   A    
C11   C35   A    
O10   C2    A    
C22   C54   A    
C30   N5    S    
C21   C53   A    
C3    C14   S    
C38   C46   A    
H20   C35   S    
H10   C18   S    
C15   C31   A    
C51   C75   A    
C31   N8    S    
O12   C4    A    
O6    V2    S    
C84   H48   S    
C40   C48   A    
O4    V3    S    
C86   H56   S    
C46   C54   A    
O9    V1    S    
C41   C57   A    
C14   C30   A    
C82   H38   S    
C82   H40   S    
C13   C29   A    
C36   C44   A    
H30   C70   S    
C57   C58   A    
C18   C26   A    
C88   H64   S    
O5    V1    S    
C50   C74   A    
C54   C78   A    
C65   C73   A    
C59   C68   A    
C67   C75   A    
C12   C28   A    
O3    C2    A    
C47   C63   A    
O12   V1    S    
C71   C79   A    
O8    V1    S    
H29   C69   S    
C63   C64   A    
O15   C7    A    
H7    C79   S    
O16   C8    A    
C43   C51   A    
N1    H33   S    
H19   C36   S    
C42   C50   A    
C23   C55   A    
H18   C33   S    
C45   C61   A    
O15   V4    S    
C72   C80   A    
N2    H37   S    
O1    V3    S    
O16   V3    S    
O14   C6    A    
C24   C32   A    
O17   V3    S    
C61   C62   A    
C63   C72   A    
C81   H35   S    
C55   C79   A    
H22   C37   S    
C1    C16   S    
C10   C34   A    
C34   C42   A    
O6    C7    A    
C83   H43   S    
O10   V2    S    
C52   C76   A    
H2    C74   S    
H25   C65   S    
N8    H61   S    
C16   C40   A    
C25   N2    S    
C15   C39   A    
C70   C78   A    
C84   H47   S    
C22   C30   A    
O11   V2    S    
N4    H45   S    
C85   H51   S    
O2    V4    S    
O7    V2    S    
O13   V3    S    
C35   C43   A    
N3    H41   S    
C66   C74   A    
H1    C73   S    
H31   C71   S    
C10   C26   A    
C8    C9    S    
C48   C64   A    
