data_mof_unit_19405.cif
_audit_creation_date              2012-12-11T14:23:03-0500
_audit_creation_method            fapswitch 2.2
_symmetry_space_group_name_H-M    P1
_symmetry_Int_Tables_number       1
_space_group_crystal_system       triclinic
_cell_length_a                    10.838575
_cell_length_b                    10.958172
_cell_length_c                    18.803143
_cell_angle_alpha                 90.607592
_cell_angle_beta                  90.024218
_cell_angle_gamma                 61.225933
_cell_volume                      1957.37601495

loop_
_atom_site_label
_atom_site_type_symbol
_atom_type_description
_atom_site_fract_x
_atom_site_fract_y
_atom_site_fract_z
_atom_type_partial_charge
C1    C     C_R   0.234626 0.645285 0.609504 0.532458
C2    C     C_R   0.600740 0.099852 0.700941 -0.155408
C3    C     C_R   0.617202 0.073122 0.772519 -0.161263
C4    C     C_R   0.627779 0.588544 0.608602 0.560431
C5    C     C_R   0.925755 0.132311 0.809767 -0.121921
C6    C     C_R   0.027906 0.145354 0.770574 -0.163017
C7    C     C_R   0.027825 0.138922 0.696790 -0.150803
C8    C     C_R   0.920471 0.128860 0.661690 -0.100463
C9    C     C_R   0.688495 0.138609 0.665260 -0.006958
C10   C     C_R   0.178833 0.672145 0.833732 -0.013201
C11   C     C_R   0.209113 0.545648 0.799582 0.017320
C12   C     C_3   0.728318 0.503274 0.804596 -0.236065
C13   C     C_R   0.200949 0.540989 0.724208 0.017644
C14   C     C_R   0.164005 0.778404 0.720144 -0.168387
C15   C     C_R   0.164819 0.783972 0.793164 -0.163507
C16   C     C_R   0.632556 0.220735 0.600141 0.545500
C17   C     C_R   0.248790 0.423521 0.838991 -0.080135
C18   C     C_R   0.269274 0.301635 0.805543 -0.121728
C19   C     C_R   0.247596 0.300186 0.732879 -0.131766
C20   C     C_R   0.210164 0.418944 0.692694 -0.083340
C21   C     C_R   0.185807 0.657760 0.683994 -0.016814
C22   C     C_R   0.654953 0.681762 0.171040 0.004441
C23   C     C_3   0.687914 0.658212 0.817153 0.053720
C24   C     C_R   0.709334 0.548385 0.199243 0.020854
C25   C     C_R   0.746022 0.530020 0.271435 0.029013
C26   C     C_R   0.623220 0.778739 0.291408 -0.184903
C27   C     C_R   0.615461 0.796687 0.217576 -0.154943
C28   C     C_R   0.226376 0.647153 0.399514 0.530103
C29   C     C_R   0.752036 0.431249 0.154335 -0.077082
C30   C     C_R   0.859259 0.303894 0.175261 -0.114394
C31   C     C_R   0.912868 0.288700 0.243678 -0.154092
C32   C     C_R   0.857536 0.399354 0.291309 -0.094607
C33   C     C_R   0.678031 0.645687 0.319090 -0.013437
C34   C     C_3   0.647054 0.616881 0.683959 0.040860
C35   C     C_R   0.642230 0.175007 0.171792 0.004045
C36   C     C_R   0.503032 0.262597 0.194620 0.022780
C37   C     C_R   0.477083 0.284578 0.268319 0.011746
C38   C     C_R   0.729001 0.156153 0.290758 -0.133296
C39   C     C_R   0.749207 0.112689 0.221506 -0.159103
C40   C     C_R   0.647521 0.622052 0.392952 0.530245
C41   C     C_R   0.388338 0.313378 0.147023 -0.082135
C42   C     C_R   0.254318 0.349983 0.171967 -0.103066
C43   C     C_R   0.232147 0.347407 0.244392 -0.138699
C44   C     C_R   0.338449 0.326551 0.292434 -0.110234
C45   C     C_3   0.746287 0.681538 0.688814 -0.226292
C46   C     C_R   0.594412 0.248707 0.314316 0.014636
C47   C     C_R   0.044307 0.747691 0.195345 -0.003855
C48   C     C_R   0.113110 0.819465 0.225626 0.037687
C49   C     C_R   0.197820 0.758885 0.283483 0.025648
C50   C     C_R   0.066600 0.634840 0.307829 -0.155390
C51   C     C_R   0.013445 0.662860 0.238722 -0.158065
C52   C     C_R   0.578856 0.293002 0.387882 0.558838
C53   C     C_R   0.112047 0.940708 0.197098 -0.091591
C54   C     C_R   0.206950 0.983916 0.218349 -0.146949
C55   C     C_R   0.302031 0.911161 0.269964 -0.113420
C56   C     C_3   0.712517 0.477943 0.725221 -0.233406
C57   C     C_R   0.307231 0.790818 0.296282 -0.068455
C58   C     C_R   0.167004 0.673785 0.328417 0.006982
C59   C     C_R   0.726150 0.048930 0.888095 0.556607
C60   C     C_R   0.718760 0.683381 0.890834 0.535086
C61   C     C_R   0.119771 0.706056 0.905961 0.540412
C62   C     C_R   0.673491 0.111259 0.102250 0.529889
C63   C     C_R   0.695886 0.692986 0.098247 0.525559
C64   C     C_3   0.530225 0.748384 0.798046 -0.239229
C65   C     C_R   0.021138 0.752229 0.118327 0.562255
C66   C     C_3   0.505189 0.717328 0.720727 -0.236763
C67   C     C_R   0.721060 0.084988 0.812050 -0.003125
C68   C     C_3   0.779405 0.694285 0.767004 -0.227651
C69   C     C_R   0.819683 0.113485 0.775420 0.023265
C70   C     C_R   0.809865 0.126463 0.700028 0.019063
Cr1   Cr    Cr6+3 0.392940 0.397950 0.502230 0.983635
Cr2   Cr    Cr6+3 0.398400 0.708500 0.501260 0.997450
Cr3   Cr    Cr6+3 0.708640 0.393530 0.496460 0.988760
Cr4   Cr    Cr6+3 0.937880 0.938320 0.007620 0.978112
Cr5   Cr    Cr6+3 0.625560 0.937220 0.994510 0.991540
Cr6   Cr    Cr6+3 0.938080 0.625010 0.001190 0.989432
H1    H     H_    0.497576 0.860811 0.803715 0.120685
H2    H     H_    0.157182 0.866360 0.691775 0.159896
H3    H     H_    0.463550 0.725969 0.834932 0.121107
H4    H     H_    0.268418 0.420230 0.895554 0.127822
H5    H     H_    0.150506 0.878965 0.818189 0.155454
H6    H     H_    0.300669 0.208394 0.836274 0.105061
H7    H     H_    0.262832 0.205408 0.707284 0.090643
H8    H     H_    0.185676 0.413214 0.637605 0.140638
H9    H     H_    0.587008 0.867920 0.326941 0.127550
H10   H     H_    0.713566 0.441069 0.100347 0.121210
H11   H     H_    0.581865 0.899862 0.196964 0.152263
H12   H     H_    0.817977 0.406813 0.702698 0.164748
H13   H     H_    0.900584 0.219250 0.137367 0.115842
H14   H     H_    0.993980 0.191074 0.262192 0.119135
H15   H     H_    0.438076 0.666667 0.720946 0.134508
H16   H     H_    0.913090 0.381869 0.340949 0.142734
H17   H     H_    0.818126 0.111441 0.326481 0.145721
H18   H     H_    0.402893 0.314918 0.090182 0.132449
H19   H     H_    0.848514 0.027360 0.206971 0.121352
H20   H     H_    0.168681 0.376167 0.135119 0.138534
H21   H     H_    0.129891 0.368478 0.263709 0.110721
H22   H     H_    0.309957 0.334524 0.347555 0.165513
H23   H     H_    0.893084 0.622293 0.776722 0.144094
H24   H     H_    0.037744 0.574892 0.342983 0.116514
H25   H     H_    0.038260 0.005417 0.158113 0.141394
H26   H     H_    0.951736 0.616447 0.218713 0.138848
H27   H     H_    0.448787 0.817060 0.691556 0.135246
H28   H     H_    0.204626 0.075478 0.195662 0.116255
H29   H     H_    0.368151 0.951400 0.289890 0.123109
H30   H     H_    0.394225 0.723409 0.327519 0.165108
H31   H     H_    0.762121 0.800818 0.778011 0.119779
H32   H     H_    0.695456 0.786240 0.664068 0.131732
H33   H     H_    0.839041 0.433318 0.820572 0.151970
H34   H     H_    0.846752 0.616252 0.659722 0.139247
H35   H     H_    0.659686 0.475895 0.837227 0.120953
H36   H     H_    0.645873 0.426655 0.719542 0.122056
H37   H     H_    0.110028 0.155743 0.797953 0.111581
H38   H     H_    0.513388 0.097489 0.674254 0.136674
H39   H     H_    0.933165 0.139241 0.866399 0.152781
H40   H     H_    0.544949 0.044667 0.797391 0.131551
H41   H     H_    0.110855 0.140940 0.666073 0.104581
H42   H     H_    0.927499 0.119113 0.604396 0.140421
O1    O     O_R   0.507340 0.255690 0.581430 -0.516291
O2    O     O_R   0.837290 0.593240 0.915240 -0.523799
O3    O     O_R   0.065320 0.635310 0.931580 -0.500934
O4    O     O_R   0.280360 0.527380 0.578910 -0.511924
O5    O     O_R   0.068470 0.828620 0.091850 -0.529337
O6    O     O_R   0.799150 0.057200 0.079350 -0.538460
O7    O     O_R   0.585220 0.080180 0.076770 -0.523704
O8    O     O_R   0.627170 0.809480 0.067050 -0.499997
O9    O     O_R   0.816200 0.596410 0.076500 -0.532085
O10   O     O_R   0.045770 0.638240 0.081070 -0.499164
O11   O     O_3   0.833840 0.833520 0.001110 -0.275245
O12   O     O_R   0.524510 0.695820 0.424050 -0.512103
O13   O     O_R   0.260600 0.739610 0.584580 -0.529057
O14   O     O_R   0.532370 0.695050 0.573830 -0.502710
O15   O     O_R   0.744850 0.503430 0.576380 -0.527818
O16   O     O_R   0.699080 0.276500 0.571950 -0.522618
O17   O     O_R   0.498860 0.256520 0.419860 -0.537517
O18   O     O_R   0.272490 0.528150 0.429140 -0.534572
O19   O     O_R   0.252110 0.740440 0.423010 -0.520652
O20   O     O_R   0.736370 0.504260 0.414810 -0.535020
O21   O     O_R   0.691220 0.277270 0.422180 -0.502324
O22   O     O_3   0.499990 0.499990 0.499980 -0.276760
O23   O     O_R   0.089570 0.825450 0.930590 -0.528507
O24   O     O_R   0.818700 0.054260 0.929860 -0.517761
O25   O     O_R   0.606310 0.077010 0.915520 -0.526280
O26   O     O_R   0.646730 0.806540 0.917560 -0.519896

loop_
_geom_bond_atom_site_label_1
_geom_bond_atom_site_label_2
_ccdc_geom_bond_type
Cr4   O6    S    
C1    C21   S    
C11   C13   A    
C64   H1    S    
C7    H41   S    
Cr1   O4    S    
C19   C20   A    
C16   O16   A    
C34   C66   S    
C62   O6    A    
C8    H42   S    
C7    C8    A    
C15   H5    S    
C32   H16   S    
C53   C54   A    
C51   H26   S    
C34   C56   S    
C5    C6    A    
C12   C23   S    
C26   C27   A    
Cr6   O2    S    
C55   H29   S    
C42   H20   S    
Cr6   O3    S    
C14   C21   A    
C54   H28   S    
C36   C37   A    
C9    C16   S    
C10   C15   A    
Cr1   O17   S    
C30   C31   A    
C56   H12   S    
Cr3   O20   S    
C46   C52   S    
C52   O21   A    
C49   C57   A    
C61   O3    A    
C18   C19   A    
C41   C42   A    
C24   C29   A    
C5    C69   A    
C59   C67   S    
C22   C63   S    
C1    O4    A    
C44   H22   S    
C41   H18   S    
C59   O24   A    
C53   H25   S    
C40   O20   A    
C47   C48   A    
C60   O2    A    
C68   H31   S    
C45   H32   S    
C25   C32   A    
C65   O5    A    
C57   H30   S    
Cr4   O24   S    
C59   O25   A    
C5    H39   S    
C36   C41   A    
C48   C53   A    
C30   H13   S    
C19   H7    S    
C12   H33   S    
Cr2   O14   S    
Cr2   O19   S    
C23   C60   S    
C4    C34   S    
C33   C40   S    
C50   C58   A    
C65   O10   A    
C9    C70   A    
C4    O14   A    
Cr5   O26   S    
C16   O1    A    
Cr1   O18   S    
C45   H34   S    
C47   C51   A    
Cr3   O21   S    
C50   C51   A    
C17   H4    S    
C49   C58   A    
C67   C69   A    
C35   C36   A    
C64   C66   S    
C23   C68   S    
C35   C39   A    
C43   C44   A    
C6    H37   S    
C29   C30   A    
Cr6   O11   S    
C26   C33   A    
C31   C32   A    
C31   H14   S    
C45   C68   S    
C17   C18   A    
C13   C21   A    
C34   C45   S    
C24   C25   A    
C27   H11   S    
C39   H19   S    
C29   H10   S    
C12   C56   S    
C66   H15   S    
Cr5   O25   S    
C61   O23   A    
C23   C64   S    
Cr4   O23   S    
Cr3   O15   S    
C22   C27   A    
C20   H8    S    
Cr6   O10   S    
C64   H3    S    
C22   C24   A    
C10   C61   S    
C42   C43   A    
Cr2   O13   S    
C52   O17   A    
C40   O12   A    
C54   C55   A    
C11   C17   A    
Cr1   O22   S    
C13   C20   A    
C28   O18   A    
C50   H24   S    
C66   H27   S    
C3    C67   A    
C28   O19   A    
C43   H21   S    
C1    O13   A    
C62   O7    A    
Cr2   O12   S    
C6    C7    A    
Cr3   O22   S    
C28   C58   S    
C8    C70   A    
Cr1   O1    S    
C3    H40   S    
Cr5   O8    S    
C37   C44   A    
C55   C57   A    
C2    C3    A    
C68   H23   S    
C60   O26   A    
C2    H38   S    
C38   C39   A    
C26   H9    S    
C48   C49   A    
C38   H17   S    
C18   H6    S    
C47   C65   S    
Cr4   O5    S    
C35   C62   S    
C14   H2    S    
C69   C70   A    
C38   C46   A    
C63   O8    A    
C10   C11   A    
Cr2   O22   S    
Cr3   O16   S    
Cr4   O11   S    
Cr6   O9    S    
C14   C15   A    
Cr5   O7    S    
C37   C46   A    
C2    C9    A    
C56   H36   S    
C12   H35   S    
C63   O9    A    
Cr5   O11   S    
C25   C33   A    
C4    O15   A    
