data_mof_unit_47562.cif
_audit_creation_date              2012-12-10T18:31:58-0500
_audit_creation_method            fapswitch 2.2
_symmetry_space_group_name_H-M    P1
_symmetry_Int_Tables_number       1
_space_group_crystal_system       triclinic
_cell_length_a                    10.707505
_cell_length_b                    14.969142
_cell_length_c                    15.367128
_cell_angle_alpha                 81.638188
_cell_angle_beta                  90.92116
_cell_angle_gamma                 104.175901
_cell_volume                      2362.19541826

loop_
_atom_site_label
_atom_site_type_symbol
_atom_type_description
_atom_site_fract_x
_atom_site_fract_y
_atom_site_fract_z
_atom_type_partial_charge
C1    C     C_R   0.478370 0.441454 0.663225 0.833733
C2    C     C_R   0.384571 0.454629 0.895347 0.073984
C3    C     C_R   0.333583 0.359716 0.929727 0.097222
C4    C     C_R   0.741775 0.500095 0.500996 0.871043
C5    C     C_R   0.396970 0.524203 0.950784 0.070099
C6    C     C_R   0.380108 0.495650 0.042356 0.048671
C7    C     C_R   0.317065 0.402458 0.073869 -0.292233
C8    C     C_R   0.291679 0.334948 0.018301 -0.015928
C9    C     C_R   0.432451 0.620907 0.919009 -0.226659
C10   C     C_R   0.467563 0.686134 0.976596 -0.239689
C11   C     C_R   0.473902 0.656538 0.066522 0.176669
C12   C     C_3   0.120471 0.495824 0.503350 0.098132
C13   C     C_R   0.431271 0.560636 0.099733 0.098386
C14   C     C_R   0.525758 0.720884 0.123516 -0.215592
C15   C     C_R   0.540967 0.689984 0.212354 -0.206975
C16   C     C_R   0.515832 0.558489 0.337427 0.873180
C17   C     C_R   0.451921 0.531067 0.188056 -0.263736
C18   C     C_R   0.693460 0.838990 0.641408 -0.092574
C19   C     C_R   0.657646 0.750081 0.618099 -0.053399
C20   C     C_R   0.514885 0.794782 0.510978 -0.062811
C21   C     C_R   0.543346 0.885791 0.531948 -0.044190
C22   C     C_R   0.644316 0.910889 0.592450 0.083086
C23   C     C_3   0.070911 0.496584 0.407424 -0.509245
C24   C     C_R   0.476824 0.952296 0.492716 0.034577
C25   C     C_R   0.521423 0.046120 0.505710 0.031597
C26   C     C_R   0.635829 0.071865 0.551975 -0.234811
C27   C     C_R   0.696149 0.006676 0.596893 0.178849
C28   C     C_R   0.257950 0.499013 0.500506 0.850844
C29   C     C_R   0.364519 0.926949 0.443453 -0.253483
C30   C     C_R   0.302483 0.992734 0.401404 0.203799
C31   C     C_R   0.351651 0.087680 0.409857 0.145514
C32   C     C_R   0.454096 0.112793 0.468553 -0.034119
C33   C     C_R   0.300971 0.158605 0.363159 -0.322408
C34   C     C_3   0.101723 0.587900 0.534096 -0.407055
C35   C     C_R   0.340723 0.248842 0.382570 0.032126
C36   C     C_R   0.482935 0.204004 0.489891 -0.072802
C37   C     C_3   0.901144 0.414862 0.572529 0.004447
C38   C     C_3   0.044626 0.406363 0.568192 0.223207
C39   C     C_3   0.931353 0.506975 0.405191 -0.148028
C40   C     C_3   0.958779 0.587446 0.538501 -0.520576
C41   C     C_3   0.877516 0.498560 0.502666 0.068640
C42   C     C_3   0.798860 0.321730 0.588396 -0.985012
C43   C     C_R   0.234177 0.237274 0.056862 0.119530
C44   C     C_R   0.306838 0.187920 0.112958 -0.168121
C45   C     C_R   0.438409 0.407927 0.756709 -0.129169
C46   C     C_R   0.256509 0.093668 0.144302 -0.150981
C47   C     C_R   0.132608 0.048679 0.121294 -0.120945
C48   C     C_R   0.059242 0.097802 0.066207 -0.141806
C49   C     C_R   0.109962 0.191836 0.033670 -0.161757
C50   C     C_R   0.419067 0.234637 0.755012 0.166129
C51   C     C_R   0.319118 0.155450 0.747490 -0.190168
C52   C     C_R   0.347034 0.072424 0.732747 -0.153773
C53   C     C_R   0.474808 0.066900 0.728067 -0.087778
C54   C     C_R   0.574820 0.145010 0.736065 -0.160957
C55   C     C_R   0.547194 0.228566 0.749339 -0.156080
C56   C     C_R   0.506006 0.594430 0.244405 -0.054580
C57   C     C_3   0.821482 0.043645 0.641183 -0.907511
C58   C     C_3   0.179714 0.955237 0.354383 -0.983521
C59   C     C_R   0.767861 0.848995 0.722792 0.140545
C60   C     C_R   0.709025 0.863396 0.798880 -0.160759
C61   C     C_R   0.778185 0.870944 0.876544 -0.146647
C62   C     C_R   0.905756 0.863259 0.878928 -0.102841
C63   C     C_R   0.964047 0.847182 0.803869 -0.137185
C64   C     C_R   0.895077 0.839182 0.726160 -0.180701
C65   C     C_3   0.098775 0.411431 0.663450 -1.007266
C66   C     C_R   0.055575 0.311526 0.539035 0.194498
C67   C     C_R   0.335514 0.290822 0.877293 -0.241905
C68   C     C_R   0.989740 0.278024 0.465410 -0.201065
C69   C     C_R   0.991721 0.191866 0.441785 -0.152817
C70   C     C_R   0.062350 0.136458 0.490226 -0.111606
C71   C     C_R   0.133538 0.168382 0.560759 -0.145555
C72   C     C_R   0.130640 0.254401 0.585197 -0.106545
C73   C     C_R   0.851658 0.467096 0.328430 0.100711
C74   C     C_R   0.869377 0.522582 0.244556 -0.180891
C75   C     C_R   0.796290 0.494184 0.172813 -0.110893
C76   C     C_R   0.705020 0.409099 0.182411 -0.124139
C77   C     C_R   0.688036 0.351870 0.263474 -0.143001
C78   C     C_R   0.391707 0.313139 0.792915 -0.010333
C79   C     C_R   0.760986 0.380021 0.335404 -0.070089
C80   C     C_R   0.434707 0.476565 0.809252 -0.255074
H1    H     H_    0.151290 0.649427 0.486465 0.185156
H2    H     H_    0.285903 0.380635 0.141888 0.148655
H3    H     H_    0.432484 0.648055 0.849982 0.144826
H4    H     H_    0.556772 0.794654 0.099054 0.130237
H5    H     H_    0.546299 0.224876 0.542127 0.147766
H6    H     H_    0.299703 0.303060 0.348383 0.131171
H7    H     H_    0.694996 0.694201 0.652972 0.141392
H8    H     H_    0.449881 0.772435 0.459814 0.128574
H9    H     H_    0.680692 0.143578 0.553924 0.152248
H10   H     H_    0.319717 0.855047 0.438625 0.145152
H11   H     H_    0.230440 0.146365 0.312670 0.167199
H12   H     H_    0.943685 0.582799 0.381783 0.144084
H13   H     H_    0.083123 0.436547 0.377316 0.185123
H14   H     H_    0.944145 0.652804 0.499526 0.197553
H15   H     H_    0.930149 0.589931 0.607297 0.179765
H16   H     H_    0.146266 0.599264 0.598600 0.195061
H17   H     H_    0.775847 0.290902 0.528305 0.249780
H18   H     H_    0.832461 0.271714 0.638157 0.241292
H19   H     H_    0.708690 0.331446 0.615484 0.256225
H20   H     H_    0.403258 0.221920 0.130784 0.127324
H21   H     H_    0.313953 0.055621 0.186229 0.146808
H22   H     H_    0.093646 0.975716 0.145834 0.124750
H23   H     H_    0.132381 0.557359 0.364313 0.157325
H24   H     H_    0.963590 0.062793 0.048071 0.125100
H25   H     H_    0.053350 0.228974 0.989835 0.129612
H26   H     H_    0.219643 0.156792 0.757050 0.123951
H27   H     H_    0.269555 0.011583 0.727722 0.127197
H28   H     H_    0.496067 0.001654 0.719560 0.130234
H29   H     H_    0.673798 0.140278 0.734469 0.143081
H30   H     H_    0.625392 0.286654 0.760991 0.117244
H31   H     H_    0.859042 0.119702 0.621641 0.245768
H32   H     H_    0.807942 0.032353 0.713521 0.243657
H33   H     H_    0.896458 0.010233 0.621938 0.252512
H34   H     H_    0.430843 0.457821 0.213457 0.158979
H35   H     H_    0.123287 0.006746 0.332620 0.242459
H36   H     H_    0.202889 0.925121 0.296603 0.240560
H37   H     H_    0.114883 0.898900 0.399628 0.240458
H38   H     H_    0.610136 0.869221 0.797760 0.115717
H39   H     H_    0.732892 0.882706 0.934884 0.119830
H40   H     H_    0.959256 0.869382 0.939036 0.120359
H41   H     H_    0.062610 0.840777 0.805947 0.123788
H42   H     H_    0.940981 0.826510 0.668422 0.122580
H43   H     H_    0.051473 0.347637 0.708842 0.244108
H44   H     H_    0.204344 0.419559 0.664601 0.240698
H45   H     H_    0.581373 0.740436 0.255472 0.156643
H46   H     H_    0.080787 0.470751 0.692624 0.240133
H47   H     H_    0.933172 0.317136 0.426571 0.143029
H48   H     H_    0.937574 0.167937 0.385973 0.139065
H49   H     H_    0.063260 0.069249 0.472545 0.145113
H50   H     H_    0.191122 0.125903 0.596290 0.146127
H51   H     H_    0.189086 0.275244 0.639848 0.142214
H52   H     H_    0.939392 0.589215 0.234573 0.120191
H53   H     H_    0.810203 0.538548 0.109738 0.134931
H54   H     H_    0.647672 0.387426 0.127041 0.130204
H55   H     H_    0.617432 0.285531 0.270921 0.126938
H56   H     H_    0.496221 0.759514 0.950206 0.139943
H57   H     H_    0.742286 0.333047 0.395576 0.132725
H58   H     H_    0.303320 0.217935 0.904677 0.162437
H59   H     H_    0.478271 0.547969 0.783446 0.168553
H60   H     H_    0.887021 0.437792 0.636755 0.168560
N1    N     N_R   0.573860 0.731700 0.552730 -0.105749
N2    N     N_R   0.426060 0.268290 0.447230 -0.099646
O1    O     O_R   0.462770 0.383110 0.605620 -0.608389
O2    O     O_R   0.510160 0.531900 0.639510 -0.615850
O3    O     O_R   0.661510 0.425600 0.483070 -0.617386
O4    O     O_R   0.708900 0.574390 0.516960 -0.628159
O5    O     O_R   0.489840 0.468100 0.360490 -0.615306
O6    O     O_R   0.537230 0.616890 0.394380 -0.618265
O7    O     O_R   0.291100 0.425610 0.483040 -0.618916
O8    O     O_R   0.338490 0.574400 0.516930 -0.625582
Zn1   Zn    Zn3+2 0.468350 0.400660 0.477370 0.936018
Zn2   Zn    Zn3+2 0.531650 0.599340 0.522630 0.923629

loop_
_geom_bond_atom_site_label_1
_geom_bond_atom_site_label_2
_ccdc_geom_bond_type
C66   C68   A    
C28   O8    A    
C74   H52   S    
C61   H39   S    
C11   C13   A    
C73   C74   A    
C8    C43   S    
C14   H4    S    
C43   C44   A    
C30   C58   S    
C7    C8    A    
C39   C41   S    
C57   H31   S    
C53   C54   A    
C26   H9    S    
C12   C23   S    
C59   C64   A    
C37   C38   S    
C12   C28   S    
C16   O5    A    
C34   C40   S    
C32   C36   A    
C34   H16   S    
C19   H7    S    
O7    Zn1   S    
C30   C31   A    
C11   C14   A    
C64   H42   S    
C57   H32   S    
C4    C41   S    
C48   H24   S    
C45   C78   A    
C18   C19   A    
C65   H44   S    
C37   C42   S    
C67   H58   S    
C36   N2    A    
C24   C29   A    
C46   C47   A    
C66   C72   A    
C38   C66   S    
C69   H48   S    
C68   C69   A    
C37   H60   S    
C31   C33   A    
C60   H38   S    
C70   C71   A    
C34   H1    S    
C29   C30   A    
C9    C10   A    
C62   H40   S    
C25   C32   A    
O1    Zn1   S    
C59   C60   A    
C19   N1    A    
C47   H22   S    
C21   C22   A    
C58   H36   S    
C69   C70   A    
C67   C78   A    
C50   C78   S    
C29   H10   S    
C63   H41   S    
C44   C46   A    
C17   H34   S    
C77   C79   A    
C46   H21   S    
C23   H23   S    
C74   C75   A    
C51   C52   A    
C76   C77   A    
C52   H27   S    
C3    C8    A    
C27   C57   S    
C42   H17   S    
C40   H14   S    
C76   H54   S    
C43   C49   A    
C57   H33   S    
C25   C26   A    
C70   H49   S    
C23   H13   S    
C54   H29   S    
C60   C61   A    
N2    Zn1   S    
O5    Zn1   S    
C75   C76   A    
C16   C56   S    
C5    C9    A    
C62   C63   A    
C1    O1    A    
C47   C48   A    
C68   H47   S    
C38   C65   S    
C4    O4    A    
C50   C51   A    
C73   C79   A    
C24   C25   A    
C17   C56   A    
O3    Zn1   S    
C9    H3    S    
O4    Zn2   S    
C39   C73   S    
C40   C41   S    
C79   H57   S    
C22   C27   A    
C55   H30   S    
C26   C27   A    
C58   H35   S    
C65   H43   S    
O8    Zn2   S    
C2    C5    A    
C40   H15   S    
C12   C34   S    
C12   C38   S    
C39   H12   S    
C52   C53   A    
C72   H51   S    
C54   C55   A    
C48   C49   A    
C18   C22   A    
C20   N1    A    
C31   C32   A    
C3    C67   A    
O6    Zn2   S    
C10   H56   S    
C49   H25   S    
C75   H53   S    
C6    C7    A    
C36   H5    S    
C80   H59   S    
C50   C55   A    
C13   C17   A    
C16   O6    A    
C65   H46   S    
C42   H18   S    
C2    C3    A    
C71   C72   A    
O2    Zn2   S    
C1    O2    A    
C42   H19   S    
C15   C56   A    
C71   H50   S    
C44   H20   S    
C53   H28   S    
C1    C45   S    
C5    C6    A    
C51   H26   S    
C23   C39   S    
C4    O3    A    
C20   H8    S    
C33   C35   A    
C45   C80   A    
C58   H37   S    
C37   C41   S    
C61   C62   A    
C2    C80   A    
C10   C11   A    
C35   N2    A    
C63   C64   A    
C18   C59   S    
C28   O7    A    
C7    H2    S    
C20   C21   A    
C15   H45   S    
C21   C24   A    
C14   C15   A    
C77   H55   S    
C35   H6    S    
N1    Zn2   S    
C6    C13   A    
C33   H11   S    
