data_mof_unit_54886.cif
_audit_creation_date              2012-12-10T20:27:51-0500
_audit_creation_method            fapswitch 2.2
_symmetry_space_group_name_H-M    P1
_symmetry_Int_Tables_number       1
_space_group_crystal_system       triclinic
_cell_length_a                    12.851328
_cell_length_b                    10.625541
_cell_length_c                    9.901182
_cell_angle_alpha                 90.795821
_cell_angle_beta                  98.128377
_cell_angle_gamma                 89.772825
_cell_volume                      1338.31463566

loop_
_atom_site_label
_atom_site_type_symbol
_atom_type_description
_atom_site_fract_x
_atom_site_fract_y
_atom_site_fract_z
_atom_type_partial_charge
C1    C     C_R   0.502649 0.260889 0.499268 0.868879
C2    C     C_R   0.027884 0.529960 0.552802 -0.164700
C3    C     C_R   0.971193 0.453052 0.450738 -0.095650
C4    C     C_R   0.864385 0.437535 0.448687 0.586806
C5    C     C_R   0.870572 0.570643 0.651995 0.559818
C6    C     C_R   0.977630 0.586140 0.654837 -0.171654
C7    C     C_R   0.594235 0.062919 0.512878 0.057501
C8    C     C_R   0.500803 0.129671 0.493372 -0.013285
C9    C     C_R   0.405269 0.069298 0.452219 -0.160180
C10   C     C_R   0.400596 0.938331 0.453671 -0.028828
C11   C     C_R   0.494669 0.872089 0.500224 -0.052754
C12   C     C_R   0.298019 0.495512 0.471795 0.978159
C13   C     C_R   0.590415 0.934993 0.522237 -0.066569
C14   C     C_3   0.682140 0.930569 0.634874 -0.408856
C15   C     C_3   0.688278 0.073757 0.620620 0.408255
C16   C     C_R   0.445804 0.410227 0.060121 0.101716
C17   C     C_R   0.547233 0.594120 0.080411 -0.000285
C18   C     C_R   0.546265 0.593718 0.936914 -0.059628
C19   C     C_R   0.445139 0.410729 0.917509 0.070043
C20   C     C_3   0.461993 0.271633 0.910799 -0.437609
C21   C     C_3   0.465075 0.271506 0.065210 1.059002
C22   C     C_R   0.498660 0.739645 0.500583 0.907292
C23   C     C_R   0.701698 0.499149 0.527827 0.971294
C24   C     C_R   0.814023 0.499695 0.546281 -0.306956
C25   C     C_R   0.184869 0.488795 0.452634 -0.239025
C26   C     C_R   0.021318 0.394941 0.350436 -0.089454
C27   C     C_R   0.128050 0.412550 0.349180 -0.185450
C28   C     C_R   0.133893 0.549033 0.551740 0.709189
H1    H     H_    0.750195 0.877889 0.603822 0.157567
H2    H     H_    0.586256 0.666551 0.889777 0.172330
H3    H     H_    0.538414 0.246275 0.877446 0.241860
H4    H     H_    0.977340 0.336097 0.272091 0.243178
H5    H     H_    0.020310 0.643850 0.735085 0.245624
H6    H     H_    0.334421 0.124753 0.425914 0.188149
N1    N     N_R   0.499290 0.499140 0.142710 -0.143517
N2    N     N_R   0.499290 0.499180 0.857070 -0.096749
O1    O     O_R   0.500010 0.316790 0.614690 -0.614484
O2    O     O_R   0.500000 0.316760 0.385350 -0.561283
O3    O     O_R   0.346360 0.499990 0.595720 -0.529886
O4    O     O_R   0.346350 0.499960 0.366370 -0.593951
O5    O     O_R   0.500000 0.683240 0.614650 -0.604392
O6    O     O_R   0.499990 0.683210 0.385310 -0.624565
O7    O     O_R   0.653650 0.500040 0.633630 -0.569205
O8    O     O_R   0.653640 0.500010 0.404280 -0.545525
Zn1   Zn    Zn3+2 0.500010 0.500020 0.653130 1.081029
Zn2   Zn    Zn3+2 0.499990 0.499980 0.346870 1.097831
F1    F     F_    0.808931 0.363237 0.350903 -0.588007
F2    F     F_    0.667487 0.142262 0.734113 -0.620664
C29   C     C_2   0.786418 0.117713 0.568301 0.929851
O9    O     O_2   0.806317 0.082142 0.456656 -0.572524
O10   O     O_R   0.856029 0.197219 0.650134 -0.726673
H7    H     H_    0.921203 0.216512 0.607310 0.343440
C30   C     C_2   0.604861 0.696101 0.159576 0.993981
O11   O     O_2   0.567352 0.802094 0.156750 -0.597759
O12   O     O_R   0.704574 0.673385 0.231229 -0.741730
H8    H     H_    0.736392 0.751128 0.281158 0.349077
C31   C     C_2   0.369967 0.202344 0.832327 1.041876
O13   O     O_2   0.367775 0.087440 0.835072 -0.526052
O14   O     O_R   0.288595 0.268468 0.754917 -0.781273
H9    H     H_    0.232656 0.210778 0.705471 0.340983
F3    F     F_    0.384315 0.206267 0.111350 -0.649668
F4    F     F_    0.563148 0.240584 0.133786 -0.582176
F5    F     F_    0.821756 0.629933 0.747869 -0.606961
C32   C     C_2   0.175667 0.344738 0.241636 0.978623
O15   O     O_2   0.221419 0.402622 0.162013 -0.558042
O16   O     O_R   0.160026 0.215054 0.224616 -0.745971
H10   H     H_    0.190806 0.179342 0.143448 0.404660
F6    F     F_    0.187923 0.625858 0.648258 -0.611174
C33   C     C_2   0.296728 0.877095 0.413446 0.961666
O17   O     O_2   0.281808 0.769141 0.446167 -0.614337
O18   O     O_R   0.214479 0.944485 0.339323 -0.741234
H11   H     H_    0.147535 0.893331 0.318724 0.371766
C34   C     C_2   0.654351 0.892508 0.771515 1.099982
O19   O     O_2   0.719606 0.837981 0.851881 -0.541809
O20   O     O_R   0.556404 0.924511 0.808445 -0.726706
H12   H     H_    0.548703 0.897723 0.904276 0.375772

loop_
_geom_bond_atom_site_label_1
_geom_bond_atom_site_label_2
_ccdc_geom_bond_type
O12   H8    S    
C26   H4    S    
C16   C21   S    
C1    C8    S    
C34   O19   D    
C19   C20   S    
C7    C8    A    
C30   O11   D    
C25   C28   A    
O4    Zn2   S    
C26   C27   A    
C28   F6    S    
C19   N2    A    
C16   N1    A    
C5    C6    A    
C4    C24   A    
C31   O14   S    
C22   O5    A    
C23   O7    A    
C5    F5    S    
O6    Zn2   S    
C33   O18   S    
C8    C9    A    
C29   O10   S    
C23   C24   S    
C18   H2    S    
C9    C10   A    
C21   F3    S    
C1    O1    A    
O3    Zn1   S    
C7    C15   S    
O16   H10   S    
O14   H9    S    
C13   C14   S    
C34   O20   S    
C2    C6    A    
C15   F2    S    
O8    Zn2   S    
C30   O12   S    
O10   H7    S    
C14   C34   S    
C27   C32   S    
C23   O8    A    
C32   O16   S    
C12   O4    A    
O20   H12   S    
C17   C18   A    
N2    Zn1   S    
O7    Zn1   S    
C21   F4    S    
C1    O2    A    
C9    H6    S    
C14   H1    S    
O1    Zn1   S    
C3    C4    A    
C17   C30   S    
C3    C26   A    
C25   C27   A    
C11   C22   S    
C6    H5    S    
C12   C25   S    
C32   O15   D    
C12   O3    A    
C2    C3    A    
O18   H11   S    
C11   C13   A    
C31   O13   D    
C22   O6    A    
C5    C24   A    
C16   C19   A    
C15   C29   S    
C33   O17   D    
O2    Zn2   S    
C10   C11   A    
C10   C33   S    
C7    C13   A    
C20   C21   S    
C29   O9    D    
O5    Zn1   S    
C14   C15   S    
C2    C28   A    
C17   N1    A    
C20   C31   S    
N1    Zn2   S    
C18   N2    A    
C4    F1    S    
C20   H3    S    
