data_mof_unit_14396.cif
_audit_creation_date              2012-12-11T18:13:24-0500
_audit_creation_method            fapswitch 2.2
_symmetry_space_group_name_H-M    P1
_symmetry_Int_Tables_number       1
_space_group_crystal_system       triclinic
_cell_length_a                    8.290663
_cell_length_b                    12.697519
_cell_length_c                    18.703512
_cell_angle_alpha                 99.754849
_cell_angle_beta                  90.685841
_cell_angle_gamma                 99.071212
_cell_volume                      1914.683812

loop_
_atom_site_label
_atom_site_type_symbol
_atom_type_description
_atom_site_fract_x
_atom_site_fract_y
_atom_site_fract_z
_atom_type_partial_charge
Ba1   Ba    Ba6+2 0.852780 0.548340 0.465070 1.609185
Ba2   Ba    Ba6+2 0.337060 0.451750 0.534940 1.620862
C1    C     C_3   0.524588 0.847659 0.211345 -0.382411
C2    C     C_R   0.890013 0.394540 0.095341 0.033851
C3    C     C_R   0.727706 0.350039 0.072970 -0.084095
C4    C     C_3   0.104069 0.759232 0.266449 0.364009
C5    C     C_R   0.667276 0.356181 0.003889 -0.091241
C6    C     C_R   0.768501 0.405678 0.955281 0.031635
C7    C     C_R   0.931297 0.451443 0.977138 0.013808
C8    C     C_R   0.709656 0.408269 0.884985 -0.110438
C9    C     C_R   0.812116 0.453549 0.834466 -0.041173
C10   C     C_R   0.974704 0.503045 0.856982 -0.004571
C11   C     C_R   0.033361 0.501692 0.928597 -0.009014
C12   C     C_3   0.596239 0.804164 0.273993 0.382526
C13   C     C_R   0.758520 0.448702 0.761588 -0.007367
C14   C     C_R   0.867075 0.489619 0.712461 -0.294780
C15   C     C_R   0.024190 0.544634 0.734235 0.046189
C16   C     C_3   0.080149 0.783405 0.190411 -0.376517
C17   C     C_R   0.079144 0.553124 0.808055 -0.047953
C18   C     C_R   0.154558 0.491841 0.069924 -0.008861
C19   C     C_R   0.213837 0.489521 0.141238 -0.004176
C20   C     C_R   0.108381 0.441709 0.190697 -0.048111
C21   C     C_R   0.950433 0.388971 0.164970 -0.040795
C22   C     C_R   0.236038 0.607401 0.834404 -0.042063
C23   C     C_3   0.464637 0.270007 0.314224 0.311564
C24   C     C_R   0.297104 0.600517 0.903684 0.035955
C25   C     C_R   0.195673 0.547722 0.951113 0.005951
C26   C     C_R   0.256870 0.541535 0.021269 0.014914
C27   C     C_R   0.460000 0.643871 0.925782 -0.081751
C28   C     C_3   0.234027 0.787328 0.619317 0.278137
C29   C     C_R   0.521783 0.634932 0.994068 -0.092593
C30   C     C_R   0.420849 0.584868 0.042508 0.030854
C31   C     C_R   0.378201 0.535587 0.162980 -0.041669
C32   C     C_R   0.481297 0.578951 0.111961 -0.115375
C33   C     C_R   0.433219 0.537611 0.235377 0.001615
C34   C     C_3   0.440903 0.229588 0.232899 -0.403559
C35   C     C_R   0.326986 0.493583 0.283605 -0.291193
C36   C     C_R   0.165362 0.448596 0.263956 0.049085
C37   C     C_R   0.764849 0.182083 0.528312 -0.276719
C38   C     C_R   0.436322 0.803909 0.463405 -0.214285
C39   C     C_R   0.400567 0.984614 0.449840 -0.110369
C40   C     C_3   0.257679 0.910031 0.636594 -0.352139
C41   C     C_R   0.340595 0.875032 0.441038 0.006941
C42   C     C_R   0.579865 0.845968 0.507089 0.073405
C43   C     C_R   0.641263 0.959497 0.517413 -0.072952
C44   C     C_R   0.552097 0.028312 0.485759 -0.063656
C45   C     C_3   0.060999 0.239187 0.734507 0.363987
C46   C     C_R   0.616028 0.139487 0.491104 0.049275
C47   C     C_R   0.855360 0.115985 0.558418 -0.010488
C48   C     C_R   0.791805 0.006236 0.555446 -0.093312
C49   C     C_3   0.974551 0.205507 0.377899 0.267748
C50   C     C_3   0.049411 0.103165 0.363056 -0.345232
C51   C     C_3   0.731571 0.709555 0.682676 0.321457
C52   C     C_3   0.752831 0.748517 0.764256 -0.407557
C53   C     C_3   0.700152 0.896528 0.324625 -0.301088
C54   C     C_3   0.375226 0.684545 0.441094 -0.230011
C55   C     C_3   0.078212 0.214934 0.810869 -0.369048
C56   C     C_3   0.559494 0.181615 0.703615 0.346205
C57   C     C_3   0.610447 0.104264 0.750131 -0.416007
C58   C     C_R   0.991888 0.446460 0.047622 0.005749
H1    H     H_    0.353157 0.939858 0.680385 0.111541
H2    H     H_    0.634654 0.637029 0.672244 0.064783
H3    H     H_    0.452728 0.912255 0.232573 0.096965
H4    H     H_    0.854704 0.817898 0.776288 0.126858
H5    H     H_    0.780728 0.682592 0.791968 0.057533
H6    H     H_    0.638528 0.774728 0.785739 0.118310
H7    H     H_    0.493557 0.770413 0.305177 -0.026770
H8    H     H_    0.442056 0.781697 0.176061 0.099556
H9    H     H_    0.347878 0.292692 0.335197 0.008238
H10   H     H_    0.562168 0.342223 0.323535 0.064703
H11   H     H_    0.340759 0.158985 0.221971 0.123570
H12   H     H_    0.296257 0.944847 0.588013 0.081657
H13   H     H_    0.408749 0.294575 0.205222 0.060436
H14   H     H_    0.555481 0.204870 0.210624 0.119862
H15   H     H_    0.623536 0.881339 0.178073 0.120772
H16   H     H_    0.172047 0.852956 0.181396 0.107478
H17   H     H_    0.145179 0.315209 0.731008 0.095503
H18   H     H_    0.933141 0.250780 0.725005 -0.070499
H19   H     H_    0.207004 0.208013 0.823319 0.149755
H20   H     H_    0.041808 0.281044 0.850948 0.072083
H21   H     H_    0.998555 0.137701 0.815663 0.111036
H22   H     H_    0.670264 0.216018 0.677214 -0.053700
H23   H     H_    0.141320 0.936929 0.654563 0.146984
H24   H     H_    0.470881 0.135596 0.660086 0.074616
H25   H     H_    0.701639 0.149292 0.792877 0.113709
H26   H     H_    0.665522 0.039909 0.715870 0.094711
H27   H     H_    0.502767 0.066458 0.776778 0.129759
H28   H     H_    0.646834 0.311033 0.109140 0.062283
H29   H     H_    0.541383 0.321262 0.988240 0.072005
H30   H     H_    0.825744 0.482459 0.656497 0.068008
H31   H     H_    0.584020 0.372919 0.870053 0.109241
H32   H     H_    0.871161 0.344746 0.198954 0.103326
H33   H     H_    0.315019 0.652574 0.800850 0.099409
H34   H     H_    0.842254 0.183051 0.385300 0.002481
H35   H     H_    0.540610 0.683478 0.889813 0.062208
H36   H     H_    0.226127 0.735299 0.271067 -0.069001
H37   H     H_    0.372345 0.492492 0.337754 0.041124
H38   H     H_    0.325576 0.034504 0.428555 0.105481
H39   H     H_    0.864256 0.958825 0.581213 0.109616
H40   H     H_    0.814789 0.266711 0.530578 0.060829
H41   H     H_    0.093803 0.711410 0.149451 0.076204
H42   H     H_    0.956580 0.804004 0.183090 0.151392
H43   H     H_    0.350400 0.761688 0.601471 0.003113
H44   H     H_    0.138154 0.759756 0.575348 0.073580
H45   H     H_    0.032602 0.255635 0.428740 0.072973
H46   H     H_    0.742587 0.866964 0.372847 0.140721
H47   H     H_    0.806984 0.926558 0.295092 0.131961
H48   H     H_    0.630993 0.963738 0.342217 0.062099
H49   H     H_    0.009265 0.690428 0.273755 0.116903
H50   H     H_    0.648396 0.668334 0.009308 0.071571
H51   H     H_    0.608637 0.610411 0.125967 0.114645
H52   H     H_    0.454543 0.626082 0.436955 0.162573
H53   H     H_    0.281937 0.656718 0.478677 0.122290
H54   H     H_    0.338796 0.669995 0.382887 0.038934
H55   H     H_    0.005737 0.056397 0.309206 0.128364
H56   H     H_    0.018724 0.054659 0.406333 0.114191
H57   H     H_    0.183074 0.123528 0.359812 0.129166
H58   H     H_    0.848709 0.688464 0.661676 0.013389
O1    O     O_2   0.873090 0.425890 0.325140 -0.458290
O2    O     O_2   0.191912 0.120943 0.551276 -0.481894
O3    O     O_3   0.101336 0.152543 0.684427 -0.599014
O4    O     O_3   0.122420 0.434370 0.414380 -0.504774
O5    O     O_3   0.578370 0.633800 0.536380 -0.509356
O6    O     O_2   0.341510 0.231850 0.465510 -0.473884
O7    O     O_3   0.509476 0.187144 0.347304 -0.648363
O8    O     O_2   0.421249 0.455783 0.757404 -0.495036
O9    O     O_3   0.483076 0.259387 0.747499 -0.596070
O10   O     O_3   0.659500 0.627100 0.368810 -0.488823
O11   O     O_2   0.769320 0.538653 0.243080 -0.495887
O12   O     O_3   0.687423 0.793243 0.650597 -0.638712
O13   O     O_3   0.993362 0.253681 0.315953 -0.635365
O14   O     O_3   0.698085 0.729367 0.245676 -0.602438
O15   O     O_2   0.848200 0.768190 0.534530 -0.470007
O16   O     O_3   0.081160 0.685950 0.404810 -0.496246
O17   O     O_2   0.007627 0.880376 0.453767 -0.490772
O18   O     O_3   0.089804 0.851439 0.317888 -0.614798
O19   O     O_2   0.316610 0.574140 0.674900 -0.465592
O20   O     O_3   0.067290 0.565720 0.585630 -0.505115
O21   O     O_3   0.530210 0.372990 0.631200 -0.465145
O22   O     O_3   0.188403 0.746950 0.682391 -0.636554
O23   O     O_3   0.611340 0.366290 0.463630 -0.476340
O24   O     O_3   0.108550 0.314140 0.595200 -0.483318
P1    P     P_3+3 0.041040 0.394770 0.336330 0.971711
P2    P     P_3+3 0.672880 0.754030 0.556100 0.960367
P3    P     P_3+3 0.129239 0.824845 0.404750 0.933295
P4    P     P_3+3 0.148670 0.605320 0.663680 0.965535
P5    P     P_3+3 0.062964 0.175018 0.596467 0.951892
P6    P     P_3+3 0.637643 0.605030 0.273650 0.932229
P7    P     P_3+3 0.522420 0.229639 0.441509 0.934374
P8    P     P_3+3 0.549459 0.387174 0.725346 0.949518

loop_
_geom_bond_atom_site_label_1
_geom_bond_atom_site_label_2
_ccdc_geom_bond_type
C6    C7    A    
O6    P7    D    
C14   H30   S    
O1    P1    D    
C36   P1    S    
C55   H19   S    
C1    H8    S    
Ba1   O10   S    
C35   H37   S    
O23   P7    S    
C5    C6    A    
C52   H5    S    
C12   O14   S    
C51   C52   S    
C42   C43   A    
C48   H39   S    
Ba1   P1    S    
Ba2   O21   S    
C33   C35   A    
C22   C24   A    
C56   H22   S    
O9    P8    S    
Ba1   O1    S    
C45   O3    S    
C19   C31   A    
C12   H7    S    
C13   C14   A    
C20   C36   A    
C47   P5    S    
Ba1   Ba2   S    
C16   H42   S    
C54   H53   S    
C7    C11   A    
Ba1   O4    S    
O11   P6    D    
C4    O18   S    
C31   C33   A    
C3    H28   S    
C9    C13   A    
C38   C41   A    
C14   C15   A    
C38   C54   S    
O5    P2    S    
C39   C44   A    
O3    P5    S    
C18   C58   A    
O12   P2    S    
O18   P3    S    
C21   H32   S    
C34   H11   S    
C49   H45   S    
C50   H57   S    
C50   H56   S    
C12   C53   S    
C56   O9    S    
C46   P7    S    
C32   H51   S    
C39   C41   A    
C55   H20   S    
O4    P1    S    
Ba1   O15   S    
Ba2   O4    S    
C4    C16   S    
C44   C46   A    
C28   O22   S    
C53   H46   S    
C49   C50   S    
Ba2   O20   S    
O19   P4    D    
C26   C30   A    
C34   H13   S    
O22   P4    S    
C3    C5    A    
C2    C21   A    
C49   O13   S    
C51   H58   S    
O10   P6    S    
C18   C26   A    
O17   P3    D    
C56   C57   S    
C43   C44   A    
C53   H47   S    
C16   H41   S    
O14   P6    S    
C28   H43   S    
Ba1   O5    S    
C35   C36   A    
C41   P3    S    
C56   H24   S    
C45   C55   S    
C51   H2    S    
C29   C30   A    
C42   P2    S    
C2    C58   A    
C40   H12   S    
C31   C32   A    
C24   C25   A    
C10   C11   A    
C40   H1    S    
C1    C12   S    
C34   H14   S    
O2    P5    D    
C37   C47   A    
C8    H31   S    
Ba2   O6    S    
Ba2   O24   S    
C4    H49   S    
C55   H21   S    
C23   H9    S    
C45   H17   S    
Ba1   O16   S    
O13   P1    S    
C1    H15   S    
C27   H35   S    
C50   H55   S    
O16   P3    S    
O15   P2    D    
C16   H16   S    
C23   C34   S    
C20   C21   A    
Ba2   O19   S    
O24   P5    S    
C28   C40   S    
C40   H23   S    
C51   O12   S    
C2    C3    A    
C9    C10   A    
C52   H6    S    
C1    H3    S    
Ba2   P4    S    
O21   P8    S    
C4    H36   S    
C53   H48   S    
C7    C58   A    
C17   C22   A    
C57   H26   S    
C27   C29   A    
Ba1   P2    S    
C22   H33   S    
O8    P8    D    
C37   H40   S    
C52   H4    S    
C43   C48   A    
O20   P4    S    
C10   C17   A    
C23   O7    S    
C15   C17   A    
C29   H50   S    
C15   P4    S    
C33   P6    S    
O7    P7    S    
C57   H27   S    
Ba1   O23   S    
C8    C9    A    
C49   H34   S    
C38   C42   A    
C18   C19   A    
C24   C27   A    
C6    C8    A    
C47   C48   A    
C28   H44   S    
C25   C26   A    
Ba2   O23   S    
C54   H54   S    
C39   H38   S    
C11   C25   A    
C23   H10   S    
C45   H18   S    
C19   C20   A    
C57   H25   S    
C54   H52   S    
C13   P8    S    
Ba2   O5    S    
Ba1   O20   S    
C30   C32   A    
C37   C46   A    
C5    H29   S    
