data_mof_unit_23606.cif
_audit_creation_date              2012-12-10T19:29:34-0500
_audit_creation_method            fapswitch 2.2
_symmetry_space_group_name_H-M    P1
_symmetry_Int_Tables_number       1
_space_group_crystal_system       triclinic
_cell_length_a                    22.112647
_cell_length_b                    22.377596
_cell_length_c                    14.940344
_cell_angle_alpha                 90.05487
_cell_angle_beta                  89.49161
_cell_angle_gamma                 90.019945
_cell_volume                      7392.60392226

loop_
_atom_site_label
_atom_site_type_symbol
_atom_type_description
_atom_site_fract_x
_atom_site_fract_y
_atom_site_fract_z
_atom_type_partial_charge
C1    C     C_R   0.418457 0.919069 0.500174 0.907758
C2    C     C_1   0.662135 0.835754 0.498864 -0.094631
C3    C     C_R   0.884654 0.589375 0.122553 -0.153173
C4    C     C_R   0.657192 0.703318 0.611903 0.101367
C5    C     C_R   0.667121 0.645969 0.647082 -0.165365
C6    C     C_R   0.624408 0.619585 0.704158 -0.139601
C7    C     C_R   0.571493 0.650279 0.726928 -0.133600
C8    C     C_R   0.561188 0.707328 0.692477 -0.128739
C9    C     C_R   0.603704 0.733795 0.635115 -0.149221
C10   C     C_R   0.342787 0.296660 0.388037 0.101366
C11   C     C_R   0.332838 0.353991 0.352804 -0.165359
C12   C     C_R   0.375542 0.380366 0.295705 -0.139581
C13   C     C_1   0.665025 0.161423 0.500462 -0.074275
C14   C     C_R   0.428469 0.349682 0.272965 -0.133599
C15   C     C_R   0.438794 0.292652 0.307470 -0.128776
C16   C     C_R   0.396287 0.266194 0.364856 -0.149220
C17   C     C_R   0.367620 0.701037 0.498168 0.119810
C18   C     C_R   0.388093 0.663746 0.567094 -0.164746
C19   C     C_R   0.447213 0.641561 0.565060 -0.135775
C20   C     C_R   0.486354 0.656704 0.494696 -0.095775
C21   C     C_R   0.466259 0.693686 0.425776 -0.148651
C22   C     C_R   0.407047 0.715600 0.427215 -0.158679
C23   C     C_R   0.632378 0.298959 0.501801 0.119811
C24   C     C_1   0.334976 0.838576 0.499537 -0.074277
C25   C     C_R   0.611904 0.336234 0.432855 -0.164739
C26   C     C_R   0.552781 0.358412 0.434872 -0.135791
C27   C     C_R   0.513639 0.343280 0.505241 -0.095802
C28   C     C_R   0.533735 0.306315 0.574180 -0.148649
C29   C     C_R   0.592950 0.284407 0.572757 -0.158674
C30   C     C_R   0.158102 0.205339 0.616835 0.093362
C31   C     C_R   0.168340 0.148750 0.654429 -0.169452
C32   C     C_R   0.125806 0.123263 0.712722 -0.142224
C33   C     C_R   0.072690 0.154044 0.734128 -0.148602
C34   C     C_R   0.061967 0.210247 0.697021 -0.127439
C35   C     C_1   0.837016 0.663245 0.498653 -0.097734
C36   C     C_R   0.104366 0.235874 0.638629 -0.152463
C37   C     C_R   0.841921 0.794687 0.383226 0.093377
C38   C     C_R   0.831735 0.851327 0.345770 -0.169436
C39   C     C_R   0.874281 0.876827 0.287508 -0.142234
C40   C     C_R   0.927354 0.846008 0.265991 -0.148569
C41   C     C_R   0.938023 0.789752 0.302956 -0.127422
C42   C     C_R   0.895613 0.764111 0.361316 -0.152499
C43   C     C_R   0.868334 0.200049 0.504720 0.119647
C44   C     C_R   0.888244 0.163108 0.574481 -0.164418
C45   C     C_R   0.947407 0.141025 0.573939 -0.136414
C46   C     C_1   0.162985 0.336756 0.501343 -0.097736
C47   C     C_R   0.987161 0.155871 0.504211 -0.093376
C48   C     C_R   0.967662 0.192500 0.434509 -0.148739
C49   C     C_R   0.908408 0.214333 0.434476 -0.158345
C50   C     C_R   0.131665 0.799953 0.495298 0.119642
C51   C     C_R   0.111754 0.836904 0.425550 -0.164417
C52   C     C_R   0.052591 0.858985 0.426098 -0.136362
C53   C     C_R   0.012836 0.844126 0.495820 -0.093317
C54   C     C_R   0.032337 0.807488 0.565510 -0.148727
C55   C     C_R   0.091592 0.785657 0.565537 -0.158348
C56   C     C_1   0.164469 0.662059 0.497458 -0.073413
C57   C     C_1   0.835530 0.337941 0.502538 -0.073414
C58   C     C_1   0.500227 0.000614 0.189776 0.045389
C59   C     C_1   0.499773 0.999386 0.810223 0.045385
C60   C     C_1   0.000272 0.499594 0.189776 0.044240
C61   C     C_R   0.581543 0.080931 0.499826 0.907756
C62   C     C_1   0.999728 0.500405 0.810224 0.044248
C63   C     C_3   0.541317 0.960255 0.969607 -0.219452
C64   C     C_3   0.458683 0.039745 0.030393 -0.219454
C65   C     C_3   0.555389 0.015757 0.028885 -0.204005
C66   C     C_3   0.444611 0.984243 0.971115 -0.204008
C67   C     C_3   0.942462 0.498995 0.970916 -0.203902
C68   C     C_3   0.057538 0.501003 0.029083 -0.203905
C69   C     C_3   0.972196 0.450092 0.030177 -0.220020
C70   C     C_3   0.027805 0.549906 0.969823 -0.220021
C71   C     C_3   0.704535 0.730215 0.550747 0.068471
C72   C     C_R   0.581361 0.918894 0.499683 0.909287
C73   C     C_3   0.295455 0.269774 0.449223 0.068472
C74   C     C_3   0.304399 0.725990 0.499648 0.071032
C75   C     C_3   0.695600 0.274010 0.500336 0.071032
C76   C     C_3   0.205524 0.231566 0.555105 0.068902
C77   C     C_3   0.794488 0.768447 0.444925 0.068896
C78   C     C_3   0.805132 0.225114 0.504900 0.072115
C79   C     C_3   0.194867 0.774887 0.495108 0.072118
C80   C     C_3   0.228202 0.198953 0.470168 -0.218146
C81   C     C_3   0.771795 0.801040 0.529871 -0.218191
C82   C     C_3   0.755743 0.216207 0.577488 -0.234826
C83   C     C_R   0.418639 0.081106 0.500317 0.909287
C84   C     C_3   0.244252 0.783799 0.422515 -0.234825
C85   C     C_3   0.727236 0.697668 0.465761 -0.222676
C86   C     C_3   0.272770 0.302342 0.534200 -0.222628
C87   C     C_3   0.255114 0.717090 0.572318 -0.232033
C88   C     C_3   0.744890 0.282905 0.427672 -0.232032
C89   C     C_1   0.374724 0.125933 0.501111 -0.197065
C90   C     C_1   0.625278 0.874068 0.498891 -0.197063
C91   C     C_1   0.626881 0.124373 0.499686 -0.184119
C92   C     C_1   0.373119 0.875627 0.500314 -0.184120
C93   C     C_1   0.874231 0.625339 0.500303 -0.197518
C94   C     C_R   0.918481 0.419028 0.500290 0.906872
C95   C     C_1   0.125770 0.374662 0.499696 -0.197522
C96   C     C_1   0.126582 0.624726 0.498695 -0.185893
C97   C     C_1   0.873417 0.375274 0.501304 -0.185898
C98   C     C_3   0.271185 0.242084 0.585663 -0.214846
C99   C     C_3   0.728833 0.757939 0.414333 -0.214798
C100  C     C_3   0.759067 0.214971 0.429470 -0.216409
C101  C     C_3   0.240937 0.785024 0.570534 -0.216405
C102  C     C_3   0.770125 0.740806 0.581334 -0.209280
C103  C     C_3   0.229860 0.259173 0.418669 -0.209334
C104  C     C_3   0.258280 0.715813 0.424318 -0.219165
C105  C     C_R   0.081519 0.580972 0.499710 0.906878
C106  C     C_3   0.741714 0.284193 0.575671 -0.219171
C107  C     C_3   0.293425 0.210457 0.500251 0.156203
C108  C     C_3   0.706578 0.789546 0.499753 0.156202
C109  C     C_3   0.709971 0.207216 0.501937 0.159940
C110  C     C_3   0.290029 0.792783 0.498061 0.159935
C111  C     C_3   0.792387 0.709168 0.496014 0.154337
C112  C     C_3   0.207613 0.290832 0.503981 0.154339
C113  C     C_3   0.209238 0.708071 0.496899 0.160811
C114  C     C_3   0.790761 0.291930 0.503096 0.160813
C115  C     C_3   0.486271 0.946024 0.030973 0.083933
C116  C     C_R   0.081427 0.418998 0.499777 0.909675
C117  C     C_3   0.513729 0.053976 0.969027 0.083932
C118  C     C_3   0.970859 0.547719 0.031022 0.084844
C119  C     C_3   0.029141 0.452279 0.968978 0.084848
C120  C     C_3   0.500231 0.000884 0.089455 0.071264
C121  C     C_3   0.499769 0.999116 0.910545 0.071264
C122  C     C_3   0.000292 0.499391 0.089475 0.071270
C123  C     C_3   0.999708 0.500607 0.910525 0.071269
C124  C     C_R   0.531354 0.113714 0.930579 0.104435
C125  C     C_R   0.496116 0.164871 0.946750 -0.150168
C126  C     C_R   0.512084 0.219486 0.907621 -0.135882
C127  C     C_R   0.918574 0.581002 0.500223 0.909680
C128  C     C_R   0.563154 0.223396 0.852125 -0.121676
C129  C     C_R   0.598580 0.172759 0.836065 -0.128007
C130  C     C_R   0.582885 0.118139 0.875303 -0.149926
C131  C     C_R   0.468646 0.886285 0.069422 0.104434
C132  C     C_R   0.503884 0.835129 0.053253 -0.150166
C133  C     C_R   0.487917 0.780515 0.092383 -0.135878
C134  C     C_R   0.436848 0.776605 0.147881 -0.121679
C135  C     C_R   0.401422 0.827241 0.163940 -0.128008
C136  C     C_R   0.417116 0.881861 0.124700 -0.149925
C137  C     C_R   0.063966 0.400121 0.931117 0.107784
C138  C     C_1   0.337867 0.164248 0.501140 -0.094633
C139  C     C_R   0.045329 0.341030 0.947045 -0.156719
C140  C     C_R   0.077730 0.293270 0.909775 -0.140367
C141  C     C_R   0.128824 0.304129 0.856506 -0.102453
C142  C     C_R   0.147535 0.362772 0.840178 -0.132773
C143  C     C_R   0.115346 0.410624 0.877444 -0.153183
C144  C     C_R   0.936034 0.599877 0.068880 0.107786
C145  C     C_R   0.954668 0.658968 0.052946 -0.156705
C146  C     C_R   0.922264 0.706728 0.090209 -0.140395
C147  C     C_R   0.871171 0.695870 0.143479 -0.102517
C148  C     C_R   0.852462 0.637227 0.159813 -0.132783
H1    H     H_    0.456141 0.162705 0.988846 0.118226
H2    H     H_    0.389498 0.920875 0.138116 0.123221
H3    H     H_    0.005780 0.331662 0.987756 0.116542
H4    H     H_    0.063145 0.247805 0.922015 0.127166
H5    H     H_    0.153839 0.267123 0.827749 0.142502
H6    H     H_    0.186960 0.371152 0.798595 0.128214
H7    H     H_    0.130247 0.455890 0.864136 0.123487
H8    H     H_    0.994217 0.668336 0.012233 0.116541
H9    H     H_    0.936847 0.752194 0.077964 0.127169
H10   H     H_    0.846153 0.732877 0.172230 0.142472
H11   H     H_    0.813037 0.628847 0.201397 0.128209
H12   H     H_    0.484676 0.258747 0.920003 0.123952
H13   H     H_    0.869755 0.544108 0.135865 0.123486
H14   H     H_    0.210613 0.155989 0.443759 0.138559
H15   H     H_    0.789381 0.843996 0.556314 0.138548
H16   H     H_    0.758002 0.188099 0.638522 0.129106
H17   H     H_    0.241990 0.811911 0.361486 0.129107
H18   H     H_    0.709735 0.654698 0.439241 0.136725
H19   H     H_    0.290274 0.345320 0.560687 0.136726
H20   H     H_    0.257679 0.688962 0.633303 0.132151
H21   H     H_    0.742329 0.311028 0.366682 0.132150
H22   H     H_    0.708021 0.621657 0.630209 0.132713
H23   H     H_    0.575238 0.265621 0.821518 0.117305
H24   H     H_    0.632385 0.575353 0.730803 0.127877
H25   H     H_    0.538420 0.629831 0.771090 0.118739
H26   H     H_    0.520068 0.731011 0.709967 0.137672
H27   H     H_    0.594295 0.777833 0.609867 0.141920
H28   H     H_    0.291929 0.378296 0.369655 0.132714
H29   H     H_    0.367550 0.424584 0.269018 0.127872
H30   H     H_    0.461536 0.370124 0.228785 0.118743
H31   H     H_    0.479924 0.268976 0.290005 0.137682
H32   H     H_    0.405714 0.222171 0.390150 0.141925
H33   H     H_    0.358645 0.651767 0.622409 0.117430
H34   H     H_    0.638071 0.175782 0.792956 0.122975
H35   H     H_    0.462749 0.612761 0.618257 0.130359
H36   H     H_    0.532226 0.639813 0.493643 0.135401
H37   H     H_    0.496545 0.705388 0.371235 0.131482
H38   H     H_    0.392023 0.744235 0.373383 0.127527
H39   H     H_    0.641352 0.348202 0.377536 0.117430
H40   H     H_    0.537243 0.387198 0.381658 0.130365
H41   H     H_    0.467765 0.360167 0.506281 0.135402
H42   H     H_    0.503447 0.294622 0.628724 0.131478
H43   H     H_    0.607973 0.255785 0.626603 0.127522
H44   H     H_    0.209419 0.124405 0.638692 0.133988
H45   H     H_    0.610503 0.079125 0.861886 0.123222
H46   H     H_    0.134093 0.079667 0.741409 0.129078
H47   H     H_    0.039801 0.134335 0.779335 0.119186
H48   H     H_    0.020763 0.234064 0.713615 0.144163
H49   H     H_    0.094692 0.279382 0.611670 0.146913
H50   H     H_    0.790689 0.875701 0.361592 0.133978
H51   H     H_    0.866035 0.920464 0.258933 0.129081
H52   H     H_    0.960250 0.865727 0.220807 0.119177
H53   H     H_    0.979192 0.765903 0.286271 0.144150
H54   H     H_    0.905237 0.720557 0.388146 0.146932
H55   H     H_    0.858365 0.151357 0.629387 0.117002
H56   H     H_    0.543859 0.837294 0.011156 0.118225
H57   H     H_    0.962512 0.112569 0.627830 0.130539
H58   H     H_    0.033064 0.139063 0.504287 0.137147
H59   H     H_    0.998469 0.204014 0.380527 0.129495
H60   H     H_    0.893862 0.242736 0.380103 0.128893
H61   H     H_    0.141634 0.848664 0.370649 0.117000
H62   H     H_    0.037486 0.887449 0.372218 0.130525
H63   H     H_    0.966933 0.860932 0.495748 0.137155
H64   H     H_    0.001529 0.795965 0.619487 0.129500
H65   H     H_    0.106138 0.757247 0.619902 0.128897
H66   H     H_    0.711137 0.765527 0.345956 0.139645
H67   H     H_    0.515326 0.741254 0.080003 0.123954
H68   H     H_    0.288895 0.234516 0.654036 0.139632
H69   H     H_    0.234571 0.814548 0.629630 0.139961
H70   H     H_    0.765437 0.185442 0.370379 0.139958
H71   H     H_    0.212163 0.266736 0.350285 0.142534
H72   H     H_    0.787808 0.733225 0.649722 0.142537
H73   H     H_    0.735375 0.313721 0.634768 0.138800
H74   H     H_    0.264615 0.686288 0.365215 0.138802
H75   H     H_    0.600842 0.029273 0.052522 0.135796
H76   H     H_    0.399157 0.970726 0.947478 0.135794
H77   H     H_    0.575595 0.928220 0.943860 0.129722
H78   H     H_    0.424764 0.734381 0.178491 0.117309
H79   H     H_    0.424405 0.071779 0.056140 0.129723
H80   H     H_    0.948793 0.409602 0.055704 0.127609
H81   H     H_    0.051208 0.590396 0.944296 0.127609
H82   H     H_    0.895046 0.498695 0.947123 0.135833
H83   H     H_    0.104954 0.501303 0.052876 0.135830
H84   H     H_    0.361931 0.824219 0.207051 0.122974
N1    N     N_1   0.500020 0.000000 0.268010 -0.089580
N2    N     N_1   0.499980 0.000000 0.731990 -0.089582
N3    N     N_1   0.000020 0.500000 0.268010 -0.089960
N4    N     N_1   0.999980 0.500000 0.731990 -0.089958
O1    O     O_R   0.438390 0.938390 0.574460 -0.612389
O2    O     O_R   0.561600 0.061610 0.574480 -0.611463
O3    O     O_R   0.561600 0.938390 0.574480 -0.615688
O4    O     O_R   0.438400 0.061610 0.425520 -0.615684
O5    O     O_R   0.938400 0.438390 0.425520 -0.615507
O6    O     O_R   0.061600 0.561610 0.574480 -0.615510
O7    O     O_R   0.061600 0.438390 0.574480 -0.610999
O8    O     O_R   0.938400 0.561610 0.425520 -0.611012
O9    O     O_R   0.561610 0.061610 0.425540 -0.612389
O10   O     O_R   0.561610 0.938390 0.425540 -0.608146
O11   O     O_R   0.438390 0.061610 0.574460 -0.608149
O12   O     O_R   0.938390 0.438390 0.574460 -0.609793
O13   O     O_R   0.061610 0.561610 0.425540 -0.609793
O14   O     O_R   0.061610 0.438390 0.425540 -0.611896
O15   O     O_R   0.938390 0.561610 0.574460 -0.611892
O16   O     O_R   0.438400 0.938390 0.425520 -0.611462
Zn1   Zn    Zn3+2 0.500000 0.000000 0.599450 0.974333
Zn2   Zn    Zn3+2 0.500000 0.000000 0.400550 0.974337
Zn3   Zn    Zn3+2 0.000000 0.500000 0.599450 0.972992
Zn4   Zn    Zn3+2 0.000000 0.500000 0.400550 0.972984

loop_
_geom_bond_atom_site_label_1
_geom_bond_atom_site_label_2
_ccdc_geom_bond_type
C59   C121  S    
C129  H34   S    
C63   C65   S    
C68   C122  S    
C46   C112  S    
C41   C42   A    
C147  C148  A    
C74   C104  S    
C96   C105  S    
C130  H45   S    
C128  C129  A    
C94   O12   A    
C145  C146  A    
C1    O16   A    
C7    C8    A    
C63   H77   S    
C146  H9    S    
C6    H24   S    
C53   C54   A    
C44   C45   A    
C43   C78   S    
C99   C108  S    
C137  C139  A    
C80   C107  S    
C11   H28   S    
C37   C38   A    
C82   H16   S    
C106  C114  S    
C85   H18   S    
C23   C29   A    
O1    Zn1   S    
C28   C29   A    
C94   O5    A    
N3    Zn4   S    
C146  C147  A    
C118  C144  S    
C68   C119  S    
C30   C31   A    
C10   C73   S    
C8    H26   S    
C73   C107  S    
C106  H73   S    
C76   C98   S    
C15   C16   A    
O7    Zn3   S    
C2    C90   T    
C18   C19   A    
C118  C122  S    
C72   O10   A    
C37   C42   A    
C77   C111  S    
C87   H20   S    
C117  C121  S    
C39   H51   S    
C84   H17   S    
C25   H39   S    
C71   C85   S    
C145  H8    S    
C26   H40   S    
C70   C123  S    
C46   C95   T    
C19   C20   A    
C67   H82   S    
C132  C133  A    
O3    Zn1   S    
C44   H55   S    
C45   H57   S    
C56   C113  S    
C29   H43   S    
C9    H27   S    
C74   C87   S    
C72   C90   S    
C140  H4    S    
C34   C36   A    
C68   H83   S    
C102  H72   S    
C20   H36   S    
C63   C115  S    
C58   N1    T    
C35   C93   T    
C12   H29   S    
C137  C143  A    
C81   C108  S    
C100  H70   S    
C100  C109  S    
C87   C101  S    
C21   C22   A    
C13   C91   T    
C52   H62   S    
O6    Zn3   S    
C81   H15   S    
C102  C111  S    
C78   C114  S    
C60   N3    T    
C18   H33   S    
C24   C92   T    
C104  H74   S    
C62   C123  S    
C63   C121  S    
C86   H19   S    
C13   C109  S    
C50   C51   A    
C6    C7    A    
C81   C102  S    
C45   C47   A    
O14   Zn4   S    
C38   C39   A    
C83   C89   S    
C132  H56   S    
C50   C79   S    
C75   C109  S    
C66   C115  S    
C3    C144  A    
C80   C103  S    
C51   C52   A    
C133  H67   S    
C82   C109  S    
C135  C136  A    
C24   C110  S    
C36   H49   S    
C32   H46   S    
C131  C136  A    
C54   H64   S    
C19   H35   S    
C39   C40   A    
C3    H13   S    
O15   Zn3   S    
C8    C9    A    
C115  C131  S    
O10   Zn2   S    
C94   C97   S    
C1    O1    A    
C101  C110  S    
C37   C77   S    
C31   H44   S    
C69   C119  S    
C84   C110  S    
C64   C117  S    
C28   H42   S    
C103  C112  S    
C67   C69   S    
C148  H11   S    
C64   C66   S    
C22   H38   S    
C86   C112  S    
C43   C44   A    
C93   C127  S    
C74   C110  S    
C79   C84   S    
C85   C99   S    
C75   C106  S    
C139  H3    S    
C133  C134  A    
C30   C76   S    
C78   C82   S    
C143  H7    S    
C47   C48   A    
C49   H60   S    
C77   C81   S    
C95   C116  S    
C53   H63   S    
C50   C55   A    
C57   C97   T    
C38   H50   S    
C17   C18   A    
C26   C27   A    
C66   C121  S    
C124  C130  A    
O5    Zn4   S    
C14   H30   S    
C142  H6    S    
C60   C122  S    
N2    Zn1   S    
C80   H14   S    
C88   C100  S    
C125  H1    S    
N1    Zn2   S    
C5    H22   S    
O11   Zn1   S    
C66   H76   S    
C48   C49   A    
C71   C102  S    
C12   C14   A    
C89   C138  T    
C1    C92   S    
C119  C123  S    
C135  H84   S    
C79   C113  S    
C62   N4    T    
C78   C100  S    
C125  C126  A    
C84   C104  S    
C64   H79   S    
C42   H54   S    
C59   N2    T    
C58   C120  S    
C61   O2    A    
C41   H53   S    
C131  C132  A    
C69   H80   S    
C134  H78   S    
C105  O6    A    
C65   H75   S    
C35   C111  S    
C52   C53   A    
O16   Zn2   S    
C129  C130  A    
C34   H48   S    
C56   C96   T    
C98   H68   S    
C54   C55   A    
C40   C41   A    
C126  C128  A    
C88   H21   S    
C47   H58   S    
C17   C74   S    
C14   C15   A    
C117  C124  S    
C31   C32   A    
C43   C49   A    
C127  O8    A    
C76   C80   S    
C76   C112  S    
C23   C75   S    
C144  C145  A    
C85   C111  S    
C67   C123  S    
C55   H65   S    
C136  H2    S    
C139  C140  A    
C21   H37   S    
C57   C114  S    
C99   H66   S    
C126  H12   S    
C51   H61   S    
C40   H52   S    
O9    Zn2   S    
C83   O4    A    
C134  C135  A    
O4    Zn2   S    
C17   C22   A    
C64   C120  S    
C30   C36   A    
C87   C113  S    
C72   O3    A    
C32   C33   A    
C107  C138  S    
C15   H31   S    
C25   C26   A    
C70   H81   S    
C105  O13   A    
C10   C16   A    
C141  C142  A    
C147  H10   S    
C141  H5    S    
C5    C6    A    
C119  C137  S    
C116  O14   A    
C69   C122  S    
C70   C118  S    
C140  C141  A    
C4    C5    A    
C7    H25   S    
C48   H59   S    
C2    C108  S    
C65   C120  S    
C33   C34   A    
C77   C99   S    
C82   C106  S    
C127  O15   A    
C23   C25   A    
N4    Zn3   S    
C88   C114  S    
C86   C98   S    
C67   C118  S    
C73   C86   S    
C116  O7    A    
C10   C11   A    
C98   C107  S    
C104  C113  S    
C101  H69   S    
C75   C88   S    
C73   C103  S    
C20   C21   A    
C33   H47   S    
C128  H23   S    
C68   C70   S    
C115  C120  S    
O8    Zn4   S    
C83   O11   A    
C27   C28   A    
C65   C117  S    
C142  C143  A    
C79   C101  S    
C27   H41   S    
O2    Zn1   S    
C61   C91   S    
C4    C9    A    
C71   C108  S    
C3    C148  A    
C61   O9    A    
C4    C71   S    
O13   Zn4   S    
C16   H32   S    
C11   C12   A    
C103  H71   S    
C124  C125  A    
O12   Zn3   S    
