data_mof_unit_30992.cif
_audit_creation_date              2013-03-05T15:59:22-0500
_audit_creation_method            fapswitch 2.2
_symmetry_space_group_name_H-M    P1
_symmetry_Int_Tables_number       1
_space_group_crystal_system       triclinic
_cell_length_a                    10.52627
_cell_length_b                    12.599496
_cell_length_c                    13.150292
_cell_angle_alpha                 82.556638
_cell_angle_beta                  90.551512
_cell_angle_gamma                 101.817486
_cell_volume                      1692.45919838

loop_
_atom_site_label
_atom_site_type_symbol
_atom_site_description
_atom_site_fract_x
_atom_site_fract_y
_atom_site_fract_z
_atom_type_partial_charge
O1    O     O_R   0.467970 0.366730 0.627150 -0.613288
O2    O     O_R   0.510820 0.544830 0.662520 -0.626384
C1    C     C_R   0.475685 0.439241 0.690730 0.846037
O3    O     O_R   0.664630 0.410960 0.482340 -0.627756
O4    O     O_R   0.707470 0.589060 0.517710 -0.611719
C2    C     C_R   0.741826 0.499774 0.500511 0.897210
Zn1   Zn    Zn3+2 0.471390 0.381080 0.476380 0.945036
Zn2   Zn    Zn3+2 0.528610 0.618920 0.523620 0.958998
O5    O     O_R   0.489180 0.455170 0.337480 -0.621237
O6    O     O_R   0.532030 0.633270 0.372850 -0.631088
O7    O     O_R   0.292530 0.410940 0.482290 -0.608901
O8    O     O_R   0.335370 0.589040 0.517660 -0.617465
C3    C     C_R   0.515127 0.561017 0.308134 0.852880
C4    C     C_R   0.257943 0.499886 0.500855 0.864903
C5    C     C_3   0.934754 0.401957 0.477965 -0.134840
C6    C     C_3   0.021850 0.419575 0.571454 -0.005153
H1    H     H_    0.878989 0.322362 0.458979 0.155062
C7    C     C_3   0.122885 0.500581 0.502569 -0.120485
C8    C     C_3   0.037290 0.484706 0.408280 -0.246308
C9    C     C_3   0.975537 0.581029 0.431300 -0.219610
C10   C     C_3   0.060876 0.594330 0.525692 0.386098
C11   C     C_3   0.960120 0.514294 0.596502 -0.281636
C12   C     C_3   0.876349 0.498668 0.501439 -0.051928
H2    H     H_    0.072301 0.472559 0.332091 0.159307
H3    H     H_    0.952795 0.647635 0.374663 0.167787
H4    H     H_    0.925480 0.527081 0.672607 0.159077
C13   C     C_R   0.462483 0.721910 0.052820 -0.238141
H5    H     H_    0.370826 0.732705 0.862595 0.173966
H6    H     H_    0.457240 0.804200 0.019121 0.141050
C14   C     C_R   0.507732 0.596009 0.197584 -0.108132
C15   C     C_R   0.450603 0.292459 0.837802 -0.171653
C16   C     C_R   0.439957 0.258558 0.942619 -0.137754
C17   C     C_R   0.433315 0.333893 0.009881 -0.190190
C18   C     C_R   0.431186 0.444237 0.972186 0.092307
C19   C     C_R   0.417319 0.472263 0.866162 0.066298
C20   C     C_R   0.447797 0.529001 0.035002 0.076791
C21   C     C_R   0.432049 0.635170 0.994087 0.141733
C22   C     C_R   0.390709 0.653892 0.893708 -0.222114
C23   C     C_R   0.381425 0.572594 0.830669 -0.174080
C24   C     C_R   0.488693 0.512628 0.135414 -0.271502
C25   C     C_R   0.504144 0.703722 0.153644 -0.003857
C26   C     C_R   0.443632 0.400278 0.798975 -0.107983
H7    H     H_    0.508424 0.434515 0.166744 0.167785
H8    H     H_    0.466689 0.234792 0.787386 0.158882
H9    H     H_    0.428067 0.303157 0.090536 0.128980
H10   H     H_    0.442960 0.174808 0.972172 0.144391
H11   H     H_    0.347548 0.589815 0.753698 0.216286
C27   C     C_R   0.318159 0.088521 0.347931 -0.281223
H12   H     H_    0.299215 0.256071 0.330191 0.133553
H13   H     H_    0.285132 0.881095 0.319107 0.153223
H14   H     H_    0.248848 0.066882 0.288751 0.147437
N1    N     N_R   0.432930 0.222190 0.444670 -0.103433
C28   C     C_R   0.654510 0.799179 0.629142 0.047157
C29   C     C_R   0.685914 0.903379 0.657960 -0.228718
C30   C     C_R   0.626463 0.984901 0.609759 -0.190361
C31   C     C_R   0.534716 0.962056 0.532103 0.019098
C32   C     C_R   0.505681 0.854280 0.506096 0.244951
C33   C     C_R   0.471481 0.041412 0.479002 -0.011636
C34   C     C_R   0.380636 0.011351 0.401718 0.187889
C35   C     C_R   0.353591 0.904799 0.378314 -0.186079
C36   C     C_R   0.415258 0.827492 0.429965 -0.114887
C37   C     C_R   0.495111 0.150346 0.498605 -0.040610
C38   C     C_R   0.346197 0.194840 0.370908 0.014005
N2    N     N_R   0.566370 0.776980 0.554790 -0.133854
H15   H     H_    0.562015 0.181071 0.555471 0.122672
H16   H     H_    0.700115 0.735245 0.666306 0.145596
H17   H     H_    0.654312 0.064345 0.634868 0.137684
H18   H     H_    0.756061 0.920953 0.717399 0.161138
H19   H     H_    0.392797 0.747891 0.406560 0.197065
C39   C     C_1   0.050552 0.332072 0.647589 0.175046
N3    N     N_1   0.073478 0.263200 0.707619 -0.194703
N4    N     N_R   0.128219 0.699409 0.553314 0.210645
O9    O     O_R   0.107308 0.789559 0.502321 -0.410849
O10   O     O_R   0.194208 0.703366 0.637317 -0.419308
C40   C     C_1   0.553436 0.797624 0.205200 0.168184
N5    N     N_1   0.595280 0.873794 0.244839 -0.207344

loop_
_geom_bond_atom_site_label_1
_geom_bond_atom_site_label_2
_geom_bond_distance
_ccdc_geom_bond_type
C33   C37   1.400976 A    
C30   C31   1.414817 A    
C1    C26   1.463359 S    
H12   C38   1.081943 S    
C15   C26   1.404248 A    
C13   H6    1.085512 S    
C7    C10   1.525254 S    
C17   H9    1.078850 S    
C4    C7    1.423884 S    
C8    C9    1.552135 S    
C28   C29   1.387539 A    
C5    C8    1.549934 S    
C27   C34   1.397474 A    
C20   C21   1.417383 A    
Zn1   N1    2.055869 S    
C7    C8    1.535633 S    
O4    C2    1.296763 A    
O7    C4    1.299149 A    
C29   H18   1.082574 S    
C9    H3    1.110491 S    
C5    C6    1.538468 S    
C31   C32   1.415155 A    
Zn1   O5    1.932891 S    
C18   C19   1.406969 A    
C19   C26   1.412497 A    
O5    C3    1.312077 A    
C27   H14   1.083900 S    
C14   C25   1.412268 A    
C39   N3    1.157167 T    
C5    C12   1.538162 S    
C34   C35   1.388130 A    
C10   C11   1.531829 S    
O3    Zn1   1.994076 S    
Zn1   O7    1.998192 S    
C24   H7    1.076347 S    
C15   H8    1.083271 S    
C10   N4    1.456871 S    
C3    C14   1.469593 S    
C20   C24   1.387920 A    
C6    C39   1.467581 S    
O3    C2    1.289458 A    
C27   C38   1.383502 A    
C33   C34   1.422474 A    
N1    C38   1.354191 A    
C35   C36   1.382215 A    
O1    C1    1.306345 A    
C19   C23   1.413497 A    
C40   N5    1.157075 T    
C21   C22   1.392029 A    
C25   C40   1.441603 S    
C13   C25   1.397860 A    
C15   C16   1.387712 A    
C9    C12   1.531160 S    
H5    C22   1.084187 S    
Zn2   O8    1.994078 S    
C17   C18   1.418829 A    
C14   C24   1.394763 A    
C6    C7    1.525708 S    
C28   H16   1.081687 S    
Zn2   N2    2.043556 S    
N4    O10   1.300233 A    
O8    C4    1.288696 A    
C32   N2    1.360912 A    
C23   H11   1.080097 S    
C36   H19   1.066756 S    
C5    H1    1.110662 S    
C29   C30   1.391169 A    
C6    C11   1.542251 S    
C37   H15   1.076214 S    
O1    Zn1   1.967432 S    
C16   H10   1.082909 S    
O2    Zn2   1.932890 S    
N4    O9    1.300182 A    
O6    C3    1.310008 A    
O4    Zn2   1.998188 S    
C30   H17   1.077235 S    
C32   C36   1.399916 A    
H13   C35   1.084421 S    
C16   C17   1.390713 A    
O2    C1    1.310537 A    
N1    C37   1.348422 A    
C22   C23   1.386881 A    
C13   C21   1.401466 A    
C2    C12   1.418863 S    
C28   N2    1.357249 A    
C31   C33   1.418844 A    
C8    H2    1.110404 S    
C18   C20   1.415216 A    
C9    C10   1.531861 S    
Zn2   O6    1.967435 S    
C11   H4    1.110576 S    
C11   C12   1.533139 S    
