data_mof_unit_20364.cif
_audit_creation_date              2013-03-05T16:41:02-0500
_audit_creation_method            fapswitch 2.2
_symmetry_space_group_name_H-M    P1
_symmetry_Int_Tables_number       1
_space_group_crystal_system       triclinic
_cell_length_a                    18.633359
_cell_length_b                    18.65054
_cell_length_c                    18.874168
_cell_angle_alpha                 109.619648
_cell_angle_beta                  109.443067
_cell_angle_gamma                 109.027009
_cell_volume                      5069.24711391

loop_
_atom_site_label
_atom_site_type_symbol
_atom_site_description
_atom_site_fract_x
_atom_site_fract_y
_atom_site_fract_z
_atom_type_partial_charge
O1    O     O_R   0.408360 0.551710 0.460090 -0.618407
O2    O     O_R   0.408400 0.448280 0.356670 -0.625879
C1    C     C_R   0.381466 0.502633 0.380577 0.885421
O3    O     O_R   0.591600 0.643340 0.551710 -0.598444
O4    O     O_R   0.591630 0.539900 0.448290 -0.636423
C2    C     C_R   0.622024 0.620119 0.502210 0.880675
Zn1   Zn    Zn3+2 0.499980 0.569060 0.569060 0.968234
Zn2   Zn    Zn3+2 0.500020 0.430940 0.430940 0.951946
O5    O     O_R   0.591600 0.551720 0.643330 -0.617452
O6    O     O_R   0.591640 0.448290 0.539910 -0.628310
O7    O     O_R   0.408370 0.460100 0.551710 -0.629366
O8    O     O_R   0.408400 0.356660 0.448290 -0.624131
C3    C     C_R   0.619387 0.498884 0.619804 0.881266
C4    C     C_R   0.377887 0.380001 0.497960 0.889833
H1    H     H_    0.873491 0.782409 0.894358 0.135010
C5    C     C_R   0.778803 0.781778 0.791376 -0.150701
H2    H     H_    0.745670 0.797970 0.826506 0.132830
C6    C     C_R   0.750858 0.772439 0.708866 -0.030384
H3    H     H_    0.697433 0.783749 0.682479 0.221191
C7    C     C_R   0.793015 0.750850 0.662379 0.065676
C8    C     C_R   0.865487 0.741639 0.701264 -0.194990
H4    H     H_    0.900551 0.727406 0.667717 0.123274
C9    C     C_R   0.894805 0.753513 0.784777 -0.132252
H5    H     H_    0.952487 0.749280 0.814851 0.114457
C10   C     C_R   0.851006 0.772766 0.829552 -0.113453
C11   C     C_R   0.831039 0.808324 0.572833 -0.223549
H6    H     H_    0.894107 0.856139 0.630729 0.164474
C12   C     C_R   0.811902 0.809935 0.495444 -0.073429
C13   C     C_R   0.728494 0.749886 0.420205 0.032420
C14   C     C_R   0.667742 0.687419 0.424951 -0.224815
H7    H     H_    0.603953 0.639465 0.368015 0.141084
C15   C     C_R   0.687666 0.686504 0.502535 -0.026542
C16   C     C_R   0.768958 0.748133 0.577984 0.017685
C17   C     C_R   0.624336 0.752763 0.297318 -0.264032
H8    H     H_    0.584891 0.754266 0.328258 0.164686
C18   C     C_R   0.598638 0.754830 0.219279 0.355904
C19   C     C_R   0.649779 0.751210 0.179104 -0.207559
H9    H     H_    0.631607 0.752375 0.118901 0.171970
C20   C     C_R   0.725467 0.746811 0.216762 -0.192595
H10   H     H_    0.764949 0.744790 0.185845 0.155873
C21   C     C_R   0.751163 0.746342 0.294899 -0.087813
H11   H     H_    0.811212 0.745807 0.324310 0.124382
C22   C     C_R   0.701448 0.750011 0.336474 0.083120
H12   H     H_    0.489634 0.909706 0.588141 0.124253
C23   C     C_R   0.410556 0.773679 0.544317 -0.138476
H13   H     H_    0.404583 0.786686 0.601848 0.119539
C24   C     C_R   0.367583 0.687734 0.476407 -0.089397
H14   H     H_    0.326121 0.635576 0.481104 0.142737
C25   C     C_R   0.374796 0.669745 0.401316 0.117040
C26   C     C_R   0.423790 0.740106 0.394574 -0.153770
H15   H     H_    0.427348 0.728367 0.335940 0.167883
C27   C     C_R   0.463886 0.826252 0.461253 -0.088868
H16   H     H_    0.498382 0.880214 0.454184 0.131346
C28   C     C_R   0.458181 0.842995 0.536488 -0.046523
C29   C     C_R   0.252295 0.576046 0.253217 -0.224348
H17   H     H_    0.252450 0.635421 0.256655 0.160265
C30   C     C_R   0.185334 0.495128 0.182002 -0.070101
C31   C     C_R   0.178884 0.416245 0.178537 -0.004242
C32   C     C_R   0.245984 0.422011 0.245015 -0.238647
H18   H     H_    0.244700 0.362470 0.242130 0.155220
C33   C     C_R   0.313755 0.503274 0.316184 -0.071969
C34   C     C_R   0.314985 0.581605 0.322957 -0.015541
C35   C     C_R   0.064319 0.265679 0.128888 -0.162088
H19   H     H_    0.085004 0.282792 0.195740 0.119138
C36   C     C_R   0.996942 0.181196 0.063489 -0.138366
H20   H     H_    0.966346 0.134260 0.080232 0.133743
C37   C     C_R   0.969476 0.157138 0.976623 -0.109668
H21   H     H_    0.917621 0.091596 0.925981 0.149318
C38   C     C_R   0.009168 0.217667 0.955159 -0.122024
H22   H     H_    0.988197 0.198669 0.887858 0.144181
C39   C     C_R   0.076076 0.302440 0.020497 -0.106978
H23   H     H_    0.105702 0.348576 0.002997 0.095502
C40   C     C_R   0.104628 0.327505 0.108104 0.126216
H24   H     H_    0.149494 0.546878 0.429095 0.132606
C41   C     C_R   0.229288 0.526186 0.524102 -0.174411
H25   H     H_    0.260040 0.592437 0.576358 0.119664
C42   C     C_R   0.252433 0.466587 0.539543 -0.089469
H26   H     H_    0.301342 0.487415 0.603724 0.141310
C43   C     C_R   0.212855 0.380599 0.472202 0.102719
C44   C     C_R   0.149869 0.355042 0.389141 -0.188428
H27   H     H_    0.118191 0.288669 0.336683 0.125655
C45   C     C_R   0.127474 0.415071 0.373620 -0.119424
H28   H     H_    0.079168 0.395322 0.309457 0.136138
C46   C     C_R   0.166972 0.500509 0.441117 -0.112453
C47   C     C_R   0.172130 0.249961 0.488681 -0.169345
H29   H     H_    0.112690 0.251111 0.483124 0.164517
C48   C     C_R   0.186297 0.183015 0.496231 -0.064986
C49   C     C_R   0.262236 0.179443 0.501357 -0.012902
C50   C     C_R   0.324164 0.245754 0.501709 -0.265229
H30   H     H_    0.382972 0.244261 0.505267 0.155409
C51   C     C_R   0.311030 0.313789 0.496917 -0.071395
C52   C     C_R   0.233996 0.315777 0.488559 -0.011209
C53   C     C_R   0.354577 0.120739 0.563372 -0.139394
H31   H     H_    0.401625 0.185907 0.618171 0.127355
C54   C     C_R   0.373038 0.052493 0.555958 -0.160119
H32   H     H_    0.433374 0.064889 0.605177 0.137133
C55   C     C_R   0.314124 0.968472 0.484542 -0.122827
H33   H     H_    0.328753 0.915822 0.478548 0.137113
C56   C     C_R   0.236010 0.952255 0.421212 -0.090859
H34   H     H_    0.190712 0.887136 0.365996 0.152322
C57   C     C_R   0.217297 0.020356 0.428389 -0.147825
H35   H     H_    0.158103 0.007796 0.377499 0.097190
C58   C     C_R   0.276590 0.105243 0.499379 0.132520
C59   C     C_R   0.524678 0.550502 0.826890 -0.300463
H36   H     H_    0.528753 0.607038 0.873421 0.131626
C60   C     C_R   0.599815 0.558697 0.821547 -0.180100
H37   H     H_    0.659632 0.621238 0.862624 0.142640
C61   C     C_R   0.597462 0.486606 0.762938 0.144200
C62   C     C_R   0.520246 0.405688 0.711645 -0.273857
H38   H     H_    0.518065 0.349089 0.667266 0.141001
C63   C     C_R   0.445644 0.397231 0.717885 -0.158364
H39   H     H_    0.386806 0.334096 0.679117 0.180877
C64   C     C_R   0.445641 0.469564 0.772841 0.587745
C65   C     C_R   0.741459 0.495139 0.818467 -0.253762
H40   H     H_    0.735846 0.493683 0.873448 0.158565
C66   C     C_R   0.813693 0.496661 0.810381 -0.091816
C67   C     C_R   0.821959 0.498178 0.739153 -0.004773
C68   C     C_R   0.756795 0.499131 0.677222 -0.234096
H41   H     H_    0.761834 0.500492 0.621982 0.151510
C69   C     C_R   0.684594 0.497307 0.685347 -0.069120
C70   C     C_R   0.676129 0.495011 0.755983 0.019725
C71   C     C_R   0.947977 0.560213 0.716384 -0.159983
H42   H     H_    0.938328 0.615629 0.722723 0.116793
C72   C     C_R   0.013877 0.554682 0.698999 -0.140292
H43   H     H_    0.054982 0.605943 0.692803 0.124488
C73   C     C_R   0.025901 0.482448 0.688388 -0.126929
H44   H     H_    0.076183 0.477639 0.673852 0.135277
C74   C     C_R   0.972155 0.415772 0.695295 -0.123923
H45   H     H_    0.980594 0.359180 0.685215 0.148598
C75   C     C_R   0.906932 0.421629 0.713951 -0.116487
H46   H     H_    0.865118 0.369032 0.718240 0.109183
C76   C     C_R   0.894502 0.494152 0.724853 0.135396
O9    O     O_R   0.051730 0.908360 0.460060 -0.594439
O10   O     O_R   0.948280 0.908380 0.356650 -0.635118
C77   C     C_R   0.996863 0.876436 0.380679 0.851963
O11   O     O_R   0.960110 0.908350 0.551690 -0.650358
O12   O     O_R   0.856660 0.908370 0.448270 -0.608416
C78   C     C_R   0.879336 0.877870 0.497800 0.858448
Zn3   Zn    Zn3+2 0.069070 0.999960 0.569030 0.983152
Zn4   Zn    Zn3+2 0.930930 0.999990 0.430930 0.959381
O13   O     O_R   0.051720 0.091580 0.643310 -0.590182
O14   O     O_R   0.948270 0.091600 0.539890 -0.630111
O15   O     O_R   0.143340 0.091590 0.551680 -0.587547
O16   O     O_R   0.039890 0.091610 0.448270 -0.639809
C79   C     C_R   0.999474 0.120081 0.619495 0.965667
C80   C     C_R   0.120293 0.118218 0.498125 0.926527
O17   O     O_R   0.051730 0.460050 0.908360 -0.620741
O18   O     O_R   0.948290 0.356630 0.908390 -0.623439
C81   C     C_R   0.003159 0.380041 0.882733 0.886185
O19   O     O_R   0.143340 0.551690 0.091580 -0.611842
O20   O     O_R   0.039900 0.448270 0.091610 -0.616890
C82   C     C_R   0.119845 0.496855 0.117086 0.858178
Zn5   Zn    Zn3+2 0.069070 0.569030 0.999960 0.984684
Zn6   Zn    Zn3+2 0.930930 0.430930 0.000000 0.963076
O21   O     O_R   0.051710 0.643320 0.091560 -0.603794
O22   O     O_R   0.948270 0.539900 0.091590 -0.627747
O23   O     O_R   0.960100 0.551680 0.908340 -0.615706
O24   O     O_R   0.856660 0.448270 0.908370 -0.621885
C83   C     C_R   0.000063 0.620390 0.120320 0.868368
C84   C     C_R   0.879894 0.498294 0.878164 0.860417
H47   H     H_    0.868694 0.626407 0.507466 0.143665
C85   C     C_R   0.980954 0.708864 0.507752 -0.279028
H48   H     H_    0.022201 0.731663 0.575299 0.107559
C86   C     C_R   0.014037 0.738434 0.459033 0.562519
C87   C     C_R   0.955548 0.703344 0.370303 -0.005747
C88   C     C_R   0.868357 0.638391 0.332035 -0.287581
H49   H     H_    0.823736 0.609746 0.263688 0.163404
C89   C     C_R   0.837017 0.611947 0.381514 -0.119570
H50   H     H_    0.769112 0.563607 0.351638 0.151561
C90   C     C_R   0.893072 0.647508 0.469288 -0.151994
C91   C     C_R   0.984330 0.668872 0.247997 -0.236175
H51   H     H_    0.972778 0.606604 0.244639 0.164561
C92   C     C_R   0.999258 0.686738 0.186320 -0.094756
C93   C     C_R   0.012838 0.766778 0.188862 -0.001929
C94   C     C_R   0.010940 0.827414 0.253791 -0.288781
H52   H     H_    0.019901 0.888726 0.255906 0.149828
C95   C     C_R   0.997572 0.810030 0.315991 -0.052647
C96   C     C_R   0.983721 0.730227 0.313941 0.068888
C97   C     C_R   0.106801 0.863351 0.153893 -0.153915
H53   H     H_    0.152386 0.907853 0.222483 0.126647
C98   C     C_R   0.127363 0.878835 0.093785 -0.123902
H54   H     H_    0.187556 0.935690 0.115975 0.136143
C99   C     C_R   0.071567 0.819468 0.005175 -0.132286
H55   H     H_    0.088801 0.830159 0.958821 0.122587
C100  C     C_R   0.993925 0.746010 0.976620 -0.122225
H56   H     H_    0.951416 0.698503 0.908467 0.136256
C101  C     C_R   0.971134 0.732486 0.036097 -0.102310
H57   H     H_    0.910609 0.675273 0.012777 0.097505
C102  C     C_R   0.029333 0.788875 0.125362 0.131719
H58   H     H_    0.398945 0.587547 0.091184 0.171934
C103  C     C_R   0.286488 0.551458 0.975880 -0.103974
H59   H     H_    0.311365 0.616451 0.983879 0.166828
C104  C     C_R   0.204893 0.483705 0.905030 -0.121428
H60   H     H_    0.167136 0.497115 0.858739 0.138810
C105  C     C_R   0.171913 0.399265 0.894408 0.151558
C106  C     C_R   0.222871 0.383436 0.954740 -0.099687
H61   H     H_    0.199363 0.318410 0.946828 0.141820
C107  C     C_R   0.304136 0.451338 0.025739 -0.148369
H62   H     H_    0.342594 0.438790 0.072398 0.141145
C108  C     C_R   0.335901 0.535293 0.036332 -0.058965
C109  C     C_R   0.081782 0.263461 0.749984 0.250959
C110  C     C_R   0.000649 0.188665 0.684504 -0.202862
C111  C     C_R   0.922534 0.176932 0.685404 -0.022798
C112  C     C_R   0.926037 0.240743 0.752227 -0.268757
H63   H     H_    0.865871 0.232555 0.752822 0.176240
C113  C     C_R   0.005856 0.314717 0.818101 -0.144439
C114  C     C_R   0.085321 0.326199 0.819394 -0.137214
C115  C     C_R   0.791468 0.074806 0.536440 -0.092693
H64   H     H_    0.815521 0.120095 0.515271 0.145325
C116  C     C_R   0.715110 0.994447 0.476675 -0.181441
H65   H     H_    0.680740 0.977542 0.409630 0.167043
C117  C     C_R   0.682844 0.935906 0.503345 -0.209995
H66   H     H_    0.623730 0.874116 0.456223 0.169518
C118  C     C_R   0.725389 0.958199 0.590663 0.377012
C119  C     C_R   0.803808 0.037683 0.649699 -0.264157
H67   H     H_    0.838899 0.054637 0.716742 0.174146
C120  C     C_R   0.837998 0.095259 0.622526 0.060304
O25   O     O_3   0.368452 0.455557 0.774723 -0.573631
C121  C     C_3   0.355868 0.528859 0.789694 0.108022
H68   H     H_    0.382442 0.566339 0.760733 0.103549
H69   H     H_    0.387154 0.572758 0.860649 0.161151
C122  C     C_3   0.258281 0.497419 0.748853 -0.787978
H70   H     H_    0.227902 0.453370 0.769951 0.291804
H71   H     H_    0.247050 0.554164 0.768150 0.181939
H72   H     H_    0.226114 0.459861 0.677254 0.250121
O26   O     O_3   0.102210 0.795687 0.492179 -0.612184
C123  C     C_3   0.148706 0.849150 0.583433 0.097656
H73   H     H_    0.163855 0.810842 0.614515 0.122786
H74   H     H_    0.111578 0.877755 0.606781 0.146999
C124  C     C_3   0.234931 0.924578 0.611174 -0.778484
H75   H     H_    0.222502 0.965374 0.582544 0.282064
H76   H     H_    0.272310 0.966029 0.682869 0.188654
H77   H     H_    0.274437 0.898923 0.589722 0.244026
N1    N     N_R   0.159426 0.276797 0.743623 0.212707
O27   O     O_R   0.223936 0.278441 0.800427 -0.372104
O28   O     O_R   0.161503 0.277393 0.675599 -0.417928
N2    N     N_R   0.688646 0.901435 0.619771 0.183760
O29   O     O_R   0.625666 0.821406 0.564294 -0.428147
O30   O     O_R   0.714178 0.931151 0.701843 -0.456151
N3    N     N_R   0.521758 0.761593 0.181671 0.184496
O31   O     O_R   0.476105 0.768257 0.220368 -0.449099
O32   O     O_R   0.497096 0.761973 0.108728 -0.439198

loop_
_geom_bond_atom_site_label_1
_geom_bond_atom_site_label_2
_geom_bond_distance
_ccdc_geom_bond_type
C18   N3    1.439755 S    
O15   C80   1.280608 A    
C88   C89   1.393200 A    
C48   C49   1.410920 A    
C35   C36   1.398166 A    
C57   H35   1.081265 S    
C48   C80   1.436504 S    
C109  C110  1.407894 A    
C2    C15   1.425306 S    
C54   H32   1.082315 S    
C61   C70   1.477329 S    
C119  H67   1.083699 S    
C74   H45   1.080854 S    
C53   C58   1.406159 A    
C59   C60   1.399476 A    
C65   H40   1.085287 S    
C100  H56   1.079720 S    
H58   C108  1.080688 S    
C20   C21   1.394841 A    
C87   C88   1.405916 A    
C42   H26   1.080305 S    
C61   C62   1.400239 A    
C36   H20   1.082371 S    
Zn1   O7    2.017407 S    
C91   C92   1.399696 A    
C12   C13   1.419180 A    
C11   H6    1.085231 S    
C53   H31   1.083028 S    
O18   Zn6   2.017459 S    
C72   C73   1.396682 A    
C18   C19   1.405791 A    
O17   C81   1.273991 A    
C19   H9    1.082375 S    
Zn4   O14   2.022619 S    
C66   C84   1.434580 S    
C119  C120  1.401168 A    
O10   Zn4   2.010612 S    
O4    C2    1.279129 A    
O7    C4    1.276275 A    
H24   C46   1.082437 S    
C41   C46   1.397772 A    
C100  C101  1.393493 A    
C60   H37   1.083353 S    
C29   C34   1.383344 A    
C98   H54   1.082300 S    
C115  C120  1.402676 A    
C66   C67   1.411518 A    
C124  H77   1.110303 S    
Zn1   O5    2.013784 S    
C17   H8    1.081760 S    
C21   H11   1.075973 S    
O20   Zn6   2.018938 S    
C38   C39   1.398818 A    
C67   C76   1.483594 S    
O5    C3    1.275998 A    
C68   H41   1.085305 S    
C93   C94   1.380644 A    
C65   C70   1.383168 A    
Zn3   O15   2.019500 S    
C63   C64   1.398648 A    
C63   H39   1.081434 S    
C5    H2    1.082414 S    
C104  C105  1.404613 A    
O19   Zn5   2.020957 S    
C85   C90   1.395312 A    
C26   C27   1.398901 A    
O20   C82   1.273487 A    
C91   C96   1.385680 A    
C107  H62   1.082340 S    
Zn2   O8    2.018836 S    
C50   C51   1.393899 A    
N2    O30   1.301525 A    
Zn6   O22   2.015896 S    
O13   C79   1.280185 A    
C101  H57   1.083388 S    
C23   C24   1.397684 A    
C32   H18   1.085300 S    
C57   C58   1.404216 A    
O1    Zn1   2.025981 S    
C8    H4    1.083440 S    
C13   C22   1.491488 S    
O24   C84   1.281029 A    
C87   C96   1.488944 S    
C21   C22   1.402768 A    
O14   C79   1.276378 A    
C112  C113  1.392979 A    
C38   H22   1.081100 S    
N1    O28   1.300912 A    
C107  C108  1.395991 A    
O11   Zn3   2.017106 S    
C71   C76   1.405080 A    
C59   H36   1.081837 S    
C55   C56   1.396676 A    
C47   C52   1.384443 A    
C27   C28   1.396262 A    
C55   H33   1.082498 S    
C85   C86   1.423355 A    
C71   H42   1.080396 S    
C1    C33   1.437992 S    
C8    C9    1.394807 A    
C53   C54   1.398544 A    
O12   Zn4   2.019247 S    
C32   C33   1.397025 A    
C110  C111  1.406432 A    
C111  C120  1.478832 S    
C47   C48   1.399398 A    
O21   C83   1.280228 A    
C103  H59   1.082189 S    
C24   H14   1.079121 S    
C59   C64   1.415776 A    
C118  N2    1.435193 S    
C12   C78   1.439823 S    
C30   C82   1.431117 S    
C77   C95   1.425023 S    
C94   C95   1.393923 A    
C98   C99   1.397225 A    
C115  H64   1.083053 S    
C51   C52   1.405180 A    
C39   C40   1.403133 A    
C113  C114  1.415844 A    
C6    H3    1.077463 S    
C105  C106  1.405032 A    
C35   C40   1.408117 A    
C122  H72   1.107891 S    
C36   C37   1.396045 A    
C31   C32   1.387959 A    
C92   C93   1.411482 A    
C45   H28   1.082137 S    
C124  H75   1.110068 S    
C37   H21   1.082521 S    
O1    C1    1.272374 A    
C75   C76   1.405204 A    
C41   H25   1.082384 S    
C103  C104  1.398428 A    
C99   H55   1.082009 S    
C13   C14   1.387243 A    
C94   H52   1.085119 S    
C121  H69   1.111920 S    
C99   C100  1.397564 A    
C11   C16   1.381756 A    
C123  H73   1.112217 S    
C97   C102  1.405657 A    
C14   H7    1.085620 S    
C9    H5    1.078395 S    
O25   C121  1.413347 S    
C7    C8    1.402805 A    
C29   H17   1.086276 S    
N3    O32   1.301589 A    
C26   H15   1.082869 S    
C109  C114  1.397314 A    
C42   C43   1.402582 A    
C23   H13   1.082350 S    
O26   C123  1.414686 S    
C5    C6    1.394836 A    
C49   C50   1.385635 A    
C124  H76   1.110332 S    
C41   C42   1.397465 A    
C91   H51   1.085143 S    
C47   H29   1.085268 S    
C95   C96   1.409810 A    
H47   C90   1.082710 S    
O16   C80   1.280378 A    
C89   H50   1.082391 S    
C123  H74   1.114956 S    
O8    C4    1.278198 A    
C23   C28   1.395780 A    
C116  H65   1.082465 S    
O23   C84   1.277336 A    
C45   C46   1.397002 A    
C29   C30   1.390873 A    
C88   H49   1.083659 S    
C25   C26   1.407133 A    
O19   C82   1.283861 A    
C43   C44   1.403873 A    
C106  H61   1.083256 S    
O3    C2    1.273874 A    
Zn5   O21   2.017246 S    
N1    O27   1.300456 A    
C7    C16   1.482029 S    
C71   C72   1.397956 A    
C64   O25   1.390478 S    
C20   H10   1.082703 S    
C49   C58   1.483673 S    
C27   H16   1.081345 S    
O11   C78   1.287508 A    
C43   C52   1.480630 S    
C85   H48   1.080469 S    
C5    C10   1.393150 A    
C121  H68   1.115225 S    
O3    Zn1   2.018833 S    
C86   C87   1.415811 A    
C73   C74   1.396455 A    
C25   C34   1.485642 S    
C56   C57   1.399222 A    
C122  H71   1.110317 S    
C118  C119  1.403100 A    
C11   C12   1.396888 A    
O22   C83   1.280350 A    
O2    Zn2   2.013783 S    
C17   C22   1.407121 A    
Zn4   O16   2.017195 S    
C117  C118  1.404462 A    
C44   H27   1.082831 S    
O6    C3    1.280199 A    
C74   C75   1.399488 A    
C81   C113  1.434433 S    
O4    Zn2   2.017403 S    
C65   C66   1.396602 A    
C54   C55   1.397263 A    
O9    Zn3   2.022659 S    
O10   C77   1.280594 A    
C97   H53   1.083055 S    
C24   C25   1.405768 A    
O12   C78   1.275495 A    
C116  C117  1.396253 A    
C56   H34   1.081455 S    
C15   C16   1.404650 A    
C62   C63   1.396292 A    
C75   H46   1.082981 S    
C50   H30   1.085457 S    
C103  C108  1.397520 A    
C19   C20   1.395753 A    
C115  C116  1.396001 A    
C67   C68   1.387115 A    
C121  C122  1.520712 S    
C14   C15   1.393333 A    
Zn3   O13   2.010739 S    
C109  N1    1.438926 S    
C79   C110  1.432497 S    
C60   C61   1.401382 A    
C73   H44   1.081902 S    
C89   C90   1.390629 A    
N3    O31   1.301579 A    
C44   C45   1.398900 A    
O2    C1    1.287786 A    
C6    C7    1.405995 A    
O18   C81   1.284898 A    
C9    C10   1.398427 A    
Zn5   O23   2.018941 S    
C33   C34   1.414913 A    
O17   Zn5   2.016109 S    
C68   C69   1.394865 A    
C4    C51   1.428827 S    
C101  C102  1.403834 A    
C106  C107  1.396973 A    
H1    C10   1.079810 S    
C93   C102  1.481583 S    
C35   H19   1.080781 S    
H12   C28   1.082377 S    
C39   H23   1.075526 S    
C123  C124  1.518587 S    
C105  C114  1.488217 S    
C112  H63   1.085447 S    
C17   C18   1.407438 A    
Zn2   O6    2.025985 S    
C104  H60   1.083107 S    
C83   C92   1.439647 S    
C62   H38   1.083098 S    
O9    C77   1.276228 A    
Zn6   O24   2.021084 S    
C69   C70   1.406444 A    
C86   O26   1.397900 S    
C3    C69   1.433383 S    
C111  C112  1.377639 A    
C37   C38   1.395616 A    
C30   C31   1.413532 A    
N2    O29   1.300648 A    
C122  H70   1.104755 S    
C31   C40   1.491867 S    
C117  H66   1.078979 S    
C72   H43   1.082416 S    
C97   C98   1.398024 A    
