data_mof_unit_25454.cif
_audit_creation_date              2012-10-26T19:36:55-0400
_audit_creation_method            fapswitch 2.2
_symmetry_space_group_name_H-M    P1
_symmetry_Int_Tables_number       1
_space_group_crystal_system       triclinic
_cell_length_a                    10.884243
_cell_length_b                    17.710046
_cell_length_c                    16.433205
_cell_angle_alpha                 89.809613
_cell_angle_beta                  91.012655
_cell_angle_gamma                 90.02115
_cell_volume                      3167.15951808

loop_
_atom_site_label
_atom_site_type_symbol
_atom_type_description
_atom_site_fract_x
_atom_site_fract_y
_atom_site_fract_z
_atom_type_partial_charge
C1    C     C_R   0.499510 0.355309 0.500057 0.545569
C2    C     C_R   0.547285 0.233059 0.433955 -0.136686
C3    C     C_R   0.502625 0.727569 0.499265 -0.018767
C4    C     C_R   0.498255 0.272555 0.499740 -0.011476
C5    C     C_R   0.540345 0.766845 0.429648 -0.123698
C6    C     C_R   0.446605 0.232466 0.564492 -0.115827
C7    C     C_R   0.540512 0.845636 0.428213 0.080251
C8    C     C_R   0.444926 0.153628 0.564137 0.101135
C9    C     C_R   0.502369 0.885543 0.496958 0.046766
C10   C     C_R   0.496262 0.114635 0.498697 0.050779
C11   C     C_1   0.500164 0.966238 0.497029 0.039818
C12   C     C_R   0.500777 0.644736 0.499826 0.544655
C13   C     C_1   0.498221 0.033936 0.497542 0.040491
C14   C     C_R   0.590041 0.539691 0.829732 -0.156162
C15   C     C_R   0.438280 0.444504 0.170201 -0.113320
C16   C     C_R   0.261804 0.502418 0.499061 0.551258
C17   C     C_R   0.738181 0.498855 0.500950 0.550251
C18   C     C_R   0.588593 0.538592 0.743870 0.039161
C19   C     C_R   0.438284 0.445417 0.256039 0.043966
C20   C     C_R   0.410979 0.461889 0.742383 0.032061
C21   C     C_R   0.562239 0.554927 0.257731 0.076040
C22   C     C_R   0.408536 0.462259 0.828207 -0.143537
C23   C     C_R   0.871724 0.499354 0.502548 -0.001162
C24   C     C_R   0.562860 0.556616 0.171896 -0.095194
C25   C     C_R   0.498999 0.501379 0.873100 -0.000999
C26   C     C_R   0.500093 0.500997 0.126896 0.057665
C27   C     C_1   0.498903 0.501759 0.962686 -0.028461
C28   C     C_1   0.499225 0.501710 0.037268 0.009441
C29   C     C_R   0.232977 0.629250 0.264320 0.281806
C30   C     C_R   0.816691 0.366177 0.745002 0.272800
C31   C     C_R   0.182805 0.608356 0.340147 -0.107586
C32   C     C_R   0.833958 0.394354 0.666014 -0.095907
C33   C     C_R   0.111784 0.542642 0.347381 -0.028274
C34   C     C_R   0.128026 0.504861 0.497606 -0.002263
C35   C     C_R   0.891203 0.464447 0.654492 -0.027941
C36   C     C_R   0.088971 0.497849 0.278799 -0.153646
C37   C     C_R   0.924397 0.507880 0.722671 -0.163589
C38   C     C_R   0.138466 0.517135 0.203954 0.071336
C39   C     C_R   0.910975 0.479264 0.801244 0.067367
C40   C     C_R   0.209843 0.582740 0.196209 0.318166
C41   C     C_R   0.860028 0.407212 0.812922 0.317198
C42   C     C_R   0.930703 0.517370 0.429901 -0.147681
C43   C     C_R   0.069054 0.487808 0.570170 -0.141972
C44   C     C_3   0.199226 0.651819 0.079293 0.033202
C45   C     C_R   0.941909 0.485108 0.574196 -0.012365
C46   C     C_3   0.260529 0.664473 0.997444 -0.236436
C47   C     C_3   0.195698 0.726263 0.948057 -0.467557
C48   C     C_3   0.772527 0.383787 0.936230 0.035676
C49   C     C_3   0.778487 0.327966 0.007360 -0.235235
C50   C     C_3   0.676987 0.341982 0.068091 -0.485095
C51   C     C_3   0.286936 0.753688 0.302487 -0.000504
C52   C     C_3   0.161933 0.789679 0.281141 -0.292849
C53   C     C_3   0.141727 0.861051 0.330932 -0.450889
C54   C     C_3   0.638938 0.299347 0.750833 0.004860
C55   C     C_3   0.584039 0.234563 0.800102 -0.249379
C56   C     C_R   0.057909 0.521114 0.426397 -0.014599
C57   C     C_3   0.448504 0.247992 0.817543 -0.458990
C58   C     C_R   0.465849 0.846683 0.566694 -0.128282
C59   C     C_R   0.546898 0.154410 0.433734 -0.124678
C60   C     C_R   0.466396 0.768030 0.568049 -0.141860
Cu1   Cu    Cu3+1 0.499990 0.499980 0.580420 0.926012
Cu2   Cu    Cu3+1 0.500010 0.500020 0.419580 0.950904
H1    H     H_    0.661790 0.570395 0.861945 0.127236
H2    H     H_    0.809907 0.359521 0.614045 0.133283
H3    H     H_    0.034213 0.447020 0.283911 0.148427
H4    H     H_    0.970040 0.561674 0.714465 0.151806
H5    H     H_    0.877392 0.530319 0.375222 0.136250
H6    H     H_    0.122597 0.474410 0.624642 0.143250
H7    H     H_    0.436614 0.877251 0.619998 0.144578
H8    H     H_    0.586265 0.124576 0.382953 0.142162
H9    H     H_    0.436989 0.738914 0.622409 0.138902
H10   H     H_    0.587285 0.262989 0.383274 0.131516
H11   H     H_    0.569554 0.736421 0.376293 0.152128
H12   H     H_    0.389628 0.400143 0.137899 0.133275
H13   H     H_    0.405836 0.262426 0.614535 0.126611
H14   H     H_    0.197626 0.706357 0.112652 0.149798
H15   H     H_    0.103129 0.632161 0.068024 0.162665
H16   H     H_    0.358130 0.680931 0.007872 0.182039
H17   H     H_    0.258708 0.610979 0.962213 0.212271
H18   H     H_    0.097418 0.711637 0.937616 0.182935
H19   H     H_    0.240353 0.732374 0.888147 0.162251
H20   H     H_    0.201944 0.781076 0.980624 0.152983
H21   H     H_    0.684159 0.375016 0.902620 0.119541
H22   H     H_    0.775235 0.442415 0.960211 0.168297
H23   H     H_    0.658785 0.568937 0.711417 0.138391
H24   H     H_    0.769819 0.269506 0.983536 0.175853
H25   H     H_    0.868903 0.333059 0.039379 0.217299
H26   H     H_    0.690626 0.397844 0.097248 0.164427
H27   H     H_    0.680463 0.297896 0.116268 0.156540
H28   H     H_    0.585428 0.339865 0.037216 0.150239
H29   H     H_    0.358741 0.796350 0.289527 0.193292
H30   H     H_    0.297323 0.741530 0.368432 0.129387
H31   H     H_    0.158469 0.804470 0.215392 0.166836
H32   H     H_    0.086174 0.749499 0.293627 0.153416
H33   H     H_    0.143243 0.847417 0.396988 0.158993
H34   H     H_    0.388469 0.402171 0.288332 0.133544
H35   H     H_    0.051000 0.885986 0.314500 0.172293
H36   H     H_    0.214434 0.903320 0.318247 0.171343
H37   H     H_    0.608866 0.294147 0.686175 0.154991
H38   H     H_    0.602538 0.353719 0.774659 0.121146
H39   H     H_    0.594407 0.180889 0.766064 0.198670
H40   H     H_    0.634573 0.228939 0.859188 0.185657
H41   H     H_    0.438486 0.297125 0.858692 0.141847
H42   H     H_    0.409660 0.197460 0.847880 0.186926
H43   H     H_    0.395836 0.258837 0.760300 0.168234
H44   H     H_    0.341337 0.430747 0.708853 0.127642
H45   H     H_    0.611693 0.597969 0.291428 0.123663
H46   H     H_    0.336698 0.431846 0.859213 0.138295
H47   H     H_    0.612185 0.601070 0.140978 0.109190
H48   H     H_    0.200246 0.640773 0.394627 0.106935
I1    I     I_    0.599178 0.901200 0.321090 -0.444131
I2    I     I_    0.362077 0.096221 0.662577 -0.434208
I3    I     I_    0.105776 0.444482 0.104017 -0.381763
I4    I     I_    0.982577 0.543413 0.899238 -0.442533
N1    N     N_R   0.499970 0.499970 0.701220 -0.226184
N2    N     N_R   0.500030 0.500030 0.298780 -0.225345
O1    O     O_R   0.499990 0.391240 0.567930 -0.518415
O2    O     O_3   0.874958 0.370715 0.886884 -0.506080
O3    O     O_3   0.312892 0.689976 0.253808 -0.555948
O4    O     O_3   0.768529 0.294872 0.756098 -0.539618
O5    O     O_R   0.500010 0.608760 0.432070 -0.503624
O6    O     O_R   0.500000 0.391270 0.432120 -0.504969
O7    O     O_R   0.500000 0.608730 0.567880 -0.496086
O8    O     O_R   0.319640 0.499990 0.567910 -0.514557
O9    O     O_R   0.680360 0.500010 0.432090 -0.513050
O10   O     O_R   0.319650 0.500020 0.432090 -0.487404
O11   O     O_R   0.680350 0.499980 0.567910 -0.503257
O12   O     O_3   0.267288 0.597251 0.123531 -0.525849

loop_
_geom_bond_atom_site_label_1
_geom_bond_atom_site_label_2
_ccdc_geom_bond_type
C57   H43   S    
C34   C56   A    
C23   C45   A    
C54   O4    S    
C53   H33   S    
C49   H25   S    
C6    H13   S    
C39   C41   A    
C15   C19   A    
C29   O3    S    
C55   H40   S    
C17   C23   S    
C23   C42   A    
Cu1   O8    S    
C44   H15   S    
C35   C37   A    
C24   C26   A    
C8    I2    S    
C46   H17   S    
C58   C60   A    
C40   O12   S    
C33   C36   A    
C9    C58   A    
C47   H20   S    
Cu2   O10   S    
C44   H14   S    
C14   C18   A    
C1    O6    A    
C3    C12   S    
C16   C34   S    
C46   C47   S    
C50   H28   S    
C12   O5    A    
C43   H6    S    
C22   C25   A    
Cu1   N1    S    
C51   O3    S    
C31   C33   A    
C30   C41   A    
C52   H32   S    
C41   O2    S    
C30   C32   A    
C50   H26   S    
C51   H29   S    
C3    C60   A    
C33   C56   S    
C54   H38   S    
C47   H18   S    
C21   N2    A    
C2    H10   S    
C44   C46   S    
C20   H44   S    
C57   H41   S    
C18   H23   S    
C34   C43   A    
Cu1   O1    S    
C51   C52   S    
C32   C35   A    
C32   H2    S    
C4    C6    A    
C5    C7    A    
C38   I3    S    
C2    C59   A    
C17   O11   A    
C15   C26   A    
C48   O2    S    
C60   H9    S    
C53   H35   S    
C48   H22   S    
C2    C4    A    
Cu2   N2    S    
C51   H30   S    
C20   N1    A    
C9    C11   S    
C50   H27   S    
C39   I4    S    
C37   H4    S    
C52   H31   S    
Cu1   O11   S    
C1    O1    A    
C42   C56   A    
C43   C45   A    
C21   H45   S    
C8    C10   A    
C48   C49   S    
C20   C22   A    
C55   C57   S    
C42   H5    S    
C54   H37   S    
C35   C45   S    
Cu2   O6    S    
C52   C53   S    
C46   H16   S    
C7    C9    A    
C57   H42   S    
C54   C55   S    
C44   O12   S    
C36   H3    S    
C49   H24   S    
C24   H47   S    
C3    C5    A    
C10   C13   S    
C18   N1    A    
Cu2   O9    S    
C6    C8    A    
C58   H7    S    
C53   H36   S    
C25   C27   S    
C55   H39   S    
C26   C28   S    
C48   H21   S    
Cu1   O7    S    
C1    C4    S    
C36   C38   A    
C10   C59   A    
C16   O8    A    
C29   C31   A    
C38   C40   A    
C11   C13   T    
C17   O9    A    
C12   O7    A    
C30   O4    S    
C19   N2    A    
C22   H46   S    
C14   H1    S    
C29   C40   A    
C31   H48   S    
C7    I1    S    
C47   H19   S    
C14   C25   A    
C5    H11   S    
Cu1   Cu2   S    
C59   H8    S    
C15   H12   S    
C37   C39   A    
C49   C50   S    
C21   C24   A    
C27   C28   T    
C16   O10   A    
Cu2   O5    S    
C19   H34   S    
