data_mof_unit_50722.cif
_audit_creation_date              2013-03-05T15:55:22-0500
_audit_creation_method            fapswitch 2.2
_symmetry_space_group_name_H-M    P1
_symmetry_Int_Tables_number       1
_space_group_crystal_system       triclinic
_cell_length_a                    27.726639
_cell_length_b                    10.700673
_cell_length_c                    9.910552
_cell_angle_alpha                 88.058095
_cell_angle_beta                  89.045118
_cell_angle_gamma                 92.811564
_cell_volume                      2934.67745226

loop_
_atom_site_label
_atom_site_type_symbol
_atom_site_description
_atom_site_fract_x
_atom_site_fract_y
_atom_site_fract_z
_atom_type_partial_charge
O1    O     O_R   0.500000 0.316780 0.614690 -0.657037
O2    O     O_R   0.500000 0.316750 0.385360 -0.655538
C1    C     C_R   0.501453 0.259371 0.503161 0.851040
O3    O     O_R   0.428760 0.500030 0.614650 -0.645564
O4    O     O_R   0.428750 0.500010 0.385320 -0.627117
C2    C     C_R   0.406098 0.499109 0.500999 0.870404
Zn1   Zn    Zn3+2 0.500000 0.500020 0.653130 0.951998
Zn2   Zn    Zn3+2 0.500000 0.499980 0.346870 1.044422
O5    O     O_R   0.500000 0.683250 0.614640 -0.624300
O6    O     O_R   0.500000 0.683220 0.385310 -0.543316
O7    O     O_R   0.571250 0.499990 0.614680 -0.632283
O8    O     O_R   0.571240 0.499970 0.385350 -0.545391
C3    C     C_R   0.494563 0.738031 0.498541 0.914954
C4    C     C_R   0.593782 0.499366 0.499253 0.910944
C5    C     C_R   0.175273 0.380619 0.539221 0.582423
O9    O     O_2   0.198099 0.274147 0.565465 -0.523884
N1    N     N_R   0.201487 0.489657 0.509756 -0.345911
C6    C     C_R   0.179986 0.600032 0.485777 0.589362
C7    C     C_R   0.277774 0.501761 0.626176 -0.145108
C8    C     C_R   0.327850 0.504922 0.625146 -0.182932
C9    C     C_R   0.328292 0.482087 0.382085 -0.251785
C10   C     C_R   0.278002 0.477850 0.382389 0.497287
C11   C     C_R   0.252821 0.488832 0.505658 0.167209
C12   C     C_R   0.101598 0.491088 0.513092 -0.048292
C13   C     C_R   0.124796 0.379113 0.540893 -0.025410
C14   C     C_R   0.097321 0.268493 0.569539 -0.113804
C15   C     C_R   0.129633 0.602742 0.486115 -0.033907
C16   C     C_R   0.353396 0.495762 0.502937 -0.124383
H1    H     H_    0.347867 0.474383 0.287574 0.227065
H2    H     H_    0.114368 0.181720 0.593606 0.193687
C17   C     C_R   0.646209 0.496958 0.498652 -0.045012
C18   C     C_R   0.971861 0.376443 0.526546 0.047490
C19   C     C_R   0.976630 0.606601 0.490968 0.048565
C20   C     C_R   0.949025 0.491509 0.507220 0.072687
C21   C     C_R   0.942707 0.264011 0.534980 -0.209264
C22   C     C_R   0.892793 0.265126 0.530506 -0.128783
C23   C     C_R   0.870015 0.378036 0.516371 -0.021962
C24   C     C_R   0.897941 0.491495 0.504070 -0.050893
C25   C     C_R   0.874648 0.604966 0.488672 -0.023659
C26   C     C_R   0.824212 0.602889 0.485753 0.513395
N2    N     N_R   0.797936 0.491655 0.499055 -0.356275
C27   C     C_R   0.819624 0.380259 0.514076 0.509293
C28   C     C_R   0.720740 0.438774 0.393772 -0.085906
C29   C     C_R   0.670655 0.440442 0.393814 -0.138982
C30   C     C_R   0.672112 0.549014 0.605179 -0.194193
C31   C     C_R   0.722126 0.546682 0.605383 -0.086144
C32   C     C_R   0.746506 0.492255 0.499345 0.291633
O10   O     O_2   0.792431 0.272304 0.528228 -0.546632
C33   C     C_R   0.022838 0.377185 0.535302 0.047613
C34   C     C_R   0.050506 0.491388 0.512080 0.078764
C35   C     C_R   0.027727 0.605810 0.487400 0.045000
C36   C     C_R   0.047329 0.267343 0.567334 -0.206306
H3    H     H_    0.651038 0.395977 0.313429 0.185355
H4    H     H_    0.739578 0.395921 0.312108 0.154751
H5    H     H_    0.872092 0.176522 0.537944 0.194356
H6    H     H_    0.957237 0.172639 0.542463 0.140685
H7    H     H_    0.029007 0.178646 0.593661 0.141822
O11   O     O_2   0.207381 0.706446 0.461238 -0.504469
C37   C     C_R   0.107019 0.714014 0.458454 -0.106032
H8    H     H_    0.346473 0.515296 0.719653 0.205553
H9    H     H_    0.258169 0.510092 0.720631 0.174352
H10   H     H_    0.127872 0.800674 0.435599 0.200455
C38   C     C_R   0.951938 0.719023 0.479331 -0.209100
C39   C     C_R   0.901963 0.717880 0.477621 -0.131583
O12   O     O_2   0.801506 0.710957 0.468998 -0.540335
C40   C     C_R   0.057086 0.715736 0.458532 -0.205883
H11   H     H_    0.970003 0.810435 0.473743 0.139808
H12   H     H_    0.653735 0.592375 0.687412 0.177472
H13   H     H_    0.884802 0.806497 0.467995 0.190734
H14   H     H_    0.742035 0.587315 0.687581 0.154978
H15   H     H_    0.042793 0.804906 0.432487 0.144563
H16   H     H_    0.516791 0.118861 0.294338 0.178771
C41   C     C_R   0.490522 0.098335 0.763571 -0.232945
H17   H     H_    0.509956 0.183878 0.787956 0.199096
C42   C     C_R   0.470104 0.028365 0.873324 -0.247356
H18   H     H_    0.472005 0.065611 0.973465 0.160179
C43   C     C_R   0.447023 0.912167 0.853849 0.479281
C44   C     C_R   0.448868 0.861449 0.726052 -0.222330
H19   H     H_    0.431367 0.770259 0.712250 0.190122
C45   C     C_R   0.473680 0.927144 0.617162 0.029505
C46   C     C_R   0.488415 0.052843 0.630694 0.109109
C47   C     C_R   0.500998 0.124621 0.510143 -0.090496
C48   C     C_R   0.506617 0.066477 0.386834 -0.233533
H20   H     H_    0.509373 0.896195 0.286894 0.230473
C49   C     C_R   0.500870 0.939402 0.381041 -0.140490
C50   C     C_R   0.486530 0.869236 0.496736 -0.106108
C51   C     C_R   0.433022 0.341922 0.148262 -0.139536
H21   H     H_    0.432244 0.331157 0.255436 0.196153
C52   C     C_R   0.399294 0.266945 0.081712 -0.149735
H22   H     H_    0.373678 0.205768 0.139108 0.185068
C53   C     C_R   0.399225 0.268020 0.941966 -0.146397
H23   H     H_    0.373745 0.207209 0.890483 0.182607
C54   C     C_R   0.433070 0.343600 0.868023 -0.156189
H24   H     H_    0.433083 0.333903 0.761325 0.203926
C55   C     C_R   0.466658 0.423694 0.931965 0.152726
C56   C     C_R   0.466574 0.423572 0.076569 0.115065
N3    N     N_R   0.499540 0.498800 0.142780 -0.176548
C57   C     C_R   0.533189 0.571643 0.063843 0.501609
H25   H     H_    0.558354 0.626778 0.860414 0.208160
C58   C     C_R   0.532026 0.571511 0.921549 -0.137738
N4    N     N_R   0.499520 0.498720 0.857170 -0.161682
S1    S     S_3+6 0.247561 0.459087 0.228353 0.053860
O13   O     O_2   0.210353 0.352395 0.243788 -0.284899
O14   O     O_2   0.222872 0.577231 0.192155 -0.249149
O15   O     O_3   0.286911 0.429113 0.103843 -0.548394
H26   H     H_    0.266840 0.416009 0.023283 0.388076
S2    S     S_3+6 0.419113 0.827207 0.991743 0.033863
O16   O     O_2   0.389106 0.717025 0.944114 -0.255108
O17   O     O_2   0.457285 0.780684 0.084004 -0.331608
O18   O     O_3   0.383512 0.921017 0.077393 -0.509299
H27   H     H_    0.405615 0.969773 0.135611 0.344145
S3    S     S_3+6 0.584656 0.656159 0.125470 0.037133
O19   O     O_2   0.576091 0.721125 0.254231 -0.273268
O20   O     O_2   0.624052 0.566278 0.144933 -0.340257
O21   O     O_3   0.604021 0.766221 0.008937 -0.581461
H28   H     H_    0.635968 0.797504 0.040423 0.392854

loop_
_geom_bond_atom_site_label_1
_geom_bond_atom_site_label_2
_geom_bond_distance
_ccdc_geom_bond_type
C51   H21   1.064242 S    
C54   H24   1.066010 S    
S2    O17   1.502376 D    
N2    C27   1.366003 A    
C55   C56   1.433022 A    
C12   C15   1.408363 A    
C4    C17   1.455030 S    
C28   C29   1.389691 A    
S3    O20   1.500975 D    
N3    C57   1.397511 A    
C43   C44   1.395861 A    
Zn1   O7    2.005711 S    
C25   C39   1.394256 A    
N1    C11   1.423713 S    
C22   C23   1.394487 A    
C37   C40   1.385474 A    
O4    C2    1.297520 A    
O7    C4    1.294634 A    
C44   C45   1.417195 A    
C5    C13   1.398675 A    
O21   H28   0.990578 S    
S1    O15   1.682923 S    
N1    C6    1.364410 A    
C41   H17   1.075921 S    
C23   C27   1.399081 A    
O5    C3    1.288018 A    
O18   H27   0.990707 S    
C45   C50   1.411714 A    
C29   H3    1.082416 S    
C6    O11   1.350172 S    
C2    C16   1.459701 S    
C7    C8    1.387061 A    
C3    C50   1.431852 S    
S2    O16   1.503227 D    
C8    H8    1.083377 S    
C19   C38   1.415359 A    
C54   C55   1.407695 A    
O1    Zn1   2.010090 S    
C9    C10   1.392832 A    
C51   C56   1.410615 A    
C41   C42   1.395311 A    
C30   H12   1.083560 S    
O3    Zn1   2.017961 S    
C41   C46   1.420492 A    
S3    O19   1.494757 D    
C46   C47   1.427108 A    
C12   C34   1.416992 A    
C38   H11   1.076143 S    
C57   S3    1.779639 S    
C17   C29   1.401412 A    
C18   C21   1.415405 A    
C43   S2    1.761966 S    
C12   C13   1.408700 A    
O3    C2    1.298960 A    
C53   H23   1.082717 S    
C44   H19   1.082202 S    
C8    C16   1.401598 A    
C34   C35   1.420766 A    
C13   C14   1.394141 A    
C49   C50   1.390568 A    
C9    H1    1.082318 S    
C47   C48   1.399828 A    
O1    C1    1.283627 A    
C21   C22   1.386027 A    
C18   C20   1.420638 A    
C7    C11   1.397763 A    
C42   H18   1.083097 S    
C23   C24   1.408197 A    
C14   C36   1.386104 A    
C53   C54   1.390740 A    
C28   H4    1.082891 S    
C40   H15   1.076082 S    
Zn2   O8    2.017958 S    
C33   C36   1.415505 A    
C56   N3    1.377545 A    
C1    C47   1.440649 S    
C19   C20   1.420739 A    
N2    C32   1.426263 S    
C27   O10   1.350057 S    
C39   H13   1.083678 S    
H20   C49   1.082825 S    
S1    O14   1.502635 D    
C42   C43   1.391085 A    
C26   N2    1.366034 A    
C48   C49   1.364576 A    
C9    C16   1.403600 A    
O8    C4    1.299386 A    
C14   H2    1.083637 S    
C57   C58   1.411169 A    
C26   O12   1.350213 S    
C51   C52   1.391413 A    
Zn1   N4    2.021542 S    
S2    O18   1.682147 S    
C52   C53   1.384644 A    
C25   C26   1.398293 A    
Zn1   O5    1.984719 S    
C31   C32   1.398907 A    
C37   H10   1.083662 S    
C21   H6    1.076341 S    
C20   C24   1.417228 A    
O2    Zn2   1.984717 S    
C6    C15   1.397792 A    
C45   C46   1.397946 A    
O6    C3    1.293700 A    
O4    Zn2   2.005714 S    
C5    N1    1.364394 A    
C19   C35   1.417042 A    
O15   H26   0.990724 S    
C55   N4    1.374622 A    
C10   S1    1.769240 S    
H25   C58   1.080907 S    
O2    C1    1.302695 A    
C22   H5    1.083638 S    
C15   C37   1.393868 A    
C24   C25   1.407967 A    
C7    H9    1.083128 S    
Zn2   N3    2.023361 S    
C58   N4    1.345385 A    
S1    O13   1.502824 D    
C18   C33   1.417166 A    
C31   H14   1.082966 S    
H16   C48   1.084037 S    
C36   H7    1.076319 S    
C38   C39   1.385475 A    
C30   C31   1.388196 A    
Zn2   O6    2.010089 S    
C33   C34   1.420543 A    
C17   C30   1.402341 A    
C10   C11   1.408216 A    
C52   H22   1.082710 S    
C28   C32   1.399280 A    
C35   C40   1.415507 A    
S3    O21   1.683533 S    
C5    O9    1.349955 S    
