data_mof_unit_42191.cif
_audit_creation_date              2012-12-10T16:52:16-0500
_audit_creation_method            fapswitch 2.2
_symmetry_space_group_name_H-M    P1
_symmetry_Int_Tables_number       1
_space_group_crystal_system       triclinic
_cell_length_a                    10.993265
_cell_length_b                    10.745085
_cell_length_c                    9.755702
_cell_angle_alpha                 88.393817
_cell_angle_beta                  100.685993
_cell_angle_gamma                 93.28701
_cell_volume                      1130.35320312

loop_
_atom_site_label
_atom_site_type_symbol
_atom_type_description
_atom_site_fract_x
_atom_site_fract_y
_atom_site_fract_z
_atom_type_partial_charge
C1    C     C_R   0.517333 0.266796 0.505344 0.838823
C2    C     C_2   0.501113 0.870911 0.490686 -0.327101
C3    C     C_2   0.579066 0.074035 0.411556 0.120806
C4    C     C_2   0.563481 0.139833 0.522474 -0.197867
C5    C     C_2   0.433212 0.419662 0.910903 0.030379
C6    C     C_2   0.421689 0.430817 0.063094 0.039055
C7    C     C_R   0.263509 0.503535 0.445737 0.898238
C8    C     C_R   0.500851 0.735800 0.497931 0.863258
C9    C     C_R   0.737195 0.509392 0.554064 0.802038
C10   C     C_2   0.129267 0.506933 0.423557 -0.381675
C11   C     C_2   0.072012 0.578155 0.500905 0.189452
C12   C     C_2   0.872870 0.528961 0.579005 -0.041735
C13   C     C_2   0.935975 0.570276 0.477321 -0.061696
C14   C     C_2   0.577029 0.936798 0.419513 -0.172821
Cu1   Cu    Cu3+1 0.500020 0.500020 0.638640 0.973574
Cu2   Cu    Cu3+1 0.499980 0.499980 0.361360 0.971653
H1    H     H_    0.541750 0.574436 0.900870 0.186322
H2    H     H_    0.572646 0.543539 0.119242 0.199955
H3    H     H_    0.075640 0.443430 0.348678 0.133620
H4    H     H_    0.635975 0.888987 0.362601 0.175247
H5    H     H_    0.436895 0.916374 0.542032 0.153868
N1    N     N_2   0.498650 0.498660 0.846590 -0.295125
N2    N     N_2   0.498620 0.498630 0.152710 -0.291022
O1    O     O_R   0.500020 0.321960 0.617050 -0.563601
O2    O     O_R   0.499980 0.321920 0.382890 -0.551756
O3    O     O_R   0.320700 0.500020 0.574050 -0.560932
O4    O     O_R   0.320660 0.499980 0.339890 -0.567153
O5    O     O_R   0.500020 0.678080 0.617110 -0.566010
O6    O     O_R   0.499980 0.678040 0.382950 -0.569585
O7    O     O_R   0.679340 0.500020 0.660110 -0.552150
O8    O     O_R   0.679300 0.499980 0.425950 -0.575837
C15   C     C_R   0.874931 0.616040 0.338265 0.147327
C16   C     C_R   0.854962 0.743399 0.317236 -0.129701
C17   C     C_R   0.809582 0.789959 0.183577 -0.153454
C18   C     C_R   0.784992 0.709909 0.070014 -0.115423
C19   C     C_R   0.804423 0.582799 0.090535 -0.153179
C20   C     C_R   0.848259 0.535612 0.224379 -0.110598
H6    H     H_    0.876377 0.806727 0.403923 0.144449
H7    H     H_    0.794872 0.888325 0.168478 0.143488
H8    H     H_    0.750447 0.745977 0.966289 0.146570
H9    H     H_    0.783450 0.520426 0.003184 0.176550
H10   H     H_    0.861788 0.436823 0.239391 0.139389
C21   C     C_R   0.314367 0.360133 0.106569 0.189175
C22   C     C_R   0.323051 0.235363 0.152728 -0.103044
C23   C     C_R   0.219032 0.166120 0.181690 -0.146647
C24   C     C_R   0.104076 0.219332 0.159770 -0.141307
C25   C     C_R   0.093063 0.341140 0.107314 -0.148633
C26   C     C_R   0.197546 0.411452 0.080640 -0.110740
H11   H     H_    0.409508 0.190630 0.163465 0.164071
H12   H     H_    0.227296 0.070627 0.219087 0.148841
H13   H     H_    0.023394 0.165907 0.182137 0.144886
H14   H     H_    0.003496 0.381291 0.088164 0.164456
H15   H     H_    0.187842 0.505910 0.040090 0.164715
I1    I     I_    0.166506 0.727359 0.625367 -0.423826
I2    I     I_    0.961135 0.495351 0.787365 -0.488852
I3    I     I_    0.671904 0.157792 0.255711 -0.529269
C27   C     C_R   0.646156 0.112705 0.658082 0.136526
C28   C     C_R   0.767273 0.167926 0.684528 -0.106840
C29   C     C_R   0.846525 0.145654 0.811451 -0.120947
C30   C     C_R   0.805581 0.068656 0.913104 -0.078868
C31   C     C_R   0.685452 0.013848 0.887912 -0.144953
C32   C     C_R   0.606508 0.035170 0.760950 -0.130085
H16   H     H_    0.800122 0.228301 0.606785 0.133409
H17   H     H_    0.939478 0.188355 0.831450 0.161704
H18   H     H_    0.866764 0.051735 0.011340 0.132277
H19   H     H_    0.652578 0.955423 0.966900 0.138514
H20   H     H_    0.514584 0.992080 0.744919 0.124863
C33   C     C_R   0.357188 0.316562 0.833364 0.191669
C34   C     C_R   0.392182 0.193144 0.857292 -0.169721
C35   C     C_R   0.310214 0.093819 0.804570 -0.148120
C36   C     C_R   0.194509 0.117093 0.724405 -0.102455
C37   C     C_R   0.158338 0.239384 0.702062 -0.169615
C38   C     C_R   0.237647 0.337857 0.760826 -0.078945
H21   H     H_    0.480296 0.174111 0.922409 0.156540
H22   H     H_    0.335083 0.998584 0.827842 0.151967
H23   H     H_    0.131711 0.040360 0.682709 0.163457
H24   H     H_    0.067431 0.257642 0.643041 0.152299
H25   H     H_    0.205593 0.431189 0.752433 0.187861

loop_
_geom_bond_atom_site_label_1
_geom_bond_atom_site_label_2
_ccdc_geom_bond_type
C22   H11   S    
C7    C10   S    
C13   C15   S    
C18   C19   A    
Cu1   O5    S    
C27   C32   A    
C23   C24   A    
Cu2   O8    S    
C29   H17   S    
C7    O3    A    
C32   H20   S    
C8    O6    A    
C19   C20   A    
C5    C6    S    
Cu1   Cu2   S    
C28   H16   S    
C7    O4    A    
C17   C18   A    
C20   H10   S    
C31   H19   S    
Cu1   N1    S    
C5    N1    D    
C33   C34   A    
C4    C27   S    
C38   H25   S    
C35   C36   A    
C21   C26   A    
C33   C38   A    
Cu2   O4    S    
C29   C30   A    
C1    O2    A    
C19   H9    S    
C34   C35   A    
C5    C33   S    
C26   H15   S    
C17   H7    S    
C14   H4    S    
Cu1   O3    S    
Cu2   O6    S    
C24   H13   S    
H2    N2    S    
C30   C31   A    
C21   C22   A    
C37   H24   S    
C3    I3    S    
C25   C26   A    
C10   H3    S    
C2    H5    S    
C16   C17   A    
C34   H21   S    
C15   C20   A    
C3    C14   S    
C11   I1    S    
C9    O7    A    
Cu1   O1    S    
C30   H18   S    
Cu2   N2    S    
C6    C21   S    
C8    O5    A    
C3    C4    D    
C22   C23   A    
Cu1   O7    S    
Cu2   O2    S    
C24   C25   A    
C2    C8    S    
C16   H6    S    
C37   C38   A    
C25   H14   S    
H1    N1    S    
C1    C4    S    
C15   C16   A    
C18   H8    S    
C28   C29   A    
C36   C37   A    
C11   C13   S    
C27   C28   A    
C36   H23   S    
C23   H12   S    
C6    N2    D    
C31   C32   A    
C2    C14   D    
C9    C12   S    
C12   I2    S    
C10   C11   D    
C9    O8    A    
C12   C13   D    
C1    O1    A    
C35   H22   S    
