data_mof_unit_55436.cif
_audit_creation_date              2012-12-11T15:42:43-0500
_audit_creation_method            fapswitch 2.2
_symmetry_space_group_name_H-M    P1
_symmetry_Int_Tables_number       1
_space_group_crystal_system       triclinic
_cell_length_a                    6.933071
_cell_length_b                    14.562017
_cell_length_c                    16.222386
_cell_angle_alpha                 90.462968
_cell_angle_beta                  90.189205
_cell_angle_gamma                 89.747253
_cell_volume                      1637.72580272

loop_
_atom_site_label
_atom_site_type_symbol
_atom_type_description
_atom_site_fract_x
_atom_site_fract_y
_atom_site_fract_z
_atom_type_partial_charge
O1    O     O_R   0.505810 0.583360 0.413880 -0.541108
O2    O     O_R   0.175870 0.595480 0.585520 -0.541393
O3    O     O_R   0.005540 0.416640 0.586120 -0.543264
C1    C     C_R   0.344914 0.617671 0.614660 0.692898
O4    O     O_R   0.176100 0.594390 0.414490 -0.535873
O5    O     O_R   0.005770 0.415540 0.413870 -0.543321
C2    C     C_R   0.343746 0.616261 0.385530 0.736418
O6    O     O_R   0.505580 0.584460 0.586130 -0.541129
O7    O     O_3   0.339190 0.441320 0.500000 -0.374769
V1    V     V_3+5 0.064350 0.510890 0.500000 1.426553
O8    O     O_R   0.676050 0.404520 0.414480 -0.547532
C3    C     C_R   0.845197 0.382338 0.385774 0.700198
O9    O     O_R   0.675830 0.405610 0.585510 -0.541139
C4    C     C_R   0.845429 0.383701 0.613728 0.742090
V2    V     V_3+5 0.564340 0.489110 0.500000 1.411430
O10   O     O_3   0.839370 0.558680 0.500000 -0.366583
C5    C     C_2   0.720352 0.209113 0.785621 -0.125000
C6    C     C_2   0.885200 0.181692 0.822587 -0.303641
C7    C     C_2   0.708691 0.277515 0.717659 -0.130336
C8    C     C_2   0.862352 0.315587 0.680609 -0.306260
H1    H     H_    0.564688 0.296527 0.697272 0.135460
H2    H     H_    0.007592 0.297333 0.699111 0.129343
C9    C     C_R   0.041177 0.208149 0.231180 -0.189623
H3    H     H_    0.178240 0.176572 0.217103 0.161165
C10   C     C_R   0.032259 0.272624 0.295527 -0.145016
H4    H     H_    0.163628 0.289397 0.328563 0.134121
C11   C     C_R   0.855983 0.313985 0.317488 -0.113268
C12   C     C_R   0.689565 0.289838 0.273239 -0.170281
C13   C     C_R   0.696673 0.224788 0.209364 0.349924
C14   C     C_R   0.875094 0.183318 0.186561 -0.128295
C15   C     C_R   0.188297 0.723656 0.719008 -0.148959
H5    H     H_    0.047406 0.705599 0.695066 0.117799
C16   C     C_R   0.199698 0.785822 0.785325 -0.145183
C17   C     C_R   0.379425 0.811472 0.819020 -0.046665
C18   C     C_R   0.547405 0.773085 0.784318 -0.148393
C19   C     C_R   0.536003 0.710916 0.718003 -0.144579
H6    H     H_    0.668740 0.682786 0.693259 0.119732
C20   C     C_R   0.356277 0.685272 0.684304 -0.048245
C21   C     C_R   0.194908 0.742439 0.296149 0.364596
C22   C     C_R   0.214559 0.806987 0.233298 -0.194255
H7    H     H_    0.093910 0.852175 0.220463 0.146505
C23   C     C_R   0.384640 0.813495 0.186937 -0.206024
C24   C     C_R   0.541095 0.754460 0.207220 0.366739
C25   C     C_R   0.521435 0.689904 0.270066 -0.189031
H8    H     H_    0.642082 0.644717 0.282905 0.150172
C26   C     C_R   0.351332 0.683379 0.316412 -0.206559
O11   O     O_R   0.230120 0.912300 0.917180 -0.543127
O12   O     O_R   0.559740 0.902430 0.088770 -0.539562
O13   O     O_R   0.729930 0.081310 0.089370 -0.533779
C27   C     C_R   0.392139 0.880567 0.117784 0.722667
O14   O     O_R   0.559840 0.901330 0.917750 -0.542888
O15   O     O_R   0.730030 0.080210 0.917120 -0.537385
C28   C     C_R   0.390790 0.879101 0.888641 0.687589
O16   O     O_R   0.230020 0.913400 0.089430 -0.543017
O17   O     O_3   0.396460 0.055470 0.003290 -0.361172
V3    V     V_3+5 0.671360 0.985960 0.003250 1.443129
O18   O     O_R   0.059740 0.091300 0.917690 -0.544638
C29   C     C_R   0.890664 0.113198 0.889485 0.746767
O19   O     O_R   0.059640 0.092400 0.088720 -0.541073
C30   C     C_R   0.889686 0.114764 0.117661 0.705211
V4    V     V_3+5 0.171350 0.007820 0.003190 1.434491
O20   O     O_3   0.896380 0.938200 0.003220 -0.370971
H9    H     H_    0.584235 0.180722 0.806108 0.137177
H10   H     H_    0.066962 0.813955 0.810066 0.118850
H11   H     H_    0.688296 0.791148 0.808256 0.117591
O21   O     O_3   0.022541 0.740820 0.337610 -0.636821
H12   H     H_    0.968467 0.678739 0.328446 0.298405
O22   O     O_3   0.713499 0.756108 0.165787 -0.633039
H13   H     H_    0.767423 0.818232 0.174876 0.295295
H14   H     H_    0.022894 0.209403 0.804079 0.128941
H15   H     H_    0.551872 0.321021 0.288440 0.136286
O23   O     O_3   0.527067 0.204576 0.169555 -0.641003
H16   H     H_    0.499002 0.139683 0.182904 0.276659

loop_
_geom_bond_atom_site_label_1
_geom_bond_atom_site_label_2
_ccdc_geom_bond_type
C6    H14   S    
O17   V3    S    
C7    C8    D    
C1    O6    A    
C27   O16   A    
O13   C30   A    
C12   C13   A    
C7    H1    S    
O14   V3    S    
O5    C3    A    
C18   H11   S    
V2    O10   S    
C17   C18   A    
O8    V2    S    
C6    C29   S    
C18   C19   A    
C24   O22   S    
C14   C30   S    
C9    H3    S    
C15   C16   A    
O1    V2    S    
O7    V1    S    
O11   C28   A    
C13   O23   S    
C22   C23   A    
O21   H12   S    
O19   C30   A    
O9    C4    A    
C25   C26   A    
C5    C6    D    
O19   V4    S    
C3    C11   S    
C2    C26   S    
C4    C8    S    
C21   C22   A    
O4    C2    A    
O22   H13   S    
C10   H4    S    
O14   C28   A    
O2    C1    A    
C24   C25   A    
C9    C14   A    
O11   V4    S    
C13   C14   A    
C15   H5    S    
C16   C17   A    
O3    C4    A    
O15   C29   A    
C23   C27   S    
C21   C26   A    
C22   H7    S    
C8    H2    S    
O6    V2    S    
O9    V2    S    
C21   O21   S    
V3    O20   S    
C12   H15   S    
C23   C24   A    
O2    V1    S    
C25   H8    S    
O12   V3    S    
C19   H6    S    
O1    C2    A    
C1    C20   S    
O23   H16   S    
O5    V1    S    
O8    C3    A    
O18   V4    S    
O16   V4    S    
C10   C11   A    
O13   V3    S    
C15   C20   A    
C19   C20   A    
O7    V2    S    
O4    V1    S    
O3    V1    S    
V1    O10   S    
C5    H9    S    
O18   C29   A    
C16   H10   S    
O17   V4    S    
O12   C27   A    
C5    C7    S    
C9    C10   A    
V4    O20   S    
C17   C28   S    
C11   C12   A    
O15   V3    S    
