data_mof_unit_13274.cif
_audit_creation_date              2012-12-11T15:57:49-0500
_audit_creation_method            fapswitch 2.2
_symmetry_space_group_name_H-M    P1
_symmetry_Int_Tables_number       1
_space_group_crystal_system       triclinic
_cell_length_a                    10.769742
_cell_length_b                    10.721648
_cell_length_c                    17.005156
_cell_angle_alpha                 99.819088
_cell_angle_beta                  99.635394
_cell_angle_gamma                 61.153299
_cell_volume                      1686.46932392

loop_
_atom_site_label
_atom_site_type_symbol
_atom_type_description
_atom_site_fract_x
_atom_site_fract_y
_atom_site_fract_z
_atom_type_partial_charge
C1    C     C_R   0.356776 0.772115 0.400598 0.569996
C2    C     C_2   0.293075 0.283574 0.801351 0.222531
C3    C     C_2   0.316510 0.179055 0.740588 -0.082542
C4    C     C_R   0.371580 0.347435 0.356514 0.580391
C5    C     C_2   0.358468 0.184308 0.664318 0.224324
C6    C     C_1   0.846431 0.328685 0.704946 -0.016614
C7    C     C_1   0.893633 0.293216 0.771340 -0.024121
C8    C     C_1   0.340110 0.807859 0.709451 -0.009070
C9    C     C_1   0.314093 0.835394 0.777542 -0.021425
C10   C     C_R   0.971514 0.277850 0.096772 0.602116
C11   C     C_R   0.320082 0.301735 0.119023 0.574728
C12   C     C_2   0.974231 0.280158 0.183116 0.187676
C13   C     C_R   0.294582 0.891080 0.083633 0.552567
C14   C     C_R   0.943635 0.272898 0.853674 0.530399
C15   C     C_R   0.278619 0.253991 0.878330 0.512205
C16   C     C_R   0.775497 0.377267 0.404347 0.539211
C17   C     C_R   0.279029 0.883590 0.857000 0.534433
C18   C     C_R   0.358653 0.768736 0.627354 0.571028
C19   C     C_R   0.363922 0.343180 0.577471 0.579167
C20   C     C_R   0.777478 0.378792 0.628956 0.540921
C21   C     C_1   0.347810 0.339266 0.273042 0.082278
C22   C     C_1   0.335269 0.330550 0.202127 0.071974
C23   C     C_2   0.953351 0.184864 0.214421 -0.130391
C24   C     C_2   0.833004 0.341132 0.328225 -0.040450
C25   C     C_2   0.915828 0.208065 0.297061 -0.129760
C26   C     C_2   0.340816 0.838261 0.329768 -0.013563
C27   C     C_2   0.351387 0.814985 0.155102 0.207863
C28   C     C_2   0.433693 0.850686 0.213932 0.208747
C29   C     C_2   0.456255 0.805331 0.292863 0.285305
C30   C     C_2   0.297325 0.308922 0.632182 -0.035325
Cl1   Cl    Cl    0.496634 0.025166 0.622697 -0.546628
Cl2   Cl    Cl    0.015563 0.409686 0.243849 -0.624154
Cl3   Cl    Cl    0.513618 0.958215 0.206872 -0.571427
Cr1   Cr    Cr6+3 0.608020 0.610770 0.522990 1.145159
Cr2   Cr    Cr6+3 0.289390 0.599570 0.488050 1.086005
Cr3   Cr    Cr6+3 0.602610 0.289690 0.489020 1.105414
Cr4   Cr    Cr6+3 0.053780 0.052210 0.965970 1.052494
Cr5   Cr    Cr6+3 0.060060 0.372530 0.992430 1.072969
Cr6   Cr    Cr6+3 0.372600 0.061970 0.991430 1.087379
H1    H     H_    0.948849 0.094465 0.176509 0.149302
H2    H     H_    0.200529 0.397021 0.654504 0.128360
H3    H     H_    0.943396 0.116710 0.328566 0.144673
H4    H     H_    0.793747 0.431030 0.293467 0.186256
H5    H     H_    0.233813 0.898994 0.301243 0.082263
H6    H     H_    0.322141 0.079339 0.750802 0.085844
H7    H     H_    0.291379 0.463702 0.846699 0.352603
H8    H     H_    0.661727 0.709487 0.288797 0.364421
H9    H     H_    0.254979 0.698552 0.117699 0.347096
O1    O     O_R   0.749250 0.499990 0.439200 -0.459313
O2    O     O_R   0.411120 0.181190 0.091480 -0.452476
O3    O     O_R   0.364220 0.944920 0.062310 -0.451130
O4    O     O_R   0.477870 0.725740 0.440280 -0.417715
O5    O     O_R   0.158740 0.906940 0.874970 -0.499506
O6    O     O_R   0.930920 0.176940 0.885610 -0.461502
O7    O     O_R   0.910730 0.394510 0.895320 -0.487600
O8    O     O_R   0.185840 0.361180 0.920280 -0.517618
O9    O     O_R   0.399210 0.173040 0.915160 -0.481358
O10   O     O_R   0.353170 0.937370 0.898860 -0.513780
O11   O     O_3   0.162150 0.162240 0.983280 -0.346833
O12   O     O_R   0.299400 0.468710 0.556310 -0.507764
O13   O     O_R   0.260770 0.742210 0.412610 -0.511782
O14   O     O_R   0.297990 0.466320 0.394220 -0.481242
O15   O     O_R   0.487720 0.253870 0.385870 -0.485744
O16   O     O_R   0.721940 0.304340 0.422320 -0.506511
O17   O     O_R   0.750770 0.502570 0.614050 -0.494728
O18   O     O_R   0.479280 0.728140 0.602370 -0.451140
O19   O     O_R   0.262290 0.744790 0.587460 -0.509811
O20   O     O_3   0.300862 0.406144 0.793733 -0.704743
O21   O     O_3   0.593843 0.728793 0.327688 -0.640134
O22   O     O_3   0.308550 0.717486 0.167515 -0.740120
O23   O     O_R   0.489240 0.256450 0.560730 -0.435684
O24   O     O_R   0.723350 0.306730 0.584410 -0.488844
O25   O     O_3   0.500010 0.500010 0.500020 -0.298543
O26   O     O_R   0.170650 0.915100 0.051290 -0.535470
O27   O     O_R   0.941960 0.184500 0.049060 -0.506537
O28   O     O_R   0.922640 0.402670 0.071640 -0.441940
O29   O     O_R   0.196880 0.368740 0.083740 -0.493055

loop_
_geom_bond_atom_site_label_1
_geom_bond_atom_site_label_2
_ccdc_geom_bond_type
Cr6   O3    S    
Cr4   O26   S    
C19   O23   A    
Cr1   O18   S    
C26   H5    S    
Cr5   O28   S    
C12   C23   D    
C28   C29   S    
C2    O20   S    
C23   H1    S    
Cr6   O9    S    
C4    O14   A    
H8    O21   S    
C11   O29   A    
C13   O3    A    
C10   O28   A    
C7    C14   S    
Cr5   O7    S    
C8    C9    T    
C30   H2    S    
Cr3   O15   S    
Cr3   O23   S    
C17   O10   A    
Cr4   O5    S    
C14   O7    A    
Cr4   O27   S    
C16   C24   S    
C21   C22   T    
C12   Cl2   S    
C15   O9    A    
Cr1   O17   S    
C29   O21   S    
C20   O17   A    
C24   C25   D    
C18   O19   A    
Cr6   O10   S    
C3    H6    S    
C8    C18   S    
Cr2   O12   S    
H7    O20   S    
C10   O27   A    
C4    O15   A    
Cr2   O19   S    
Cr6   O11   S    
Cr2   O13   S    
C16   O1    A    
C2    C15   S    
Cr4   O11   S    
C27   O22   S    
C10   C12   S    
Cr4   O6    S    
C9    C17   S    
C14   O6    A    
C28   Cl3   S    
C1    C26   S    
C17   O5    A    
C5    C30   D    
Cr2   O25   S    
Cr1   O1    S    
C13   C27   S    
H9    O22   S    
C3    C5    S    
C1    O13   A    
C25   H3    S    
C6    C7    T    
Cr5   O29   S    
C19   O12   A    
C18   O18   A    
C6    C20   S    
C11   C22   S    
Cr1   O4    S    
C15   O8    A    
C2    C3    D    
C11   O2    A    
C4    C21   S    
Cr2   O14   S    
C23   C25   S    
C1    O4    A    
Cr3   O25   S    
Cr1   O25   S    
Cr5   O11   S    
Cr6   O2    S    
Cr5   O8    S    
C13   O26   A    
C26   C29   D    
C27   C28   D    
C24   H4    S    
C20   O24   A    
C16   O16   A    
Cr3   O16   S    
C19   C30   S    
Cr3   O24   S    
C5    Cl1   S    
