data_mof_unit_65628.cif
_audit_creation_date              2013-03-05T16:09:17-0500
_audit_creation_method            fapswitch 2.2
_symmetry_space_group_name_H-M    P1
_symmetry_Int_Tables_number       1
_space_group_crystal_system       triclinic
_cell_length_a                    37.005827
_cell_length_b                    30.377807
_cell_length_c                    21.950544
_cell_angle_alpha                 89.999771
_cell_angle_beta                  124.866455
_cell_angle_gamma                 90.000056
_cell_volume                      20246.1929491

loop_
_atom_site_label
_atom_site_type_symbol
_atom_site_description
_atom_site_fract_x
_atom_site_fract_y
_atom_site_fract_z
_atom_type_partial_charge
O1    O     O_R   0.435730 0.537200 0.935720 -0.585122
O2    O     O_R   0.564270 0.537200 0.064280 -0.585111
O3    O     O_R   0.935730 0.037200 0.935720 -0.585104
O4    O     O_R   0.064270 0.037200 0.064280 -0.585131
O5    O     O_R   0.435730 0.462800 0.935730 -0.592837
O6    O     O_R   0.564270 0.462800 0.064270 -0.592824
O7    O     O_R   0.935730 0.962800 0.935730 -0.592820
O8    O     O_R   0.064270 0.962800 0.064270 -0.592851
C1    C     C_R   0.414836 0.500046 0.914625 0.810357
C2    C     C_R   0.585163 0.500046 0.085372 0.810347
C3    C     C_R   0.914837 0.000046 0.914627 0.810326
C4    C     C_R   0.085164 0.000046 0.085379 0.810349
O9    O     O_R   0.500010 0.537200 0.910980 -0.583899
O10   O     O_R   0.499990 0.537200 0.089020 -0.583896
O11   O     O_R   0.000010 0.037200 0.910980 -0.583903
O12   O     O_R   0.999990 0.037200 0.089020 -0.583912
O13   O     O_R   0.500010 0.462800 0.910980 -0.583415
O14   O     O_R   0.499990 0.462800 0.089020 -0.583431
O15   O     O_R   0.000010 0.962800 0.910980 -0.583424
O16   O     O_R   0.999990 0.962800 0.089020 -0.583394
C5    C     C_R   0.503087 0.500256 0.885802 0.853997
C6    C     C_R   0.496913 0.500255 0.114198 0.853990
C7    C     C_R   0.003086 0.000256 0.885801 0.854164
C8    C     C_R   0.996913 0.000256 0.114199 0.854178
Cu1   Cu    Cu3+1 0.500000 0.544050 0.000000 0.977473
Cu2   Cu    Cu3+1 1.000000 0.044050 0.000000 0.977413
Cu3   Cu    Cu3+1 0.500000 0.455950 0.000000 0.946584
Cu4   Cu    Cu3+1 1.000000 0.955950 0.000000 0.946612
C9    C     C_R   1.000000 0.274215 0.500000 0.098927
C10   C     C_R   0.500000 0.774200 0.500000 0.098784
C11   C     C_R   0.013604 0.297403 0.565046 -0.164801
C12   C     C_R   0.986395 0.297403 0.434954 -0.164786
C13   C     C_R   0.513959 0.797386 0.461709 -0.164451
C14   C     C_R   0.486040 0.797386 0.538292 -0.164442
C15   C     C_R   1.000000 0.366559 0.500000 -0.030458
C16   C     C_R   0.500000 0.866550 0.500000 -0.029415
C17   C     C_R   0.013277 0.343278 0.564913 -0.180387
C18   C     C_R   0.986723 0.343278 0.435088 -0.180383
C19   C     C_R   0.513618 0.843266 0.461185 -0.180314
C20   C     C_R   0.486381 0.843266 0.538816 -0.180327
C21   C     C_2   0.527918 0.475434 0.743845 -0.206543
C22   C     C_2   0.472083 0.475434 0.256155 -0.206558
C23   C     C_2   0.027932 0.975444 0.743860 -0.207950
C24   C     C_2   0.972069 0.975443 0.256141 -0.207924
C25   C     C_2   0.494848 0.492562 0.678349 0.017522
C26   C     C_2   0.505152 0.492562 0.321651 0.017530
C27   C     C_2   0.994850 0.992545 0.678349 0.017338
C28   C     C_2   0.005150 0.992546 0.321651 0.017323
H1    H     H_    0.558011 0.464236 0.751041 0.156019
H2    H     H_    0.441989 0.464236 0.248960 0.156010
H3    H     H_    0.058037 0.964274 0.751070 0.156037
H4    H     H_    0.941965 0.964271 0.248932 0.156051
C29   C     C_2   0.523573 0.469137 0.805926 -0.169622
C30   C     C_2   0.476427 0.469137 0.194074 -0.169639
C31   C     C_2   0.023589 0.969145 0.805943 -0.169529
C32   C     C_2   0.976412 0.969144 0.194058 -0.169501
C33   C     C_2   0.510137 0.502850 0.827240 -0.321592
C34   C     C_2   0.489863 0.502850 0.172761 -0.321598
C35   C     C_2   0.010132 0.002851 0.827234 -0.322053
C36   C     C_2   0.989867 0.002851 0.172765 -0.322027
H5    H     H_    0.532399 0.437742 0.834686 0.172712
H6    H     H_    0.467601 0.437742 0.165315 0.172702
H7    H     H_    0.032434 0.937756 0.834723 0.172822
H8    H     H_    0.967568 0.937755 0.165280 0.172836
H9    H     H_    0.506768 0.535238 0.803501 0.164237
H10   H     H_    0.493232 0.535238 0.196499 0.164232
H11   H     H_    0.006745 0.035236 0.803474 0.164027
H12   H     H_    0.993253 0.035236 0.196523 0.164041
C37   C     C_R   0.297342 0.462866 0.780150 -0.224765
C38   C     C_R   0.702653 0.462895 0.219964 -0.224771
C39   C     C_R   0.797349 0.962903 0.779991 -0.224568
C40   C     C_R   0.202663 0.962835 0.219729 -0.224592
H13   H     H_    0.279826 0.432669 0.753083 0.152723
H14   H     H_    0.720166 0.432717 0.247130 0.152730
H15   H     H_    0.779838 0.932728 0.752797 0.152578
H16   H     H_    0.220182 0.932618 0.246677 0.152579
C41   C     C_R   0.343087 0.461996 0.828335 -0.173539
C42   C     C_R   0.656907 0.462021 0.171779 -0.173552
C43   C     C_R   0.843094 0.962028 0.828180 -0.173466
C44   C     C_R   0.156919 0.961969 0.171539 -0.173449
H17   H     H_    0.360162 0.431246 0.836704 0.162411
H18   H     H_    0.639829 0.431289 0.163510 0.162396
H19   H     H_    0.860174 0.931299 0.836423 0.162352
H20   H     H_    0.139848 0.931199 0.163048 0.162404
C45   C     C_R   0.366432 0.500474 0.864895 -0.091558
C46   C     C_R   0.633567 0.500474 0.135096 -0.091545
C47   C     C_R   0.866434 0.000474 0.864900 -0.091506
C48   C     C_R   0.133570 0.000473 0.135122 -0.091568
C49   C     C_R   0.343316 0.539872 0.852468 -0.239605
C50   C     C_R   0.656685 0.539851 0.147394 -0.239591
C51   C     C_R   0.843315 0.039847 0.852634 -0.239535
C52   C     C_R   0.156683 0.039895 0.147706 -0.239561
H21   H     H_    0.361154 0.569847 0.879907 0.195085
H22   H     H_    0.638848 0.569806 0.119855 0.195047
H23   H     H_    0.861151 0.069798 0.880202 0.194961
H24   H     H_    0.138843 0.069890 0.120386 0.195065
C53   C     C_R   0.297290 0.541289 0.803971 0.352818
C54   C     C_R   0.702710 0.541271 0.195885 0.352876
C55   C     C_R   0.797290 0.041268 0.804139 0.352937
C56   C     C_R   0.202709 0.041308 0.196216 0.352854
C57   C     C_R   0.274165 0.502075 0.768055 -0.029846
C58   C     C_R   0.725833 0.502082 0.231931 -0.029850
C59   C     C_R   0.774168 0.002085 0.768057 -0.029777
C60   C     C_R   0.225837 0.002067 0.231977 -0.029788
C61   C     C_R   0.202480 0.509211 0.752291 -0.096039
C62   C     C_R   0.797520 0.509152 0.247686 -0.095972
C63   C     C_R   0.702480 0.009186 0.752296 -0.095733
C64   C     C_R   0.297519 0.009331 0.247764 -0.095879
H25   H     H_    0.219801 0.516478 0.810949 0.136293
H26   H     H_    0.780201 0.516369 0.189013 0.136320
H27   H     H_    0.719799 0.016428 0.810961 0.136283
H28   H     H_    0.280196 0.016694 0.189138 0.136212
C65   C     C_R   0.156620 0.508670 0.707792 -0.176055
C66   C     C_R   0.843380 0.508609 0.292188 -0.176050
C67   C     C_R   0.656620 0.008643 0.707797 -0.174340
C68   C     C_R   0.343380 0.008790 0.292255 -0.174356
H29   H     H_    0.139241 0.515690 0.733017 0.154691
H30   H     H_    0.860759 0.515579 0.266949 0.154721
H31   H     H_    0.639242 0.015640 0.733030 0.154897
H32   H     H_    0.360757 0.015909 0.267060 0.154821
C69   C     C_R   0.133582 0.499771 0.631457 -0.036102
C70   C     C_R   0.866417 0.499771 0.368541 -0.036136
C71   C     C_R   0.633582 0.999771 0.631455 -0.035555
C72   C     C_R   0.366420 0.999769 0.368550 -0.035472
C73   C     C_R   0.157221 0.490814 0.600613 -0.178649
C74   C     C_R   0.842776 0.490877 0.399400 -0.178662
C75   C     C_R   0.657221 0.990842 0.600602 -0.180364
C76   C     C_R   0.342786 0.990689 0.399362 -0.180338
H33   H     H_    0.140261 0.483580 0.542038 0.154398
H34   H     H_    0.859735 0.483691 0.457990 0.154418
H35   H     H_    0.640261 0.983626 0.542021 0.153228
H36   H     H_    0.359751 0.983355 0.457905 0.153163
C77   C     C_R   0.203151 0.490939 0.645399 -0.133853
C78   C     C_R   0.796846 0.491004 0.354613 -0.133933
C79   C     C_R   0.703151 0.990973 0.645386 -0.133942
C80   C     C_R   0.296856 0.990811 0.354582 -0.133741
H37   H     H_    0.221000 0.484142 0.620915 0.136563
H38   H     H_    0.778997 0.484257 0.379109 0.136560
H39   H     H_    0.720999 0.984200 0.620894 0.136324
H40   H     H_    0.279010 0.983916 0.379039 0.136323
C81   C     C_R   0.225873 0.500622 0.721169 0.148565
C82   C     C_R   0.774125 0.500627 0.278823 0.148553
C83   C     C_R   0.725875 0.000631 0.721166 0.148653
C84   C     C_R   0.274129 0.000617 0.278853 0.148693
H41   H     H_    0.023961 0.279978 0.615639 0.134318
H42   H     H_    0.976039 0.279979 0.384362 0.134332
H43   H     H_    0.524603 0.779952 0.431511 0.134231
H44   H     H_    0.475396 0.779952 0.568489 0.134237
O17   O     O_R   0.537200 0.435730 0.537210 -0.592292
O18   O     O_R   0.462800 0.435730 0.462790 -0.592289
O19   O     O_R   0.037200 0.935730 0.537210 -0.592272
O20   O     O_R   0.962800 0.935730 0.462790 -0.592274
C85   C     C_R   0.500000 0.414875 0.500000 0.770620
C86   C     C_R   0.000000 0.914875 0.500000 0.770683
O21   O     O_R   0.537190 0.500000 0.626220 -0.604416
O22   O     O_R   0.462810 0.500000 0.373780 -0.604422
O23   O     O_R   0.037190 0.000000 0.626220 -0.606678
O24   O     O_R   0.962810 0.000000 0.373780 -0.606666
O25   O     O_R   0.462790 0.500000 0.551820 -0.555224
O26   O     O_R   0.537210 0.500000 0.448180 -0.555228
O27   O     O_R   0.962790 0.000000 0.551820 -0.553033
O28   O     O_R   0.037210 0.000000 0.448180 -0.553025
C87   C     C_R   0.499141 0.497850 0.616634 0.847190
C88   C     C_R   0.500859 0.497849 0.383366 0.847182
C89   C     C_R   0.999141 0.997845 0.616634 0.847139
C90   C     C_R   0.000859 0.997846 0.383366 0.847159
Cu5   Cu    Cu3+1 0.544050 0.500000 0.544060 0.964449
Cu6   Cu    Cu3+1 0.455950 0.500000 0.455940 0.964448
Cu7   Cu    Cu3+1 0.044050 0.000000 0.544060 0.964373
Cu8   Cu    Cu3+1 0.955950 1.000000 0.455940 0.964377
O29   O     O_R   0.537200 0.564270 0.537200 -0.586283
O30   O     O_R   0.462800 0.564270 0.462800 -0.586286
O31   O     O_R   0.037200 0.064270 0.537200 -0.586534
O32   O     O_R   0.962800 0.064270 0.462800 -0.586534
C91   C     C_R   0.500000 0.585126 0.500000 0.788650
C92   C     C_R   1.000000 0.085129 0.500000 0.788998
O33   O     O_R   0.000000 0.435740 0.448480 -0.588148
O34   O     O_R   0.000000 0.435740 0.551520 -0.588144
O35   O     O_R   0.500000 0.935740 0.448480 -0.587940
O36   O     O_R   0.500000 0.935740 0.551520 -0.587956
C93   C     C_R   1.000000 0.414900 0.500000 0.785200
C94   C     C_R   0.500000 0.914897 0.500000 0.784995
O37   O     O_R   0.064280 0.500010 0.512760 -0.584176
O38   O     O_R   0.935720 0.500010 0.487240 -0.584201
O39   O     O_R   0.564280 0.000010 0.512760 -0.586207
O40   O     O_R   0.435720 0.000010 0.487240 -0.586148
O41   O     O_R   0.064270 0.500010 0.615800 -0.590605
O42   O     O_R   0.935730 0.500010 0.384200 -0.590599
O43   O     O_R   0.564270 0.000010 0.615800 -0.588480
O44   O     O_R   0.435730 0.000010 0.384200 -0.588488
C95   C     C_R   0.085158 0.499879 0.584479 0.795597
C96   C     C_R   0.914842 0.499879 0.415521 0.795609
C97   C     C_R   0.585158 0.999878 0.584478 0.795645
C98   C     C_R   0.414843 0.999878 0.415523 0.795613
Cu9   Cu    Cu3+1 0.000010 0.500010 0.438990 0.954823
Cu10  Cu    Cu3+1 0.999990 0.500010 0.561010 0.954783
Cu11  Cu    Cu3+1 0.500010 0.000010 0.438990 0.954927
Cu12  Cu    Cu3+1 0.499990 0.000010 0.561010 0.955005
O45   O     O_R   0.000010 0.564280 0.448470 -0.585279
O46   O     O_R   0.999990 0.564280 0.551530 -0.585299
O47   O     O_R   0.500010 0.064280 0.448470 -0.585345
O48   O     O_R   0.499990 0.064280 0.551530 -0.585298
C99   C     C_R   0.000000 0.585118 0.500000 0.798387
C100  C     C_R   0.500000 0.085118 0.500000 0.798282
C101  C     C_R   0.462669 0.297376 0.444426 -0.162969
C102  C     C_R   0.537332 0.297376 0.555573 -0.162980
C103  C     C_R   0.962669 0.797376 0.444426 -0.163000
C104  C     C_R   0.037332 0.797376 0.555574 -0.162996
H45   H     H_    0.433468 0.279954 0.401361 0.138610
H46   H     H_    0.566532 0.279954 0.598638 0.138615
H47   H     H_    0.933469 0.779954 0.401361 0.138655
H48   H     H_    0.066532 0.779954 0.598639 0.138653
C105  C     C_R   0.462536 0.343250 0.444732 -0.179477
C106  C     C_R   0.537464 0.343250 0.555267 -0.179476
C107  C     C_R   0.962536 0.843250 0.444732 -0.179471
C108  C     C_R   0.037464 0.843250 0.555267 -0.179472
H49   H     H_    0.433296 0.360475 0.401373 0.153333
H50   H     H_    0.566704 0.360474 0.598627 0.153335
H51   H     H_    0.933296 0.860475 0.401372 0.153352
H52   H     H_    0.066704 0.860475 0.598627 0.153350
C109  C     C_R   0.500000 0.366532 0.500000 -0.024231
C110  C     C_R   0.000000 0.866533 0.500000 -0.024260
C111  C     C_R   0.500000 0.274187 0.499999 0.096877
C112  C     C_R   0.000000 0.774187 0.500000 0.096838
C113  C     C_R   0.013110 0.702624 0.564803 -0.157959
C114  C     C_R   0.986890 0.702625 0.435196 -0.157945
C115  C     C_R   0.513111 0.202624 0.564803 -0.157921
C116  C     C_R   0.486890 0.202625 0.435196 -0.157947
H53   H     H_    0.023073 0.720047 0.615199 0.133533
H54   H     H_    0.976927 0.720047 0.384800 0.133544
H55   H     H_    0.523073 0.220047 0.615199 0.133502
H56   H     H_    0.476927 0.220047 0.384800 0.133482
C117  C     C_R   0.012793 0.656751 0.564669 -0.169011
C118  C     C_R   0.987207 0.656751 0.435331 -0.168987
C119  C     C_R   0.512793 0.156751 0.564669 -0.168976
C120  C     C_R   0.487207 0.156751 0.435330 -0.169038
H57   H     H_    0.022939 0.639529 0.615307 0.153582
H58   H     H_    0.977061 0.639530 0.384693 0.153596
H59   H     H_    0.522940 0.139529 0.615307 0.153574
H60   H     H_    0.477060 0.139530 0.384692 0.153540
C121  C     C_R   0.000000 0.633466 0.500000 -0.030370
C122  C     C_R   0.500000 0.133465 0.500000 -0.030301
H61   H     H_    0.023808 0.360507 0.615735 0.152664
H62   H     H_    0.976191 0.360508 0.384265 0.152668
H63   H     H_    0.524416 0.860501 0.431062 0.151563
H64   H     H_    0.475584 0.860501 0.568938 0.151559
C123  C     C_R   0.000000 0.725814 0.500000 0.098441
C124  C     C_R   0.500000 0.225814 0.499999 0.098497
C125  C     C_R   0.462175 0.702644 0.481237 -0.164229
C126  C     C_R   0.537824 0.702644 0.518763 -0.164225
C127  C     C_R   0.962446 0.202655 0.445028 -0.164420
C128  C     C_R   0.037553 0.202655 0.554972 -0.164421
H65   H     H_    0.432611 0.720078 0.466201 0.133755
H66   H     H_    0.567388 0.720078 0.533800 0.133757
H67   H     H_    0.933076 0.220081 0.402441 0.133721
H68   H     H_    0.066923 0.220080 0.597559 0.133713
C129  C     C_R   0.462045 0.656764 0.480635 -0.176849
C130  C     C_R   0.537955 0.656764 0.519366 -0.176849
C131  C     C_R   0.962318 0.156780 0.445338 -0.176802
C132  C     C_R   0.037681 0.156780 0.554662 -0.176811
H69   H     H_    0.432421 0.639532 0.465749 0.154410
H70   H     H_    0.567579 0.639532 0.534252 0.154409
H71   H     H_    0.932896 0.139567 0.402454 0.154395
H72   H     H_    0.067104 0.139567 0.597546 0.154384
C133  C     C_R   0.500000 0.633477 0.500000 -0.029864
C134  C     C_R   1.000000 0.133488 0.500000 -0.029918
C135  C     C_R   0.500000 0.725830 0.500000 0.098412
C136  C     C_R   1.000000 0.225843 0.500000 0.098641
N1    N     N_3   0.451519 0.499853 0.661657 -0.571094
H73   H     H_    0.451005 0.528937 0.686406 0.222281
H74   H     H_    0.442042 0.473161 0.679615 0.244451
N2    N     N_3   0.548481 0.499853 0.338343 -0.571107
H75   H     H_    0.548995 0.528936 0.313594 0.222274
H76   H     H_    0.557958 0.473160 0.320386 0.244441
N3    N     N_3   0.951513 0.999796 0.661649 -0.569607
H77   H     H_    0.950975 0.028873 0.686390 0.223081
H78   H     H_    0.942057 0.973090 0.679613 0.244288
N4    N     N_3   0.048487 0.999799 0.338350 -0.569581
H79   H     H_    0.049023 0.028876 0.313608 0.223099
H80   H     H_    0.057944 0.973093 0.320387 0.244304
N5    N     N_R   0.274901 0.582645 0.790962 0.113962
O49   O     O_R   0.239816 0.592128 0.725726 -0.343996
O50   O     O_R   0.292273 0.613023 0.841923 -0.357156
N6    N     N_R   0.725102 0.582607 0.208758 0.113939
O51   O     O_R   0.760176 0.592152 0.273969 -0.344002
O52   O     O_R   0.707743 0.612913 0.157683 -0.357173
N7    N     N_R   0.774898 0.082600 0.791299 0.113931
O53   O     O_R   0.739848 0.092174 0.726077 -0.343749
O54   O     O_R   0.792236 0.112876 0.842427 -0.357801
N8    N     N_R   0.225094 0.082686 0.209400 0.113988
O55   O     O_R   0.260177 0.092101 0.274677 -0.343739
O56   O     O_R   0.207715 0.113143 0.158570 -0.357756

loop_
_geom_bond_atom_site_label_1
_geom_bond_atom_site_label_2
_geom_bond_distance
_ccdc_geom_bond_type
O43   Cu12  1.958038 S    
C113  C123  1.402142 A    
O45   C99   1.296383 A    
C77   H37   1.083311 S    
C17   H61   1.083172 S    
N4    H80   1.045888 S    
C47   C51   1.404146 A    
O41   Cu10  1.958038 S    
C38   C42   1.392117 A    
Cu7   Cu8   2.675894 S    
C37   C41   1.392112 A    
N3    H77   1.043012 S    
O17   Cu5   1.963437 S    
C56   C60   1.414781 A    
C40   H16   1.083667 S    
C23   H3    1.086148 S    
C42   C46   1.401320 A    
C91   C133  1.468819 S    
C72   C98   1.470264 S    
C43   C47   1.401342 A    
O23   C89   1.300911 A    
C114  C123  1.402141 A    
O19   Cu7   1.963437 S    
C7    C35   1.452632 S    
O40   Cu12  1.968614 S    
C52   C56   1.401090 A    
C13   C19   1.393776 A    
O48   C100  1.296385 A    
C132  H72   1.083140 S    
C62   C66   1.392548 A    
O40   C98   1.297907 A    
C129  H69   1.083057 S    
O26   C88   1.284436 A    
C61   C65   1.392557 A    
N6    O51   1.301337 A    
C15   C17   1.404065 A    
C75   C79   1.394627 A    
C126  C135  1.402085 A    
C9    C12   1.402287 A    
C31   C35   1.334506 D    
C76   C80   1.394626 A    
C22   C26   1.350439 D    
C27   C89   1.460232 S    
C27   N3    1.443136 S    
O19   C86   1.295376 A    
C12   H42   1.083385 S    
C74   H34   1.082903 S    
C73   C77   1.394621 A    
C72   C76   1.405264 A    
C125  H65   1.083281 S    
C52   H24   1.083083 S    
O20   Cu8   1.963436 S    
O25   Cu6   1.970889 S    
O10   C6    1.284484 A    
N8    O55   1.301369 A    
C118  H58   1.083049 S    
O26   Cu5   1.970891 S    
C120  C122  1.403989 A    
C77   C81   1.400304 A    
C102  H46   1.083268 S    
C53   N5    1.440746 S    
C56   N8    1.440767 S    
C13   H43   1.083279 S    
C37   C57   1.401576 A    
C127  C131  1.393611 A    
C115  C124  1.402142 A    
O5    Cu3   1.963148 S    
C14   H44   1.083278 S    
C34   H10   1.086651 S    
C30   H6    1.085817 S    
C48   C52   1.404239 A    
O42   Cu9   1.958038 S    
C3    C47   1.471269 S    
N2    H75   1.043012 S    
C43   H19   1.082961 S    
O18   C85   1.295377 A    
C31   H7    1.085815 S    
C38   H14   1.083606 S    
O37   Cu9   1.968616 S    
C126  H66   1.083280 S    
O38   C96   1.297941 A    
C37   H13   1.083662 S    
O25   C87   1.284434 A    
C12   C18   1.393608 A    
O4    C4    1.294899 A    
C68   C72   1.405053 A    
C68   H32   1.082936 S    
O16   Cu4   1.965297 S    
O30   C91   1.295385 A    
C80   H40   1.083296 S    
C15   C93   1.468506 S    
C128  H68   1.083382 S    
O35   C94   1.296072 A    
C35   H11   1.086655 S    
C70   C74   1.405263 A    
C102  C106  1.393578 A    
O11   C7    1.284483 A    
N7    O54   1.301459 A    
C101  C105  1.393578 A    
C103  C112  1.402154 A    
C104  C108  1.393578 A    
C19   H63   1.083063 S    
N1    H73   1.043011 S    
C44   C48   1.401415 A    
C103  H47   1.083268 S    
O9    Cu1   1.965295 S    
O6    Cu3   1.963143 S    
C130  H70   1.083060 S    
C29   H5    1.085815 S    
C5    C33   1.452629 S    
C9    C11   1.402287 A    
C76   H36   1.082921 S    
C21   H1    1.086152 S    
C104  H48   1.083266 S    
C24   H4    1.086147 S    
O36   C94   1.296069 A    
O23   Cu7   1.959678 S    
C50   H22   1.083034 S    
O44   C98   1.295292 A    
Cu9   O45   1.963438 S    
O3    Cu2   1.963155 S    
N2    H76   1.045889 S    
O12   Cu2   1.965295 S    
C39   C43   1.392121 A    
C20   H64   1.083067 S    
C67   C71   1.405069 A    
C10   C14   1.402100 A    
C44   H20   1.083003 S    
O13   Cu3   1.965293 S    
O1    C1    1.294887 A    
O16   C8    1.298082 A    
C16   C20   1.403969 A    
C15   C18   1.404064 A    
C129  C133  1.404001 A    
C50   C54   1.401078 A    
C55   C59   1.414727 A    
C46   C50   1.404132 A    
C125  C129  1.393785 A    
Cu5   Cu6   2.675894 S    
C45   C49   1.404216 A    
O15   C7    1.298083 A    
O24   Cu8   1.959681 S    
O11   Cu2   1.965295 S    
Cu5   O29   1.963433 S    
C40   C60   1.401581 A    
O6    C2    1.297328 A    
O21   C87   1.300915 A    
N5    O49   1.301366 A    
C114  H54   1.083272 S    
C54   N6    1.440657 S    
O34   Cu10  1.963490 S    
C113  H53   1.083269 S    
C101  C111  1.402153 A    
C11   C17   1.393611 A    
O13   C5    1.298078 A    
O7    Cu4   1.963148 S    
C64   H28   1.083417 S    
C67   H31   1.082933 S    
C59   C83   1.466995 S    
C100  C122  1.468685 S    
C63   C67   1.392542 A    
C85   C109  1.468548 S    
C86   C110  1.468548 S    
O7    C3    1.297326 A    
C119  C122  1.403989 A    
O5    C1    1.297338 A    
C106  C109  1.403953 A    
C107  H51   1.083055 S    
C78   C82   1.400284 A    
C105  H49   1.083057 S    
C63   H27   1.083418 S    
C42   H18   1.082944 S    
C112  C123  1.469472 S    
C127  H67   1.083382 S    
N7    O53   1.301340 A    
C101  H45   1.083270 S    
C102  C111  1.402155 A    
O8    C4    1.297349 A    
C4    C48   1.471358 S    
O18   Cu6   1.963436 S    
C61   H25   1.083426 S    
C103  C107  1.393578 A    
O22   Cu6   1.959681 S    
O9    C5    1.284484 A    
Cu10  O46   1.963436 S    
C21   C25   1.350440 D    
C111  C124  1.469472 S    
Cu11  O47   1.963438 S    
O15   Cu4   1.965293 S    
C21   C29   1.473066 S    
C6    C34   1.452629 S    
C66   H30   1.082921 S    
C16   C94   1.468682 S    
O1    Cu1   1.963155 S    
O41   C95   1.295286 A    
C22   H2    1.086150 S    
C65   H29   1.082944 S    
Cu12  O48   1.963436 S    
C117  C121  1.403988 A    
C64   C84   1.400128 A    
O20   C86   1.295377 A    
C69   C73   1.405286 A    
C28   N4    1.443135 S    
N1    H74   1.045888 S    
C73   H33   1.082926 S    
C106  H50   1.083056 S    
Cu1   Cu3   2.676282 S    
C30   C34   1.334502 D    
O47   C100  1.296381 A    
C14   C20   1.393776 A    
C1    C45   1.471316 S    
N5    O50   1.301546 A    
O27   Cu8   1.970889 S    
C132  C134  1.404222 A    
O2    C2    1.294878 A    
C107  C110  1.403953 A    
C71   C75   1.405276 A    
C116  H56   1.083268 S    
O21   Cu5   1.959678 S    
C18   H62   1.083173 S    
C128  C132  1.393611 A    
C62   H26   1.083404 S    
O31   C92   1.295442 A    
C23   C31   1.473074 S    
C39   C59   1.401547 A    
C2    C46   1.471280 S    
C62   C82   1.400103 A    
C26   N2    1.443131 S    
O33   Cu9   1.963488 S    
C10   C13   1.402099 A    
N3    H78   1.045888 S    
O14   C6    1.298075 A    
C57   C81   1.466942 S    
C53   C57   1.414774 A    
C80   C84   1.400301 A    
C16   C19   1.403967 A    
C71   C97   1.470310 S    
O14   Cu3   1.965297 S    
C108  H52   1.083055 S    
O39   C97   1.297925 A    
C10   C135  1.469390 S    
O37   C95   1.297937 A    
C128  C136  1.402225 A    
C69   C95   1.470307 S    
O4    Cu2   1.963148 S    
C115  C119  1.393581 A    
C38   C58   1.401516 A    
C70   C96   1.470325 S    
C99   C121  1.468685 S    
Cu8   O32   1.963434 S    
C55   N7    1.440654 S    
C78   H38   1.083290 S    
C104  C112  1.402155 A    
C65   C69   1.405085 A    
O35   Cu11  1.963488 S    
C116  C124  1.402142 A    
C79   H39   1.083304 S    
Cu2   Cu4   2.676282 S    
C117  H57   1.083052 S    
C114  C118  1.393578 A    
C119  H59   1.083050 S    
O42   C96   1.295291 A    
C36   H12   1.086655 S    
C105  C109  1.403951 A    
C64   C68   1.392558 A    
C75   H35   1.082920 S    
N6    O52   1.301442 A    
O22   C88   1.300912 A    
C25   C87   1.460209 S    
C113  C117  1.393581 A    
C40   C44   1.392111 A    
C131  C134  1.404222 A    
O38   Cu10  1.968614 S    
O10   Cu1   1.965295 S    
C22   C30   1.473065 S    
C63   C83   1.400136 A    
C39   H15   1.083623 S    
C24   C32   1.473074 S    
C125  C135  1.402091 A    
C32   H8    1.085815 S    
O28   Cu7   1.970891 S    
O29   C91   1.295388 A    
O46   C99   1.296383 A    
O33   C93   1.296029 A    
O17   C85   1.295376 A    
C66   C70   1.405066 A    
C79   C83   1.400313 A    
C92   C134  1.469022 S    
O32   C92   1.295439 A    
C29   C33   1.334502 D    
C25   N1    1.443132 S    
O2    Cu1   1.963148 S    
N8    O56   1.301585 A    
O8    Cu4   1.963143 S    
C32   C36   1.334506 D    
C49   H21   1.083083 S    
Cu11  Cu12  2.678831 S    
C61   C81   1.400132 A    
C108  C110  1.403951 A    
C116  C120  1.393581 A    
O34   C93   1.296026 A    
O3    C3    1.294875 A    
C60   C84   1.466953 S    
C54   C58   1.414706 A    
C118  C121  1.403991 A    
C41   C45   1.401395 A    
Cu9   Cu10  2.678831 S    
C11   H41   1.083384 S    
O24   C90   1.300906 A    
O43   C97   1.295298 A    
Cu6   O30   1.963434 S    
O28   C90   1.284452 A    
C28   C90   1.460233 S    
C74   C78   1.394621 A    
C51   H23   1.083052 S    
O12   C8    1.284480 A    
C41   H17   1.082999 S    
C131  H71   1.083140 S    
C49   C53   1.401086 A    
C9    C136  1.469432 S    
Cu7   O31   1.963433 S    
N4    H79   1.043008 S    
C120  H60   1.083050 S    
C26   C88   1.460211 S    
C8    C36   1.452634 S    
C58   C82   1.466959 S    
O39   Cu11  1.968616 S    
C51   C55   1.401062 A    
C130  C133  1.404002 A    
C23   C27   1.350438 D    
C127  C136  1.402223 A    
C126  C130  1.393788 A    
O27   C89   1.284451 A    
C24   C28   1.350440 D    
O44   Cu11  1.958038 S    
C115  H55   1.083271 S    
O36   Cu12  1.963490 S    
C33   H9    1.086650 S    
