data_mof_unit_26469.cif
_audit_creation_date              2012-10-26T21:04:55-0400
_audit_creation_method            fapswitch 2.2
_symmetry_space_group_name_H-M    P1
_symmetry_Int_Tables_number       1
_space_group_crystal_system       triclinic
_cell_length_a                    11.679554
_cell_length_b                    12.430221
_cell_length_c                    13.105764
_cell_angle_alpha                 116.972349
_cell_angle_beta                  75.391471
_cell_angle_gamma                 100.848771
_cell_volume                      1634.88071099

loop_
_atom_site_label
_atom_site_type_symbol
_atom_type_description
_atom_site_fract_x
_atom_site_fract_y
_atom_site_fract_z
_atom_type_partial_charge
C1    C     C_R   0.513343 0.854835 0.285135 0.613629
C2    C     C_R   0.357157 0.484457 0.162467 0.100146
C3    C     C_R   0.385440 0.608514 0.186136 0.274113
C4    C     C_R   0.715677 0.999966 0.499798 0.551437
C5    C     C_R   0.538786 0.350431 0.873026 0.202978
C6    C     C_R   0.446839 0.186913 0.927894 0.233695
C7    C     C_R   0.534200 0.769807 0.159380 0.001174
C8    C     C_R   0.691850 0.332175 0.316428 0.241888
C9    C     C_R   0.335077 0.754222 0.645547 0.231683
C10   C     C_R   0.287813 0.647154 0.658420 0.095969
C11   C     C_R   0.339474 0.538994 0.583950 0.064407
C12   C     C_R   0.493414 0.227485 0.839560 0.023428
C13   C     C_R   0.453216 0.541704 0.515208 -0.057987
C14   C     C_R   0.495489 0.648274 0.494984 0.169128
C15   C     C_R   0.523561 0.439501 0.461789 -0.017806
C16   C     C_R   0.491719 0.144936 0.714357 0.562987
C17   C     C_R   0.621726 0.432255 0.371073 0.002596
C18   C     C_R   0.648637 0.524408 0.336145 -0.134688
C19   C     C_R   0.596889 0.634246 0.400764 0.273564
C20   C     C_R   0.503348 0.345344 0.498241 0.088552
C21   C     C_R   0.659278 0.238813 0.350301 0.150982
C22   C     C_R   0.284346 0.000175 0.500303 0.573258
C23   C     C_R   0.624608 0.801845 0.080933 0.021017
C24   C     C_1   0.837517 0.000064 0.499799 0.023326
C25   C     C_1   0.940115 0.000066 0.499867 0.011148
C26   C     C_1   0.059983 0.000032 0.500010 0.023685
C27   C     C_1   0.162554 0.000038 0.500152 0.052134
C28   C     C_R   0.414762 0.273212 0.044777 0.102425
C29   C     C_R   0.701086 0.713992 0.996414 0.264980
C30   C     C_R   0.673248 0.593276 0.978796 0.202310
C31   C     C_R   0.559821 0.556669 0.029364 -0.031966
C32   C     C_R   0.492486 0.645557 0.125710 -0.008245
C33   C     C_R   0.514344 0.434003 0.991118 0.022783
C34   C     C_R   0.429616 0.397367 0.069526 -0.048088
Cu1   Cu    Cu3+1 0.526510 0.098270 0.475420 1.020641
Cu2   Cu    Cu3+1 0.473490 0.901730 0.524580 1.089437
H1    H     H_    0.716416 0.514462 0.259697 0.131638
H2    H     H_    0.439418 0.350564 0.575373 0.173757
H3    H     H_    0.710543 0.160915 0.309088 0.171157
H4    H     H_    0.381936 0.047308 0.961142 0.369205
H5    H     H_    0.838000 0.402892 0.254348 0.341149
H6    H     H_    0.720222 0.701450 0.305601 0.303693
H7    H     H_    0.653770 0.336465 0.734419 0.355150
H8    H     H_    0.827259 0.830901 0.970142 0.359604
H9    H     H_    0.261277 0.670225 0.323341 0.351342
I1    I     I_    0.233175 0.907819 0.750847 -0.168232
I2    I     I_    0.222697 0.374423 0.543076 -0.229979
I3    I     I_    0.136654 0.644523 0.791136 -0.124685
I4    I     I_    0.182752 0.428910 0.234917 -0.234256
I5    I     I_    0.385285 0.220983 0.185009 -0.230340
I6    I     I_    0.638542 0.975113 0.080087 -0.215351
I7    I     I_    0.817229 0.479795 0.904833 -0.188509
N1    N     N_R   0.566700 0.246290 0.438210 -0.276383
N2    N     N_R   0.434010 0.754320 0.561170 -0.239780
O1    O     O_R   0.533340 0.972510 0.318140 -0.487970
O2    O     O_3   0.792307 0.322574 0.231556 -0.658709
O3    O     O_3   0.649142 0.725136 0.368759 -0.657280
O4    O     O_3   0.594624 0.393744 0.791201 -0.653955
O5    O     O_3   0.805470 0.742745 0.932585 -0.613471
O6    O     O_3   0.306537 0.694090 0.261044 -0.666410
O7    O     O_R   0.488570 0.806530 0.359650 -0.428948
O8    O     O_R   0.685190 0.083000 0.479260 -0.521710
O9    O     O_R   0.640410 0.917020 0.520770 -0.426924
O10   O     O_R   0.511430 0.193470 0.640350 -0.502141
O11   O     O_R   0.466660 0.027490 0.681860 -0.428161
O12   O     O_R   0.359590 0.082980 0.479230 -0.475849
O13   O     O_R   0.314810 0.917000 0.520740 -0.486382
O14   O     O_3   0.436128 0.064256 0.897892 -0.631993

loop_
_geom_bond_atom_site_label_1
_geom_bond_atom_site_label_2
_ccdc_geom_bond_type
C31   C33   A    
H5    O2    S    
Cu1   O10   S    
C16   O11   A    
C2    I4    S    
Cu1   N1    S    
Cu2   O9    S    
C20   H2    S    
C9    C10   A    
Cu1   O12   S    
C23   I6    S    
C8    C17   A    
C21   H3    S    
C30   C31   A    
C3    O6    S    
C2    C34   A    
C6    O14   S    
C8    C21   A    
C1    O1    A    
Cu2   O13   S    
C28   C34   A    
C9    I1    S    
H9    O6    S    
C13   C14   A    
C19   O3    S    
C21   N1    A    
C11   C13   A    
C4    O9    A    
C8    O2    S    
C26   C27   T    
C3    C32   A    
C28   I5    S    
C5    O4    S    
C7    C23   A    
C23   C29   A    
H6    O3    S    
C14   N2    A    
C18   H1    S    
C33   C34   A    
Cu1   O8    S    
C2    C3    A    
C22   C27   S    
C13   C15   A    
C10   I3    S    
C15   C20   A    
C4    C24   S    
C22   O13   A    
C7    C32   A    
Cu2   N2    S    
C10   C11   A    
H8    O5    S    
C29   C30   A    
Cu2   O7    S    
C6    C12   A    
C4    O8    A    
C24   C25   T    
C11   I2    S    
C5    C12   A    
C17   C18   A    
C18   C19   A    
H4    O14   S    
C15   C17   A    
C29   O5    S    
Cu2   O11   S    
C22   O12   A    
C30   I7    S    
C9    N2    A    
C16   O10   A    
H7    O4    S    
C25   C26   S    
C1    C7    S    
Cu1   O1    S    
C14   C19   A    
C31   C32   A    
C6    C28   A    
C12   C16   S    
C5    C33   A    
C20   N1    A    
Cu1   Cu2   S    
C1    O7    A    
