data_mof_unit_51567.cif
_audit_creation_date              2012-12-10T20:21:44-0500
_audit_creation_method            fapswitch 2.2
_symmetry_space_group_name_H-M    P1
_symmetry_Int_Tables_number       1
_space_group_crystal_system       triclinic
_cell_length_a                    18.839456
_cell_length_b                    18.606191
_cell_length_c                    8.907088
_cell_angle_alpha                 89.739986
_cell_angle_beta                  89.702237
_cell_angle_gamma                 90.407302
_cell_volume                      3122.0524313

loop_
_atom_site_label
_atom_site_type_symbol
_atom_type_description
_atom_site_fract_x
_atom_site_fract_y
_atom_site_fract_z
_atom_type_partial_charge
C1    C     C_R   0.365362 0.499709 0.498497 1.028153
C2    C     C_R   0.491325 0.196281 0.633930 0.226568
C3    C     C_R   0.499322 0.841812 0.499053 -0.058307
C4    C     C_R   0.499686 0.157399 0.500300 -0.098230
C5    C     C_R   0.448605 0.961411 0.416264 0.388475
C6    C     C_R   0.552670 0.037579 0.576666 0.394366
C7    C     C_R   0.550238 0.961532 0.583144 0.390283
C8    C     C_R   0.446247 0.037376 0.423574 0.396372
C9    C     C_R   0.499493 0.076293 0.500303 -0.097663
C10   C     C_R   0.499443 0.922790 0.499347 -0.078774
C11   C     C_R   0.500131 0.500100 0.218666 1.011857
C12   C     C_R   0.634549 0.500192 0.494130 1.037556
C13   C     C_R   0.500028 0.499898 0.781337 0.912750
C14   C     C_1   0.500168 0.500129 0.065390 -0.148781
C15   C     C_1   0.500111 0.499846 0.934621 -0.190279
C16   C     C_R   0.758785 0.475772 0.558419 0.308811
C17   C     C_R   0.239579 0.488075 0.577280 0.341656
C18   C     C_R   0.271101 0.503515 0.312025 0.319547
C19   C     C_R   0.729398 0.522389 0.308985 0.346300
C20   C     C_R   0.830349 0.472496 0.516784 0.392568
C21   C     C_R   0.167876 0.482578 0.537643 0.412303
C22   C     C_R   0.200288 0.491518 0.271991 0.395535
C23   C     C_R   0.557287 0.727658 0.445566 0.449932
C24   C     C_R   0.801582 0.521428 0.268127 0.413354
C25   C     C_R   0.851582 0.497669 0.374035 -0.067927
C26   C     C_R   0.148840 0.485141 0.385157 -0.088505
C27   C     C_R   0.709106 0.500554 0.454689 -0.381457
C28   C     C_R   0.290676 0.498790 0.463754 -0.405719
C29   C     C_R   0.967012 0.559995 0.378547 0.357534
C30   C     C_R   0.034333 0.429760 0.307420 0.393204
C31   C     C_R   0.040987 0.557476 0.368436 0.352756
C32   C     C_R   0.960525 0.435739 0.291488 0.353991
C33   C     C_R   0.073996 0.490863 0.347177 -0.087495
C34   C     C_R   0.503159 0.272755 0.367252 0.429312
C35   C     C_R   0.927184 0.498883 0.339619 -0.107618
C36   C     C_3   0.739244 0.507177 0.800053 -0.245713
C37   C     C_3   0.279339 0.545011 0.787468 -0.289932
C38   C     C_3   0.325843 0.589283 0.170694 -0.304940
C39   C     C_3   0.681952 0.605558 0.144526 -0.145224
C40   C     C_3   0.878607 0.375059 0.633952 -0.247446
C41   C     C_3   0.102308 0.530831 0.730223 -0.266043
C42   C     C_3   0.200095 0.423201 0.061299 -0.186277
C43   C     C_3   0.855678 0.600354 0.102996 -0.331469
C44   C     C_3   0.939080 0.633842 0.573605 -0.273599
C45   C     C_R   0.443070 0.725806 0.559115 0.455218
C46   C     C_3   0.059086 0.320089 0.406708 -0.259701
C47   C     C_3   0.089403 0.656767 0.260887 -0.298833
C48   C     C_3   0.923145 0.373009 0.089116 -0.219582
C49   C     C_3   0.668672 0.699215 0.517842 -0.217436
C50   C     C_3   0.434296 0.308625 0.174226 -0.130110
C51   C     C_3   0.323209 0.702276 0.542595 -0.203916
C52   C     C_3   0.565069 0.308505 0.826390 -0.116048
C53   C     C_3   0.423311 0.918767 0.184913 -0.191728
C54   C     C_3   0.664010 0.082957 0.555010 -0.202302
C55   C     C_3   0.575883 0.918326 0.814454 -0.193705
C56   C     C_R   0.496612 0.272311 0.632897 0.425759
C57   C     C_3   0.335083 0.081442 0.445628 -0.206678
C58   C     C_R   0.555151 0.803507 0.432811 0.204326
C59   C     C_R   0.508227 0.196818 0.366561 0.226033
C60   C     C_R   0.444303 0.802238 0.568443 0.204640
Cl1   Cl    Cl    0.622517 0.849457 0.331392 -0.615265
Cl2   Cl    Cl    0.527401 0.152414 0.196298 -0.512142
Cl3   Cl    Cl    0.379644 0.847932 0.675497 -0.628342
Cl4   Cl    Cl    0.471978 0.151054 0.804310 -0.512402
H1    H     H_    0.702350 0.551020 0.767767 0.111286
H2    H     H_    0.711021 0.644059 0.217582 0.173613
H3    H     H_    0.627500 0.626462 0.128649 0.200973
H4    H     H_    0.707581 0.604619 0.032505 0.143894
H5    H     H_    0.875569 0.347353 0.523630 0.184605
H6    H     H_    0.833574 0.357916 0.706877 0.206905
H7    H     H_    0.928163 0.357260 0.689151 0.163515
H8    H     H_    0.113595 0.582160 0.669483 0.166152
H9    H     H_    0.132981 0.529509 0.835914 0.216745
H10   H     H_    0.045215 0.530777 0.761331 0.176065
H11   H     H_    0.185258 0.376901 0.134869 0.177437
H12   H     H_    0.794209 0.528627 0.811803 0.203994
H13   H     H_    0.257994 0.421986 0.037416 0.207725
H14   H     H_    0.171970 0.415744 0.953411 0.222466
H15   H     H_    0.840710 0.623888 0.993111 0.157065
H16   H     H_    0.913947 0.592466 0.099793 0.181489
H17   H     H_    0.841417 0.640409 0.190674 0.190911
H18   H     H_    0.994040 0.649658 0.604271 0.200062
H19   H     H_    0.922031 0.585775 0.639510 0.175354
H20   H     H_    0.903712 0.678619 0.606144 0.170811
H21   H     H_    0.002567 0.304262 0.423083 0.190290
H22   H     H_    0.080058 0.345518 0.510320 0.191448
H23   H     H_    0.721966 0.486261 0.911208 0.245624
H24   H     H_    0.089669 0.270202 0.387751 0.177534
H25   H     H_    0.037358 0.676015 0.218599 0.186270
H26   H     H_    0.116502 0.623985 0.173763 0.173080
H27   H     H_    0.123195 0.704687 0.281984 0.188411
H28   H     H_    0.977683 0.360299 0.049357 0.183952
H29   H     H_    0.904265 0.423352 0.034889 0.198445
H30   H     H_    0.887578 0.328769 0.052429 0.180385
H31   H     H_    0.647274 0.681083 0.628705 0.138091
H32   H     H_    0.688737 0.755297 0.526464 0.205302
H33   H     H_    0.714828 0.664802 0.491061 0.153393
H34   H     H_    0.248539 0.591414 0.743473 0.137329
H35   H     H_    0.396575 0.334837 0.253259 0.135085
H36   H     H_    0.415459 0.253390 0.147485 0.202300
H37   H     H_    0.434087 0.340128 0.068190 0.204767
H38   H     H_    0.330844 0.728839 0.430971 0.135258
H39   H     H_    0.288332 0.735764 0.613993 0.214731
H40   H     H_    0.294009 0.651445 0.522284 0.149224
H41   H     H_    0.603080 0.335249 0.747462 0.153326
H42   H     H_    0.583639 0.253428 0.853995 0.202772
H43   H     H_    0.565114 0.339834 0.932056 0.204057
H44   H     H_    0.473608 0.887820 0.179756 0.160151
H45   H     H_    0.337086 0.554488 0.772033 0.198630
H46   H     H_    0.430784 0.972533 0.131545 0.215671
H47   H     H_    0.383197 0.889023 0.118374 0.197048
H48   H     H_    0.706385 0.112556 0.615335 0.177255
H49   H     H_    0.686092 0.030174 0.520460 0.201469
H50   H     H_    0.649782 0.115366 0.454342 0.165554
H51   H     H_    0.525481 0.886857 0.820394 0.164977
H52   H     H_    0.568787 0.971848 0.867630 0.215481
H53   H     H_    0.616050 0.888776 0.880666 0.194666
H54   H     H_    0.292746 0.110815 0.385442 0.176578
H55   H     H_    0.312881 0.028250 0.480240 0.201081
H56   H     H_    0.268867 0.542719 0.909218 0.233524
H57   H     H_    0.349473 0.113576 0.546253 0.165219
H58   H     H_    0.347475 0.619502 0.267379 0.183709
H59   H     H_    0.273313 0.611529 0.138494 0.163756
H60   H     H_    0.362823 0.598052 0.074935 0.187412
N1    N     N_R   0.500000 0.689440 0.500000 -0.209422
N2    N     N_R   0.500000 0.310560 0.500000 -0.214289
O1    O     O_R   0.398180 0.560840 0.499960 -0.595399
O2    O     O_3   0.258964 0.478313 0.725475 -0.592925
O3    O     O_3   0.322016 0.514910 0.201822 -0.613682
O4    O     O_3   0.676817 0.535077 0.203504 -0.609746
O5    O     O_3   0.881078 0.450565 0.619139 -0.612351
O6    O     O_3   0.116097 0.468501 0.645235 -0.599219
O7    O     O_3   0.180192 0.489998 0.122903 -0.633254
O8    O     O_3   0.820715 0.533300 0.119550 -0.613740
O9    O     O_3   0.932868 0.622976 0.417545 -0.606387
O10   O     O_3   0.067973 0.365252 0.280337 -0.605375
O11   O     O_3   0.081317 0.618259 0.396542 -0.611804
O12   O     O_R   0.601820 0.439160 0.500040 -0.602392
O13   O     O_3   0.920068 0.377393 0.247028 -0.603129
O14   O     O_3   0.617736 0.691925 0.402481 -0.565231
O15   O     O_3   0.504110 0.308460 0.231535 -0.555018
O16   O     O_3   0.386967 0.686926 0.620153 -0.563964
O17   O     O_3   0.495410 0.307679 0.768307 -0.557732
O18   O     O_3   0.398195 0.924742 0.333721 -0.566516
O19   O     O_3   0.605466 0.074080 0.652649 -0.551203
O20   O     O_3   0.600612 0.924971 0.665306 -0.566679
O21   O     O_3   0.393533 0.073668 0.347804 -0.550560
O22   O     O_R   0.601820 0.560840 0.500040 -0.585481
O23   O     O_R   0.398180 0.439160 0.499960 -0.607951
O24   O     O_R   0.500000 0.560800 0.285330 -0.614620
O25   O     O_R   0.500000 0.439200 0.714670 -0.564345
O26   O     O_R   0.500000 0.560800 0.714670 -0.615634
O27   O     O_R   0.500000 0.439200 0.285330 -0.571353
O28   O     O_3   0.736653 0.450198 0.696946 -0.609011
Zn1   Zn    Zn3+2 0.500000 0.581210 0.500000 1.000585
Zn2   Zn    Zn3+2 0.500000 0.418790 0.500000 1.023940

loop_
_geom_bond_atom_site_label_1
_geom_bond_atom_site_label_2
_ccdc_geom_bond_type
C53   H46   S    
C7    C10   A    
C30   C32   A    
C21   C26   A    
C45   C60   A    
C20   C25   A    
C40   H7    S    
C23   C58   A    
C39   H4    S    
C44   H19   S    
C6    C9    A    
C36   O28   S    
C34   O15   S    
C51   H38   S    
C42   H11   S    
C48   H30   S    
C42   O7    S    
O23   Zn2   S    
C44   H18   S    
C11   C14   S    
C55   H52   S    
C43   H15   S    
C54   H49   S    
C26   C33   S    
C41   H10   S    
C56   O17   S    
C52   H43   S    
C45   N1    A    
C8    C9    A    
C36   H12   S    
C1    C28   S    
C31   C33   A    
C1    O23   A    
O22   Zn1   S    
C56   N2    A    
C31   O11   S    
C19   C27   A    
C37   H45   S    
C38   H59   S    
C48   O13   S    
C50   O15   S    
C34   N2    A    
C23   N1    A    
C7    O20   S    
C3    C60   A    
C53   H47   S    
C58   Cl1   S    
C52   H42   S    
C47   H25   S    
C47   H27   S    
C37   H34   S    
C2    Cl4   S    
C46   H24   S    
C36   H23   S    
C52   O17   S    
C48   H29   S    
C41   H9    S    
C22   O7    S    
C38   O3    S    
C23   O14   S    
C18   C28   A    
C24   C25   A    
C13   O25   A    
C32   O13   S    
C40   H5    S    
O1    Zn1   S    
C6    O19   S    
C11   O27   A    
C36   H1    S    
C5    O18   S    
C12   C27   S    
C44   H20   S    
C51   H40   S    
C57   H57   S    
C17   C21   A    
C46   H21   S    
C43   O8    S    
C2    C4    A    
C32   C35   A    
C21   O6    S    
C5    C8    A    
C11   O24   A    
O26   Zn1   S    
C16   C20   A    
C47   O11   S    
C16   C27   A    
C50   H35   S    
C54   H48   S    
O25   Zn2   S    
C49   H31   S    
O27   Zn2   S    
C38   H58   S    
C40   H6    S    
C25   C35   S    
C54   O19   S    
C29   O9    S    
C40   O5    S    
C52   H41   S    
C42   H14   S    
C30   O10   S    
O24   Zn1   S    
C41   H8    S    
C13   C15   S    
C22   C26   A    
C34   C59   A    
C43   H17   S    
C39   H2    S    
C60   Cl3   S    
C8    O21   S    
C20   O5    S    
C55   H53   S    
C51   O16   S    
C24   O8    S    
C59   Cl2   S    
C30   C33   A    
C18   C22   A    
C17   C28   A    
C39   H3    S    
C1    O1    A    
C13   O26   A    
C55   O20   S    
C41   O6    S    
C17   O2    S    
C6    C7    A    
C39   O4    S    
C29   C35   A    
C50   H36   S    
C57   H55   S    
C50   H37   S    
C53   O18   S    
C37   O2    S    
C57   O21   S    
C19   C24   A    
C43   H16   S    
C5    C10   A    
C29   C31   A    
C3    C10   S    
C2    C56   A    
C16   O28   S    
C53   H44   S    
C12   O22   A    
C45   O16   S    
C37   H56   S    
C55   H51   S    
C44   O9    S    
C54   H50   S    
C4    C59   A    
C47   H26   S    
C12   O12   A    
C49   H32   S    
C49   H33   S    
O12   Zn2   S    
C46   O10   S    
C3    C58   A    
C42   H13   S    
C48   H28   S    
C49   O14   S    
C14   C15   T    
C18   O3    S    
C19   O4    S    
C4    C9    S    
C51   H39   S    
C38   H60   S    
N1    Zn1   S    
C57   H54   S    
C46   H22   S    
N2    Zn2   S    
