data_mof_unit_47373.cif
_audit_creation_date              2013-03-05T16:30:59-0500
_audit_creation_method            fapswitch 2.2
_symmetry_space_group_name_H-M    P1
_symmetry_Int_Tables_number       1
_space_group_crystal_system       triclinic
_cell_length_a                    13.012606
_cell_length_b                    10.827759
_cell_length_c                    9.561795
_cell_angle_alpha                 89.840147
_cell_angle_beta                  95.554643
_cell_angle_gamma                 91.073584
_cell_volume                      1340.66951151

loop_
_atom_site_label
_atom_site_type_symbol
_atom_site_description
_atom_site_fract_x
_atom_site_fract_y
_atom_site_fract_z
_atom_type_partial_charge
O1    O     O_R   0.500000 0.319640 0.618810 -0.585862
O2    O     O_R   0.500010 0.319680 0.381230 -0.593881
C1    C     C_R   0.500447 0.262601 0.500315 0.787449
O3    O     O_R   0.348990 0.499960 0.599490 -0.586521
O4    O     O_R   0.349000 0.500000 0.361910 -0.591173
C2    C     C_R   0.300935 0.499578 0.474337 0.787008
Cu1   Cu    Cu3+1 0.499990 0.499980 0.640670 0.955539
Cu2   Cu    Cu3+1 0.500010 0.500020 0.359330 0.983454
O5    O     O_R   0.499990 0.680320 0.618770 -0.586157
O6    O     O_R   0.500000 0.680360 0.381190 -0.571160
O7    O     O_R   0.651000 0.500000 0.638090 -0.586542
O8    O     O_R   0.651010 0.500040 0.400510 -0.526419
C3    C     C_R   0.498783 0.737693 0.499772 0.845770
C4    C     C_R   0.699410 0.503604 0.525767 0.891314
C5    C     C_R   0.812409 0.505306 0.540711 -0.177731
C6    C     C_R   0.189140 0.506336 0.459830 -0.040730
C7    C     C_R   0.033367 0.581768 0.334046 -0.101168
C8    C     C_R   0.138854 0.563474 0.341887 -0.229798
C9    C     C_R   0.132705 0.460273 0.566292 -0.226780
C10   C     C_R   0.026177 0.475625 0.557757 0.110303
C11   C     C_R   0.976080 0.542713 0.444199 0.054247
C12   C     C_R   0.870251 0.567680 0.443231 0.384158
C13   C     C_R   0.863022 0.437111 0.650783 -0.245825
C14   C     C_R   0.969493 0.425515 0.661665 -0.191307
H1    H     H_    0.819792 0.390998 0.727702 0.179838
H2    H     H_    0.997658 0.625104 0.240161 0.209302
H3    H     H_    0.007028 0.373434 0.748479 0.150171
H4    H     H_    0.181582 0.597470 0.257446 0.160352
H5    H     H_    0.171770 0.412621 0.655608 0.139545
C15   C     C_R   0.473308 0.063603 0.616205 0.144946
C16   C     C_R   0.505771 0.129707 0.502556 -0.093053
C17   C     C_R   0.545416 0.066094 0.392794 -0.221940
H6    H     H_    0.575046 0.115349 0.305997 0.167213
C18   C     C_R   0.543612 0.937511 0.392116 -0.153922
H7    H     H_    0.572350 0.890566 0.305168 0.181382
C19   C     C_R   0.502511 0.871416 0.501059 -0.095292
C20   C     C_R   0.471230 0.935970 0.615457 0.112506
C21   C     C_3   0.368550 0.930899 0.674158 -0.472779
C22   C     C_3   0.372136 0.070730 0.676768 -0.475251
H8    H     H_    0.305957 0.892002 0.598536 0.203068
H9    H     H_    0.371967 0.890526 0.781166 0.195407
H10   H     H_    0.311054 0.113449 0.603726 0.193809
H11   H     H_    0.380761 0.109618 0.784872 0.192849
C23   C     C_R   0.561625 0.581369 0.081250 0.381924
N1    N     N_R   0.500660 0.500930 0.148010 -0.206216
C24   C     C_R   0.445023 0.413955 0.067392 -0.099114
H12   H     H_    0.398736 0.345853 0.117161 0.146691
C25   C     C_R   0.444886 0.414059 0.918635 -0.079793
H13   H     H_    0.398358 0.346203 0.857063 0.136443
N2    N     N_R   0.500660 0.500890 0.852110 -0.196301
C26   C     C_R   0.562284 0.580601 0.933925 0.272403
C27   C     C_3   0.557959 0.717528 0.925470 -0.515115
C28   C     C_3   0.555646 0.718915 0.082938 -0.492518
H14   H     H_    0.629603 0.759376 0.889763 0.221156
H15   H     H_    0.484968 0.749550 0.869309 0.215168
H16   H     H_    0.625676 0.763889 0.136554 0.259788
H17   H     H_    0.481207 0.751895 0.115764 0.195245
S1    S     S_3+6 0.815604 0.687486 0.333617 -0.048409
O9    O     O_2   0.787862 0.635747 0.188997 -0.354004
O10   O     O_2   0.721597 0.738137 0.390677 -0.335219
O11   O     O_3   0.901864 0.804287 0.324613 -0.548022
H18   H     H_    0.870012 0.860422 0.251387 0.369550

loop_
_geom_bond_atom_site_label_1
_geom_bond_atom_site_label_2
_geom_bond_distance
_ccdc_geom_bond_type
C12   S1    1.780355 S    
O4    Cu2   1.967569 S    
C21   H8    1.112871 S    
C13   C14   1.387323 A    
C14   H3    1.083911 S    
C17   C18   1.392050 A    
C20   C21   1.498518 S    
O5    C3    1.293748 A    
C9    C10   1.393741 A    
C27   H15   1.106012 S    
Cu2   O8    1.966239 S    
C1    C16   1.441911 S    
C17   H6    1.083352 S    
S1    O11   1.682764 S    
C5    C13   1.402285 A    
C7    C8    1.385367 A    
C8    H4    1.083573 S    
Cu1   Cu2   2.690139 S    
C6    C8    1.396844 A    
O1    Cu1   1.964418 S    
N1    C24   1.369566 A    
C10   C11   1.417029 A    
Cu1   O7    1.967572 S    
O11   H18   0.991139 S    
C21   H9    1.108792 S    
O3    Cu1   1.966239 S    
O4    C2    1.294936 A    
C23   C26   1.409592 A    
C25   N2    1.369586 A    
C25   H13   1.081551 S    
C27   H14   1.111732 S    
C15   C22   1.492031 S    
O2    C1    1.293646 A    
C22   H10   1.112655 S    
C18   C19   1.404521 A    
C6    C9    1.397309 A    
C15   C16   1.394571 A    
O7    C4    1.296791 A    
C24   C25   1.422205 A    
O3    C2    1.295442 A    
Cu2   N1    2.021430 S    
C7    H2    1.080291 S    
S1    O10   1.500289 D    
C26   C27   1.486416 S    
C9    H5    1.085042 S    
C10   C14   1.396217 A    
C13   H1    1.083605 S    
C21   C22   1.514103 S    
C27   C28   1.509009 S    
Cu1   N2    2.020972 S    
C3    C19   1.447873 S    
Cu2   O6    1.964416 S    
C18   H7    1.076610 S    
C24   H12   1.081612 S    
C28   H16   1.106658 S    
Cu1   O5    1.963293 S    
C28   H17   1.112090 S    
C4    C5    1.463277 S    
C19   C20   1.397098 A    
C22   H11   1.112007 S    
N2    C26   1.362477 A    
S1    O9    1.502156 D    
C11   C12   1.407512 A    
C2    C6    1.451119 S    
C23   C28   1.493017 S    
C5    C12   1.415873 A    
O2    Cu2   1.963293 S    
C23   N1    1.365460 A    
C16   C17   1.401503 A    
C15   C20   1.381758 A    
O8    C4    1.298424 A    
O1    C1    1.292487 A    
O6    C3    1.295779 A    
C7    C11   1.407686 A    
