data_mof_unit_33386.cif
_audit_creation_date              2012-12-10T16:44:16-0500
_audit_creation_method            fapswitch 2.2
_symmetry_space_group_name_H-M    P1
_symmetry_Int_Tables_number       1
_space_group_crystal_system       triclinic
_cell_length_a                    7.478195
_cell_length_b                    8.707456
_cell_length_c                    13.310826
_cell_angle_alpha                 93.962494
_cell_angle_beta                  78.569949
_cell_angle_gamma                 103.136814
_cell_volume                      827.062782895

loop_
_atom_site_label
_atom_site_type_symbol
_atom_type_description
_atom_site_fract_x
_atom_site_fract_y
_atom_site_fract_z
_atom_type_partial_charge
C1    C     C_R   0.544524 0.799892 0.503033 0.875826
C2    C     C_R   0.426600 0.391595 0.965903 -0.143215
C3    C     C_R   0.483430 0.404080 0.858605 -0.192805
C4    C     C_R   0.564160 0.454686 0.027790 0.122367
C5    C     C_R   0.754919 0.501581 0.980243 0.000678
C6    C     C_R   0.807907 0.478283 0.875340 -0.240528
C7    C     C_R   0.674804 0.410187 0.817307 0.575931
C8    C     C_R   0.518966 0.478999 0.134041 -0.266218
C9    C     C_R   0.847133 0.577910 0.144429 0.443510
C10   C     C_R   0.347475 0.394735 0.796044 -0.213964
C11   C     C_2   0.567901 0.967165 0.499590 -0.409469
C12   C     C_R   0.400237 0.462962 0.691114 0.860823
C13   C     C_2   0.419183 0.032485 0.511863 0.230499
C14   C     C_R   0.452279 0.200195 0.500966 0.753926
C15   C     C_R   0.600564 0.516890 0.305940 0.789828
C16   C     C_R   0.892993 0.563189 0.038291 -0.155086
C17   C     C_R   0.658365 0.527716 0.193688 -0.175888
C18   C     C_R   0.168894 0.303013 0.830786 0.197450
C19   C     C_R   0.116108 0.256641 0.934315 0.418771
C20   C     C_R   0.239986 0.307480 0.003144 0.313774
Cu1   Cu    Cu3+1 0.321300 0.483160 0.488710 1.045982
Cu2   Cu    Cu3+1 0.678700 0.516840 0.511290 1.056665
H1    H     H_    0.010398 0.616831 0.580662 0.209747
H2    H     H_    0.953784 0.504578 0.839213 0.172065
H3    H     H_    0.038159 0.599562 0.001019 0.137248
H4    H     H_    0.374686 0.461862 0.171689 0.238728
H5    H     H_    0.710167 0.037359 0.483941 0.158840
N1    N     N_2   0.947230 0.542220 0.528320 -0.081292
N2    N     N_2   0.052770 0.457780 0.471680 0.085069
O1    O     O_R   0.383920 0.714220 0.492660 -0.527468
O2    O     O_R   0.685730 0.742660 0.511730 -0.611501
O3    O     O_R   0.275440 0.478800 0.636790 -0.555863
O4    O     O_R   0.577250 0.507240 0.655860 -0.570143
O5    O     O_R   0.314270 0.257340 0.488270 -0.597204
O6    O     O_R   0.616080 0.285780 0.507340 -0.531011
O7    O     O_R   0.422750 0.492760 0.344140 -0.593838
O8    O     O_R   0.724560 0.521200 0.363210 -0.514464
O9    O     O_3   0.989615 0.644236 0.196151 -0.702481
H6    H     H_    0.939059 0.709343 0.254074 0.329699
O10   O     O_3   0.238414 0.942700 0.537928 -0.718463
H7    H     H_    0.148294 0.012462 0.554725 0.343197
O11   O     O_3   0.973649 0.360362 0.402751 -0.550954
H8    H     H_    0.072929 0.307297 0.366619 0.348319
O12   O     O_3   0.056251 0.248506 0.759846 -0.693465
H9    H     H_    0.955735 0.159984 0.789142 0.351804
O13   O     O_3   0.180830 0.252728 0.101409 -0.699388
H10   H     H_    0.283143 0.210298 0.118577 0.317677
O14   O     O_3   0.938851 0.167500 0.969719 -0.550963
C21   C     C_3   0.948425 0.007268 0.968966 -0.301387
H11   H     H_    0.025920 0.985360 0.027763 0.204714
H12   H     H_    0.012961 0.966100 0.892086 0.126760
H13   H     H_    0.804145 0.934798 0.988127 0.188926
O15   O     O_3   0.734740 0.333550 0.726152 -0.524406
C22   C     C_3   0.640905 0.172738 0.728683 -0.239881
H14   H     H_    0.626776 0.119255 0.804397 0.135152
H15   H     H_    0.723688 0.105990 0.670767 0.185386
H16   H     H_    0.500907 0.157326 0.708557 0.141982

loop_
_geom_bond_atom_site_label_1
_geom_bond_atom_site_label_2
_ccdc_geom_bond_type
C14   O5    A    
C2    C4    A    
O15   C22   S    
C6    C7    A    
C16   H3    S    
C18   O12   S    
N2    O11   S    
C8    H4    S    
Cu1   O1    S    
C19   C20   A    
C1    C11   S    
C11   H5    S    
C4    C8    A    
C21   H13   S    
C6    H2    S    
C2    C3    A    
C3    C10   A    
Cu2   N1    S    
C13   C14   S    
C12   O3    A    
Cu1   O7    S    
Cu2   O6    S    
C11   C13   D    
N1    N2    D    
C5    C6    A    
C10   C12   S    
C10   C18   A    
O14   C21   S    
C9    C17   A    
C1    O1    A    
C9    C16   A    
C18   C19   A    
C3    C7    A    
O9    H6    S    
Cu1   O3    S    
C22   H15   S    
O13   H10   S    
H1    N1    S    
O11   H8    S    
C7    O15   S    
C2    C20   A    
C15   O7    A    
C1    O2    A    
O12   H9    S    
C15   O8    A    
C21   H11   S    
Cu2   O2    S    
C14   O6    A    
C15   C17   S    
Cu2   O4    S    
C22   H14   S    
O10   H7    S    
C5    C16   A    
C9    O9    S    
Cu1   O5    S    
C19   O14   S    
C21   H12   S    
C12   O4    A    
Cu1   Cu2   S    
Cu2   O8    S    
Cu1   N2    S    
C20   O13   S    
C8    C17   A    
C4    C5    A    
C13   O10   S    
C22   H16   S    
