data_mof_unit_16228.cif
_audit_creation_date              2012-10-26T21:12:36-0400
_audit_creation_method            fapswitch 2.2
_symmetry_space_group_name_H-M    P1
_symmetry_Int_Tables_number       1
_space_group_crystal_system       triclinic
_cell_length_a                    23.512877
_cell_length_b                    10.830071
_cell_length_c                    9.669886
_cell_angle_alpha                 90.133926
_cell_angle_beta                  89.251382
_cell_angle_gamma                 94.844525
_cell_volume                      2453.3908651

loop_
_atom_site_label
_atom_site_type_symbol
_atom_type_description
_atom_site_fract_x
_atom_site_fract_y
_atom_site_fract_z
_atom_type_partial_charge
Br1   Br    Br    0.714574 0.718506 0.836865 -0.504752
Br2   Br    Br    0.403500 0.319200 0.844439 -0.491282
Br3   Br    Br    0.077115 0.868123 0.384848 -0.307144
Br4   Br    Br    0.941536 0.848504 0.350523 -0.323990
C1    C     C_R   0.504442 0.263675 0.500327 0.581853
C2    C     C_R   0.123538 0.601904 0.469218 0.428412
C3    C     C_R   0.239006 0.494805 0.378654 -0.044387
C4    C     C_R   0.391087 0.499468 0.500783 0.556012
C5    C     C_R   0.298308 0.495500 0.377407 -0.129869
C6    C     C_R   0.328405 0.499208 0.502303 0.010537
C7    C     C_R   0.297990 0.502480 0.628302 -0.116916
C8    C     C_R   0.238629 0.501339 0.629212 -0.044623
C9    C     C_R   0.209027 0.497532 0.504438 0.236826
C10   C     C_R   0.760613 0.482453 0.372225 -0.046784
C11   C     C_R   0.701589 0.487256 0.372660 -0.146136
C12   C     C_R   0.964393 0.269595 0.570592 0.095686
C13   C     C_R   0.670582 0.482992 0.497902 0.002318
C14   C     C_R   0.699290 0.465240 0.621935 -0.103649
C15   C     C_R   0.758357 0.460148 0.621480 -0.018597
C16   C     C_R   0.495037 0.736594 0.500637 0.572914
C17   C     C_R   0.789327 0.471091 0.496860 0.234060
C18   C     C_R   0.537220 0.116284 0.750899 0.160987
C19   C     C_R   0.522569 0.058051 0.878602 0.127462
C20   C     C_R   0.487953 0.947104 0.879660 -0.079654
C21   C     C_R   0.474484 0.885706 0.756861 -0.116479
C22   C     C_R   0.492736 0.938144 0.629043 -0.035366
C23   C     C_R   0.023760 0.276296 0.572180 -0.091770
C24   C     C_R   0.513824 0.063571 0.626874 0.051614
C25   C     C_R   0.508809 0.129850 0.501750 -0.002575
C26   C     C_R   0.496296 0.065349 0.379015 -0.144968
C27   C     C_R   0.488474 0.937128 0.377842 0.074074
C28   C     C_R   0.608608 0.494937 0.499255 0.539191
C29   C     C_R   0.489497 0.871209 0.502882 0.031689
C30   C     C_R   0.594325 0.625486 0.138322 0.102216
C31   C     C_R   0.646048 0.640197 0.066446 -0.159771
C32   C     C_R   0.646025 0.645570 0.925021 0.099930
C33   C     C_R   0.593619 0.630740 0.857021 0.138900
C34   C     C_R   0.056481 0.385904 0.537695 0.022422
C35   C     C_R   0.545090 0.565011 0.924096 0.092381
C36   C     C_R   0.545242 0.563868 0.073451 0.139110
C37   C     C_R   0.459038 0.435019 0.075629 0.003662
C38   C     C_R   0.459525 0.432461 0.928925 0.229369
C39   C     C_R   0.881108 0.585482 0.466408 0.433755
C40   C     C_R   0.876344 0.372054 0.529624 0.428252
C41   C     C_R   0.936315 0.375111 0.533420 0.077996
C42   C     C_R   0.969138 0.487466 0.498445 -0.090237
C43   C     C_R   0.941588 0.593853 0.461419 -0.001307
C44   C     C_R   0.029566 0.492598 0.500396 -0.072168
C45   C     C_R   0.063156 0.603475 0.465877 0.003837
C46   C     C_R   0.035360 0.709947 0.428053 0.190643
C47   C     C_R   0.975206 0.704099 0.422219 0.190417
C48   C     C_R   0.116056 0.390261 0.539437 0.413467
Cu1   Cu    Cu3+1 0.500000 0.499990 0.640660 1.014819
Cu2   Cu    Cu3+1 0.500000 0.500010 0.359340 0.990657
H1    H     H_    0.680409 0.494988 0.275163 0.131746
H2    H     H_    0.216234 0.491794 0.281919 0.142267
H3    H     H_    0.320478 0.492950 0.278692 0.142271
H4    H     H_    0.319947 0.506122 0.726119 0.167294
H5    H     H_    0.215584 0.503851 0.726733 0.141959
H6    H     H_    0.784211 0.489131 0.275231 0.146070
H7    H     H_    0.944727 0.131734 0.708200 0.249779
H8    H     H_    0.945759 0.085869 0.540974 0.285092
H9    H     H_    0.569444 0.287462 0.812886 0.248464
H10   H     H_    0.618797 0.186586 0.778611 0.225034
H11   H     H_    0.586032 0.120368 0.007158 0.236173
H12   H     H_    0.676281 0.456839 0.719584 0.152734
H13   H     H_    0.526686 0.199112 0.016638 0.241202
H14   H     H_    0.439917 0.908229 0.208655 0.236384
H15   H     H_    0.510943 0.899599 0.182728 0.241912
H16   H     H_    0.625525 0.704535 0.315897 0.223916
H17   H     H_    0.591873 0.797712 0.213907 0.220254
H18   H     H_    0.619364 0.710356 0.672909 0.265118
H19   H     H_    0.590667 0.805264 0.787519 0.233199
H20   H     H_    0.780223 0.450344 0.718197 0.156145
H21   H     H_    0.491677 0.114145 0.282645 0.165060
H22   H     H_    0.473011 0.904691 0.975243 0.131362
H23   H     H_    0.448024 0.799240 0.763311 0.157579
H24   H     H_    0.425799 0.380358 0.131991 0.149517
H25   H     H_    0.044123 0.194122 0.600932 0.188170
H26   H     H_    0.684234 0.676482 0.119470 0.167982
N1    N     N_R   0.850534 0.475960 0.497216 -0.418597
N2    N     N_3   0.586895 0.715341 0.746984 -0.531829
N3    N     N_R   0.148014 0.496712 0.505160 -0.407026
N4    N     N_R   0.500540 0.501210 0.147910 -0.249965
N5    N     N_R   0.500560 0.501290 0.852040 -0.234769
N6    N     N_3   0.933234 0.154742 0.607983 -0.507929
N7    N     N_3   0.580525 0.218033 0.744844 -0.606325
N8    N     N_3   0.541433 0.111028 0.007623 -0.661512
N9    N     N_3   0.476659 0.875078 0.249523 -0.586629
N10   N     N_3   0.589834 0.707483 0.252834 -0.522573
O1    O     O_R   0.500000 0.319640 0.618810 -0.441866
O2    O     O_R   0.582120 0.500020 0.618760 -0.493766
O3    O     O_R   0.582120 0.500050 0.381190 -0.490150
O4    O     O_2   0.852288 0.685749 0.444441 -0.395638
O5    O     O_2   0.843610 0.266444 0.557436 -0.418872
O6    O     O_2   0.142091 0.288438 0.573994 -0.453397
O7    O     O_2   0.158179 0.703338 0.436966 -0.412971
O8    O     O_R   0.500000 0.319660 0.381240 -0.521415
O9    O     O_R   0.417880 0.499950 0.618810 -0.468176
O10   O     O_R   0.417880 0.499980 0.381240 -0.513108
O11   O     O_R   0.500000 0.680340 0.618760 -0.494394
O12   O     O_R   0.500000 0.680360 0.381190 -0.418823

loop_
_geom_bond_atom_site_label_1
_geom_bond_atom_site_label_2
_ccdc_geom_bond_type
C37   C38   A    
C36   N4    A    
C31   C32   A    
Cu2   N4    S    
Cu1   Cu2   S    
Cu1   O9    S    
H8    N6    S    
H13   N8    S    
C30   C36   A    
C10   C17   A    
C32   C33   A    
C15   C17   A    
C4    O9    A    
C14   C15   A    
C23   H25   S    
C26   C27   A    
C16   O12   A    
C23   C34   A    
C31   H26   S    
C39   O4    S    
C3    C5    A    
C30   C31   A    
Cu2   O3    S    
C8    H5    S    
Cu1   O11   S    
C27   N9    S    
Cu1   O1    S    
C19   C20   A    
C27   C29   A    
C7    H4    S    
C5    C6    A    
H10   N7    S    
C34   C44   A    
C12   C23   A    
C28   O3    A    
C18   C24   A    
C12   N6    S    
Cu2   O10   S    
H16   N10   S    
C3    H2    S    
H15   N9    S    
Br3   C46   S    
C46   C47   A    
C1    C25   S    
C42   C44   A    
Br4   C47   S    
C2    O7    S    
C20   C21   A    
C40   N1    A    
H7    N6    S    
C35   C36   A    
C20   H22   S    
C43   C47   A    
C16   O11   A    
C21   C22   A    
C41   C42   A    
C37   N4    A    
C11   H1    S    
C48   N3    A    
C30   N10   S    
C25   C26   A    
C22   C29   A    
Cu1   O2    S    
C13   C14   A    
C38   N5    A    
C18   N7    S    
C1    O8    A    
C1    O1    A    
C16   C29   S    
C44   C45   A    
C17   N1    S    
C19   N8    S    
C39   N1    A    
C21   H23   S    
C33   N2    S    
C35   N5    A    
H19   N2    S    
C37   H24   S    
C40   C41   A    
H11   N8    S    
C11   C13   A    
C42   C43   A    
C24   C25   A    
C2    N3    A    
H9    N7    S    
C10   C11   A    
Cu2   O12   S    
C15   H20   S    
C12   C41   A    
C7    C8    A    
C14   H12   S    
C10   H6    S    
C9    N3    S    
C22   C24   A    
C4    O10   A    
C33   C35   A    
C40   O5    S    
C26   H21   S    
C28   O2    A    
H17   N10   S    
Br2   C38   S    
C48   O6    S    
C5    H3    S    
C2    C45   A    
C6    C7    A    
C3    C9    A    
C34   C48   A    
C8    C9    A    
C4    C6    S    
C45   C46   A    
C13   C28   S    
C18   C19   A    
Cu2   O8    S    
Cu1   N5    S    
H14   N9    S    
C39   C43   A    
H18   N2    S    
Br1   C32   S    
