data_mof_unit_30580.cif
_audit_creation_date              2012-10-26T21:00:14-0400
_audit_creation_method            fapswitch 2.2
_symmetry_space_group_name_H-M    P1
_symmetry_Int_Tables_number       1
_space_group_crystal_system       triclinic
_cell_length_a                    19.398136
_cell_length_b                    8.748433
_cell_length_c                    7.484354
_cell_angle_alpha                 102.827134
_cell_angle_beta                  94.514843
_cell_angle_gamma                 93.670055
_cell_volume                      1230.23407334

loop_
_atom_site_label
_atom_site_type_symbol
_atom_type_description
_atom_site_fract_x
_atom_site_fract_y
_atom_site_fract_z
_atom_type_partial_charge
C1    C     C_R   0.497236 0.200379 0.454377 0.574150
C2    C     C_R   0.814680 0.517038 0.352348 -0.106995
C3    C     C_R   0.146037 0.514095 0.497216 -0.012296
C4    C     C_R   0.853947 0.485512 0.502681 -0.012256
C5    C     C_R   0.179589 0.556442 0.352812 0.302454
C6    C     C_R   0.820380 0.443234 0.647094 0.302438
C7    C     C_R   0.252868 0.566651 0.361856 0.214847
C8    C     C_R   0.747104 0.433155 0.638082 0.214838
C9    C     C_R   0.292110 0.523629 0.509253 -0.018528
C10   C     C_R   0.707883 0.476303 0.490740 -0.018452
C11   C     C_R   0.930060 0.492382 0.502020 0.367593
C12   C     C_R   0.502762 0.799620 0.545624 0.574174
C13   C     C_R   0.069922 0.507112 0.497867 0.367564
C14   C     C_2   0.487099 0.033984 0.433209 0.209769
C15   C     C_2   0.512895 0.966016 0.566795 0.209762
C16   C     C_R   0.367762 0.507340 0.503180 0.539949
C17   C     C_R   0.632237 0.492658 0.496819 0.539984
C18   C     C_R   0.257181 0.490094 0.657093 0.197924
C19   C     C_R   0.742826 0.509849 0.342928 0.197927
C20   C     C_R   0.185325 0.482719 0.647612 -0.106986
Cl1   Cl    Cl    0.431089 0.934231 0.236633 -0.505887
Cl2   Cl    Cl    0.568899 0.065767 0.763384 -0.505799
Cl3   Cl    Cl    0.422643 0.308767 0.907644 -0.328657
Cl4   Cl    Cl    0.577352 0.691243 0.092356 -0.328694
Cu1   Cu    Cu3+1 0.507710 0.517380 0.684380 1.236684
Cu2   Cu    Cu3+1 0.492290 0.482620 0.315620 1.236721
H1    H     H_    0.160093 0.452413 0.760712 0.193796
H2    H     H_    0.839925 0.547350 0.239270 0.193637
H3    H     H_    0.322162 0.558490 0.868560 0.380128
H4    H     H_    0.677859 0.441700 0.131409 0.380175
H5    H     H_    0.169323 0.613763 0.113727 0.383209
H6    H     H_    0.830646 0.386487 0.886487 0.383169
H7    H     H_    0.326367 0.692672 0.289813 0.363490
H8    H     H_    0.673565 0.307175 0.710032 0.363529
N1    N     N_R   0.027972 0.479807 0.338477 -0.105727
N2    N     N_R   0.972009 0.519674 0.661408 -0.105794
N3    N     N_R   0.959405 0.472915 0.340553 -0.208958
N4    N     N_R   0.040576 0.526567 0.659332 -0.208967
N5    N     N_2   0.480680 0.456420 0.038530 0.070781
N6    N     N_2   0.519320 0.543580 0.961470 0.070754
O1    O     O_R   0.505010 0.286130 0.619770 -0.474343
O2    O     O_3   0.708629 0.538101 0.187453 -0.586138
O3    O     O_3   0.139780 0.594798 0.209836 -0.629983
O4    O     O_3   0.860166 0.404788 0.790049 -0.629885
O5    O     O_3   0.284530 0.624537 0.228967 -0.654462
O6    O     O_3   0.715424 0.375216 0.770913 -0.654457
O7    O     O_R   0.494990 0.713870 0.380230 -0.474318
O8    O     O_R   0.491990 0.256780 0.308370 -0.445248
O9    O     O_R   0.508010 0.743220 0.691630 -0.445250
O10   O     O_R   0.406650 0.514660 0.655750 -0.488530
O11   O     O_R   0.593350 0.485340 0.344250 -0.488519
O12   O     O_R   0.393640 0.485310 0.344340 -0.469133
O13   O     O_R   0.606360 0.514690 0.655660 -0.469186
O14   O     O_3   0.291395 0.462051 0.812662 -0.585999

loop_
_geom_bond_atom_site_label_1
_geom_bond_atom_site_label_2
_ccdc_geom_bond_type
C1    O1    A    
C2    C4    A    
C19   O2    S    
C1    O8    A    
H8    O6    S    
C20   H1    S    
Cu2   O12   S    
H7    O5    S    
C18   C20   A    
C3    C13   S    
C12   C15   S    
Cu2   O8    S    
C10   C19   A    
C7    C9    A    
C17   O11   A    
N2    N4    A    
C12   O9    A    
H6    O4    S    
C5    C7    A    
C3    C20   A    
C6    O4    S    
Cu2   O11   S    
C4    C11   S    
C13   N4    A    
H5    O3    S    
Cu2   O7    S    
C12   O7    A    
Cl3   N5    S    
C7    O5    S    
C14   Cl1   S    
C4    C6    A    
C11   N2    A    
Cl4   N6    S    
C9    C16   S    
C16   O10   A    
C13   N1    A    
C8    O6    S    
Cu1   N6    S    
C5    O3    S    
C14   C15   D    
Cu1   O9    S    
Cu2   N5    S    
C2    H2    S    
H3    O14   S    
C18   O14   S    
C10   C17   S    
C17   O13   A    
C9    C18   A    
C8    C10   A    
Cu1   O1    S    
N5    N6    D    
C11   N3    A    
Cu1   O10   S    
H4    O2    S    
C6    C8    A    
C1    C14   S    
N1    N3    A    
Cu1   Cu2   S    
C2    C19   A    
C15   Cl2   S    
C16   O12   A    
Cu1   O13   S    
C3    C5    A    
