data_mof_unit_31551.cif
_audit_creation_date              2012-12-11T16:07:25-0500
_audit_creation_method            fapswitch 2.2
_symmetry_space_group_name_H-M    P1
_symmetry_Int_Tables_number       1
_space_group_crystal_system       triclinic
_cell_length_a                    6.924096
_cell_length_b                    14.365602
_cell_length_c                    15.953985
_cell_angle_alpha                 90.193233
_cell_angle_beta                  90.07177
_cell_angle_gamma                 89.987539
_cell_volume                      1586.91355438

loop_
_atom_site_label
_atom_site_type_symbol
_atom_type_description
_atom_site_fract_x
_atom_site_fract_y
_atom_site_fract_z
_atom_type_partial_charge
O1    O     O_R   0.494320 0.415010 0.412140 -0.516884
O2    O     O_R   0.824010 0.404260 0.587250 -0.545309
O3    O     O_R   0.994320 0.584990 0.587860 -0.546567
C1    C     C_R   0.655294 0.381827 0.616345 0.710412
O4    O     O_R   0.824040 0.403870 0.412760 -0.548877
O5    O     O_R   0.994350 0.584590 0.412130 -0.506736
C2    C     C_R   0.655092 0.381993 0.383036 0.777057
O6    O     O_R   0.494300 0.415410 0.587870 -0.550966
O7    O     O_3   0.660800 0.559290 0.500000 -0.362451
V1    V     V_3+5 0.935650 0.489000 0.500000 1.485375
O8    O     O_R   0.324060 0.595740 0.412750 -0.543533
C3    C     C_R   0.154265 0.618774 0.383998 0.734441
O9    O     O_R   0.324040 0.596130 0.587240 -0.543278
C4    C     C_R   0.154944 0.618329 0.616209 0.719803
V2    V     V_3+5 0.435660 0.511000 0.500000 1.491053
O10   O     O_3   0.160640 0.440710 0.500000 -0.375459
C5    C     C_3   0.952194 0.723493 0.726748 -0.213227
C6    C     C_3   0.045649 0.711312 0.813732 0.329017
C7    C     C_3   0.123177 0.811085 0.811960 -0.072614
C8    C     C_3   0.031971 0.824854 0.724250 -0.173837
C9    C     C_3   0.221939 0.788969 0.683048 -0.169049
C10   C     C_3   0.313716 0.776028 0.771470 -0.226060
C11   C     C_3   0.231887 0.676317 0.773553 0.318509
C12   C     C_3   0.142797 0.688344 0.686359 -0.066659
H1    H     H_    0.949456 0.887136 0.704013 0.119960
H2    H     H_    0.294368 0.821083 0.628262 0.126940
C13   C     C_3   0.263624 0.846876 0.258023 0.225313
C14   C     C_3   0.272956 0.775023 0.331073 -0.395190
H3    H     H_    0.424366 0.750856 0.338131 0.139536
H4    H     H_    0.334352 0.724138 0.125008 0.164727
C15   C     C_3   0.191622 0.716739 0.156287 -0.447570
C16   C     C_3   0.918874 0.799446 0.228869 -0.375037
C17   C     C_3   0.121054 0.813074 0.188368 0.041283
H5    H     H_    0.863808 0.867848 0.251555 0.163614
C18   C     C_3   0.139724 0.689952 0.313316 0.035744
C19   C     C_3   0.209528 0.646130 0.229418 -0.437440
C20   C     C_3   0.927001 0.728028 0.302460 0.670807
H6    H     H_    0.088801 0.689272 0.108582 0.174726
C21   C     C_3   0.508975 0.228596 0.663922 0.185124
C22   C     C_3   0.500023 0.155545 0.735936 -0.401314
H7    H     H_    0.551613 0.086257 0.714014 0.148760
H8    H     H_    0.411868 0.383603 0.755838 0.086842
H9    H     H_    0.394542 0.278385 0.861551 0.107944
C23   C     C_3   0.560902 0.357621 0.768900 0.185021
C24   C     C_3   0.848548 0.272557 0.710020 -0.313293
C25   C     C_3   0.644998 0.311655 0.687675 -0.008520
H10   H     H_    0.917838 0.240337 0.654210 0.137525
C26   C     C_3   0.623133 0.187901 0.811901 0.018392
C27   C     C_3   0.547494 0.284579 0.840912 -0.296455
C28   C     C_3   0.835252 0.200311 0.781234 -0.326310
C29   C     C_3   0.548200 0.356301 0.231881 0.141179
H11   H     H_    0.642324 0.414513 0.210200 0.074120
C30   C     C_3   0.529717 0.283055 0.159851 -0.381971
H12   H     H_    0.595836 0.310649 0.101566 0.106409
H13   H     H_    0.374652 0.270811 0.144926 0.209211
H14   H     H_    0.373904 0.246993 0.351973 0.133244
H15   H     H_    0.361860 0.138836 0.247129 0.171644
C31   C     C_3   0.524090 0.224414 0.336750 0.227604
C32   C     C_3   0.849877 0.278878 0.285445 -0.432368
C33   C     C_3   0.643990 0.311863 0.311207 0.027468
H16   H     H_    0.923858 0.245997 0.339811 0.185447
C34   C     C_3   0.624963 0.189433 0.185112 -0.019348
C35   C     C_3   0.515709 0.152755 0.263208 -0.449082
C36   C     C_3   0.839776 0.207799 0.212219 0.232305
H17   H     H_    0.901318 0.140977 0.235308 0.141202
O11   O     O_R   0.771990 0.083520 0.910980 -0.544092
O12   O     O_R   0.442180 0.095020 0.086060 -0.537190
O13   O     O_R   0.271950 0.914280 0.086680 -0.545714
C37   C     C_R   0.611838 0.118431 0.114433 0.718673
O14   O     O_R   0.442270 0.094630 0.911580 -0.546581
O15   O     O_R   0.272040 0.913890 0.910940 -0.547321
C38   C     C_R   0.611449 0.117271 0.882642 0.679027
O16   O     O_R   0.771900 0.083910 0.086710 -0.518939
O17   O     O_3   0.605520 0.939610 0.998840 -0.373426
V3    V     V_3+5 0.330640 0.009880 0.998810 1.432899
O18   O     O_R   0.942330 0.902710 0.911540 -0.534375
C39   C     C_R   0.111388 0.880500 0.882604 0.720668
O19   O     O_R   0.942240 0.903100 0.086030 -0.547023
C40   C     C_R   0.111006 0.881998 0.116146 0.733918
V4    V     V_3+5 0.830640 0.987830 0.998780 1.448800
O20   O     O_3   0.105630 0.058150 0.998800 -0.357491
O21   O     O_3   0.956107 0.670751 0.883079 -0.653244
H18   H     H_    0.917519 0.607554 0.864385 0.308382
H19   H     H_    0.363113 0.624209 0.235592 0.191544
H20   H     H_    0.813921 0.775672 0.180411 0.120933
O22   O     O_3   0.873630 0.773199 0.377471 -0.642793
H21   H     H_    0.736522 0.792200 0.371985 0.283796
O23   O     O_3   0.794826 0.654685 0.287728 -0.657028
H22   H     H_    0.818409 0.628442 0.231118 0.254050
H23   H     H_    0.126432 0.582015 0.214552 0.144433
H24   H     H_    0.360413 0.256654 0.655181 0.109672
H25   H     H_    0.803508 0.701701 0.709411 0.138522
O24   O     O_3   0.562106 0.187171 0.587347 -0.635589
H26   H     H_    0.683220 0.151679 0.596096 0.306524
H27   H     H_    0.346942 0.146226 0.755463 0.129447
H28   H     H_    0.945634 0.330228 0.730108 0.176579
H29   H     H_    0.893040 0.132469 0.758480 0.132913
H30   H     H_    0.928572 0.223412 0.834241 0.160108
O25   O     O_3   0.676884 0.432620 0.795377 -0.640395
H31   H     H_    0.644813 0.486459 0.759107 0.297417
H32   H     H_    0.632002 0.308348 0.896405 0.166815
O26   O     O_3   0.364764 0.392169 0.251624 -0.649237
H33   H     H_    0.326102 0.432704 0.204207 0.280645
H34   H     H_    0.939397 0.340029 0.267567 0.165581
O27   O     O_3   0.955993 0.236334 0.144503 -0.638456
H35   H     H_    0.917421 0.300302 0.128434 0.285396
O28   O     O_3   0.605667 0.182799 0.408025 -0.639750
H36   H     H_    0.510644 0.136173 0.428087 0.312742
H37   H     H_    0.579563 0.085079 0.282786 0.144123
H38   H     H_    0.462580 0.796350 0.789922 0.138954
O29   O     O_3   0.333596 0.597332 0.799211 -0.658627
H39   H     H_    0.378412 0.611372 0.856910 0.300707
H40   H     H_    0.410771 0.853038 0.229994 0.077378
O30   O     O_3   0.206198 0.934552 0.288489 -0.652611
H41   H     H_    0.317257 0.960002 0.320623 0.276205
H42   H     H_    0.232798 0.808427 0.391609 0.180676

loop_
_geom_bond_atom_site_label_1
_geom_bond_atom_site_label_2
_ccdc_geom_bond_type
C23   C27   S    
C9    H2    S    
O24   H26   S    
C20   O23   S    
C7    C8    S    
C1    O6    A    
O30   H41   S    
C36   O27   S    
C1    C25   S    
C30   H12   S    
C13   C17   S    
C29   O26   S    
C32   C36   S    
C32   H34   S    
C14   H3    S    
C18   C20   S    
C6    C7    S    
C15   C19   S    
C27   H32   S    
H4    C15   S    
C23   O25   S    
O19   V4    S    
C8    H1    S    
C31   C33   S    
V2    O10   S    
C5    C8    S    
C31   O28   S    
C4    C12   S    
C7    C39   S    
C21   O24   S    
C34   C36   S    
C14   H42   S    
O1    C2    A    
O8    V2    S    
O11   C38   A    
O29   H39   S    
C14   C18   S    
C10   H38   S    
O28   H36   S    
C15   C17   S    
C37   O16   A    
O1    V2    S    
O7    V1    S    
O13   C40   A    
C30   H13   S    
C32   C33   S    
O17   V4    S    
O9    C4    A    
C5    H25   S    
H8    C23   S    
C26   C38   S    
O5    C3    A    
C21   H24   S    
C23   C25   S    
H15   C35   S    
C24   H10   S    
C28   H30   S    
C5    C12   S    
C32   H16   S    
O17   V3    S    
C6    C11   S    
C20   O22   S    
C7    C10   S    
O18   C39   A    
C21   C22   S    
O4    C2    A    
O19   C40   A    
H9    C27   S    
C24   C25   S    
C29   H11   S    
C34   C37   S    
O12   C37   A    
C18   C19   S    
C16   H5    S    
C35   H37   S    
O2    C1    A    
C34   C35   S    
C30   C34   S    
O25   H31   S    
C11   C12   S    
C5    C6    S    
C16   C20   S    
C8    C9    S    
C3    C18   S    
O3    C4    A    
C21   C25   S    
C13   H40   S    
C22   H7    S    
O6    V2    S    
O9    V2    S    
O12   V3    S    
C22   H27   S    
O2    V1    S    
C2    C33   S    
O15   C39   A    
O11   V4    S    
C19   H23   S    
C31   C35   S    
C22   C26   S    
C26   C27   S    
C28   H29   S    
O22   H21   S    
C17   C40   S    
O18   V4    S    
V4    O20   S    
O5    V1    S    
O8    C3    A    
V3    O20   S    
C11   O29   S    
O27   H35   S    
C15   H6    S    
C16   C17   S    
O7    V2    S    
O4    V1    S    
O3    V1    S    
V1    O10   S    
C36   H17   S    
O15   V3    S    
O13   V3    S    
C24   C28   S    
C19   H19   S    
C16   H20   S    
C26   C28   S    
C6    O21   S    
O16   V4    S    
H14   C31   S    
O26   H33   S    
C13   O30   S    
O23   H22   S    
O21   H18   S    
C9    C12   S    
O14   V3    S    
C10   C11   S    
O14   C38   A    
C29   C33   S    
C29   C30   S    
C9    C10   S    
C24   H28   S    
C13   C14   S    
