data_mof_unit_48419.cif
_audit_creation_date              2012-12-11T13:59:54-0500
_audit_creation_method            fapswitch 2.2
_symmetry_space_group_name_H-M    P1
_symmetry_Int_Tables_number       1
_space_group_crystal_system       triclinic
_cell_length_a                    11.233242
_cell_length_b                    11.243528
_cell_length_c                    18.609389
_cell_angle_alpha                 89.816453
_cell_angle_beta                  90.369403
_cell_angle_gamma                 120.07891
_cell_volume                      2033.8342736

loop_
_atom_site_label
_atom_site_type_symbol
_atom_type_description
_atom_site_fract_x
_atom_site_fract_y
_atom_site_fract_z
_atom_type_partial_charge
C1    C     C_R   0.579482 0.452706 0.861930 0.524476
C2    C     C_R   0.478711 0.546037 0.353467 0.548601
C3    C     C_R   0.067790 0.521496 0.353411 0.551128
C4    C     C_R   0.459468 0.940390 0.350182 0.553010
C5    C     C_2   0.020827 0.513982 0.585448 -0.103674
C6    C     C_2   0.484747 0.507272 0.585539 -0.107970
C7    C     C_2   0.506809 0.028734 0.571866 -0.091550
C8    C     C_2   0.514394 0.020786 0.414827 -0.109855
C9    C     C_2   0.492100 0.522221 0.428582 -0.100571
C10   C     C_2   0.029851 0.507811 0.428268 -0.092036
C11   C     C_2   0.091676 0.460790 0.473173 -0.147776
C12   C     C_R   0.547815 0.126828 0.861827 0.525453
C13   C     C_2   0.537399 0.631097 0.473018 -0.149978
C14   C     C_2   0.438681 0.060667 0.450970 -0.164030
C15   C     C_2   0.460696 0.091317 0.526987 -0.150346
C16   C     C_2   0.560075 0.622956 0.549082 -0.162911
C17   C     C_2   0.060445 0.438243 0.549075 -0.163038
C18   C     C_2   0.919237 0.451273 0.935589 -0.109192
C19   C     C_2   0.548055 0.468416 0.935518 -0.108196
C20   C     C_2   0.532450 0.079649 0.935505 -0.108299
C21   C     C_2   0.514794 0.034313 0.088680 -0.111615
C22   C     C_2   0.518654 0.485142 0.088654 -0.111581
C23   C     C_R   0.872801 0.420232 0.861679 0.525227
C24   C     C_2   0.964688 0.480474 0.088760 -0.111649
C25   C     C_2   0.956179 0.574661 0.048426 -0.160423
C26   C     C_2   0.424171 0.382537 0.048251 -0.160410
C27   C     C_2   0.618494 0.043870 0.049228 -0.159685
C28   C     C_2   0.640080 0.098305 0.975745 -0.169960
C29   C     C_2   0.457694 0.361076 0.975062 -0.168477
C30   C     C_2   0.901499 0.541095 0.974926 -0.169210
C31   C     C_R   0.481173 0.540634 0.149044 0.564715
C32   C     C_R   0.058918 0.518522 0.149131 0.563952
C33   C     C_R   0.459340 0.940904 0.149139 0.562313
C34   C     C_R   0.540378 0.481241 0.649930 0.571392
C35   C     C_R   0.521047 0.067123 0.646716 0.568897
C36   C     C_R   0.940326 0.459272 0.649898 0.573837
Cr1   Cr    Cr6+3 0.464030 0.233680 0.750360 1.021800
Cr2   Cr    Cr6+3 0.766320 0.230350 0.750360 1.025923
Cr3   Cr    Cr6+3 0.769650 0.535970 0.750360 1.025714
Cr4   Cr    Cr6+3 0.233680 0.464030 0.249640 1.021997
Cr5   Cr    Cr6+3 0.230350 0.766320 0.249640 1.026614
Cr6   Cr    Cr6+3 0.535970 0.769650 0.249640 1.022601
H1    H     H_    0.160502 0.427047 0.452884 0.156223
H2    H     H_    0.541162 0.959489 0.553342 0.088133
H3    H     H_    0.391114 0.423117 0.562660 0.095707
H4    H     H_    0.030349 0.607438 0.562603 0.109911
H5    H     H_    0.001547 0.680580 0.066240 0.152883
H6    H     H_    0.318220 0.321746 0.065905 0.152665
H7    H     H_    0.679985 0.999882 0.067825 0.153176
H8    H     H_    0.742310 0.143359 0.952832 0.141597
H9    H     H_    0.399815 0.259072 0.951690 0.142942
H10   H     H_    0.857380 0.598772 0.951171 0.143079
H11   H     H_    0.913136 0.373335 0.072263 0.106996
H12   H     H_    0.569972 0.733368 0.452230 0.154242
H13   H     H_    0.625815 0.541004 0.072336 0.107267
H14   H     H_    0.458328 0.084692 0.071537 0.106667
H15   H     H_    0.428750 0.027468 0.956976 0.119328
H16   H     H_    0.600471 0.571949 0.957377 0.118614
H17   H     H_    0.970565 0.399207 0.957832 0.118224
H18   H     H_    0.350110 0.059590 0.426398 0.153920
H19   H     H_    0.427577 0.160634 0.547303 0.150022
H20   H     H_    0.649086 0.710433 0.573281 0.155237
H21   H     H_    0.058827 0.349383 0.573325 0.154231
H22   H     H_    0.961172 0.542857 0.446766 0.093695
H23   H     H_    0.458292 0.418760 0.447564 0.083611
H24   H     H_    0.607594 0.029719 0.438022 0.104001
O1    O     O_R   0.434100 0.092480 0.829780 -0.506528
O2    O     O_R   0.362730 0.477510 0.175360 -0.494641
O3    O     O_R   0.114780 0.637270 0.175360 -0.494938
O4    O     O_R   0.522490 0.885220 0.175360 -0.495511
O5    O     O_R   0.432250 0.092620 0.670380 -0.507395
O6    O     O_R   0.907380 0.339630 0.670380 -0.507247
O7    O     O_R   0.660370 0.567750 0.670380 -0.505134
O8    O     O_R   0.092620 0.432250 0.329620 -0.518609
O9    O     O_R   0.339630 0.907380 0.329620 -0.513339
O10   O     O_R   0.567750 0.660370 0.329620 -0.514885
O11   O     O_R   0.475790 0.362860 0.676880 -0.500676
O12   O     O_R   0.907520 0.341620 0.829780 -0.508552
O13   O     O_R   0.637140 0.112930 0.676880 -0.487847
O14   O     O_R   0.887070 0.524210 0.676880 -0.491765
O15   O     O_R   0.362860 0.475790 0.323120 -0.505335
O16   O     O_R   0.112930 0.637140 0.323120 -0.496024
O17   O     O_R   0.524210 0.887070 0.323120 -0.509322
O18   O     O_3   0.666667 0.333333 0.749450 -0.307463
O19   O     O_3   0.333333 0.666667 0.250550 -0.248118
O20   O     O_R   0.658380 0.565900 0.829780 -0.508614
O21   O     O_R   0.092480 0.434100 0.170220 -0.515784
O22   O     O_R   0.341620 0.907520 0.170220 -0.517565
O23   O     O_R   0.565900 0.658380 0.170220 -0.515469
O24   O     O_R   0.477510 0.362730 0.824640 -0.492687
O25   O     O_R   0.637270 0.114780 0.824640 -0.491448
O26   O     O_R   0.885220 0.522490 0.824640 -0.492689

loop_
_geom_bond_atom_site_label_1
_geom_bond_atom_site_label_2
_ccdc_geom_bond_type
C8    H24   S    
C1    O24   A    
C6    H3    S    
C12   O25   A    
C4    C8    S    
Cr1   O24   S    
Cr4   O21   S    
C33   O22   A    
Cr3   O18   S    
C34   O11   A    
C21   C33   S    
Cr2   O13   S    
C5    C36   S    
Cr6   O4    S    
C3    O8    A    
C9    C13   D    
C4    O9    A    
C28   H8    S    
C31   O23   A    
Cr1   O18   S    
C11   H1    S    
C18   C30   D    
C25   H5    S    
C20   C28   D    
C26   H6    S    
C7    C15   D    
C21   C27   D    
C35   O5    A    
C16   H20   S    
C19   H16   S    
C31   O2    A    
C12   O1    A    
Cr2   O6    S    
C1    C19   S    
C22   C31   S    
C18   C23   S    
C24   C25   D    
C36   O14   A    
C25   C30   S    
Cr2   O12   S    
C24   H11   S    
C32   O21   A    
Cr1   O11   S    
Cr2   O25   S    
C6    C34   S    
Cr4   O19   S    
C24   C32   S    
Cr5   O9    S    
C12   C20   S    
C3    O16   A    
C15   H19   S    
Cr6   O19   S    
C7    H2    S    
C32   O3    A    
C33   O4    A    
Cr1   O5    S    
Cr4   O2    S    
C19   C29   D    
Cr3   O26   S    
C2    O10   A    
Cr5   O3    S    
C13   H12   S    
C29   H9    S    
C14   H18   S    
Cr5   O22   S    
C30   H10   S    
C11   C17   S    
C8    C14   D    
Cr2   O18   S    
C14   C15   S    
C7    C35   S    
Cr4   O15   S    
C10   H22   S    
Cr6   O17   S    
C21   H14   S    
C22   H13   S    
Cr5   O19   S    
C5    H4    S    
Cr6   O10   S    
Cr6   O23   S    
Cr3   O14   S    
C3    C10   S    
C17   H21   S    
C4    O17   A    
Cr5   O16   S    
Cr1   O1    S    
C35   O13   A    
Cr4   O8    S    
Cr3   O7    S    
C23   O12   A    
C9    H23   S    
C10   C11   D    
C34   O7    A    
C6    C16   D    
C36   O6    A    
C18   H17   S    
C1    O20   A    
C5    C17   D    
C26   C29   S    
C22   C26   D    
C13   C16   S    
C27   C28   S    
C23   O26   A    
C2    O15   A    
Cr3   O20   S    
C20   H15   S    
C2    C9    S    
C27   H7    S    
