data_mof_unit_41664.cif
_audit_creation_date              2012-12-10T17:51:25-0500
_audit_creation_method            fapswitch 2.2
_symmetry_space_group_name_H-M    P1
_symmetry_Int_Tables_number       1
_space_group_crystal_system       triclinic
_cell_length_a                    14.691547
_cell_length_b                    14.677312
_cell_length_c                    17.354849
_cell_angle_alpha                 105.880799
_cell_angle_beta                  73.136277
_cell_angle_gamma                 115.022631
_cell_volume                      3195.66619876

loop_
_atom_site_label
_atom_site_type_symbol
_atom_type_description
_atom_site_fract_x
_atom_site_fract_y
_atom_site_fract_z
_atom_type_partial_charge
C1    C     C_R   0.118852 0.688407 0.513483 0.810801
C2    C     C_R   0.881313 0.311618 0.484735 0.813440
C3    C     C_R   0.186129 0.796748 0.516144 -0.093324
C4    C     C_R   0.815153 0.203076 0.469539 -0.092258
C5    C     C_R   0.212168 0.975259 0.527278 0.097502
C6    C     C_R   0.792701 0.023558 0.421531 0.098794
C7    C     C_R   0.146615 0.872490 0.529483 -0.201199
C8    C     C_R   0.856516 0.127271 0.437286 -0.202523
C9    C     C_R   0.291566 0.822825 0.501283 -0.257081
C10   C     C_R   0.709667 0.176600 0.484264 -0.263980
C11   C     C_R   0.360449 0.922378 0.492978 0.070307
C12   C     C_R   0.643159 0.075466 0.465381 0.069197
C13   C     C_R   0.320288 0.999924 0.507835 0.111243
C14   C     C_R   0.684541 0.997590 0.437793 0.112809
C15   C     C_R   0.468476 0.946638 0.471924 0.078052
C16   C     C_R   0.535855 0.050179 0.476121 0.078776
C17   C     C_R   0.494297 0.125146 0.488212 -0.218086
C18   C     C_R   0.511370 0.870595 0.444712 -0.217730
C19   C     C_R   0.389416 0.100410 0.502711 -0.241894
C20   C     C_R   0.616545 0.895557 0.427077 -0.239698
C21   C     C_R   0.290912 0.323099 0.367808 -0.328426
C22   C     C_R   0.707759 0.675191 0.633684 -0.323576
C23   C     C_R   0.990505 0.504664 0.652625 0.794979
C24   C     C_R   0.009674 0.495634 0.347392 0.793992
C25   C     C_R   0.209234 0.355324 0.387186 0.067765
C26   C     C_R   0.790041 0.643755 0.613639 0.068355
C27   C     C_R   0.286908 0.492005 0.486925 0.001671
C28   C     C_R   0.713091 0.507926 0.513058 0.001696
C29   C     C_R   0.373074 0.463624 0.469720 -0.022271
C30   C     C_R   0.626272 0.535447 0.530995 -0.023442
C31   C     C_R   0.372747 0.376529 0.408991 0.166610
C32   C     C_R   0.626070 0.621892 0.592331 0.165167
C33   C     C_R   0.458113 0.517110 0.510750 0.074337
C34   C     C_R   0.541063 0.481734 0.490158 0.077731
C35   C     C_R   0.535709 0.393701 0.429804 -0.245184
C36   C     C_R   0.463130 0.604732 0.571512 -0.240012
C37   C     C_R   0.453423 0.342631 0.390154 -0.208561
C38   C     C_R   0.545035 0.655335 0.611593 -0.198525
C39   C     C_R   0.989278 0.512215 0.738529 -0.030231
C40   C     C_R   0.011756 0.489492 0.261553 -0.029364
C41   C     C_R   0.068976 0.501751 0.759846 -0.208045
C42   C     C_R   0.933175 0.501928 0.240242 -0.206359
C43   C     C_R   0.069041 0.509895 0.841308 -0.149346
C44   C     C_R   0.934222 0.495652 0.158853 -0.148947
C45   C     C_R   0.988611 0.527336 0.902541 0.192576
C46   C     C_R   0.014662 0.478083 0.097694 0.192511
C47   C     C_R   0.910553 0.540725 0.881637 -0.171148
C48   C     C_R   0.091642 0.462858 0.118585 -0.171374
C49   C     C_R   0.910506 0.532767 0.799949 -0.195732
C50   C     C_R   0.090582 0.468970 0.200193 -0.195149
C51   C     C_2   0.984099 0.531424 0.988668 -0.230723
C52   C     C_2   0.019888 0.474888 0.011589 -0.229783
Cu1   Cu    Cu3+1 0.916740 0.524770 0.521640 0.933389
Cu2   Cu    Cu3+1 0.083260 0.475230 0.478360 0.933110
H1    H     H_    0.131758 0.487932 0.713727 0.153462
H2    H     H_    0.870430 0.515905 0.286305 0.153594
H3    H     H_    0.541461 0.203841 0.483467 0.141703
H4    H     H_    0.465858 0.790210 0.432921 0.145466
H5    H     H_    0.452833 0.275369 0.344251 0.144287
H6    H     H_    0.545154 0.722017 0.658060 0.141873
H7    H     H_    0.721335 0.445369 0.465716 0.121844
H8    H     H_    0.279138 0.555204 0.533683 0.120831
H9    H     H_    0.853710 0.685626 0.644791 0.122496
H10   H     H_    0.145377 0.313244 0.356256 0.120149
H11   H     H_    0.289688 0.256211 0.321342 0.136042
H12   H     H_    0.708409 0.741399 0.680789 0.136475
H13   H     H_    0.594023 0.361610 0.411794 0.129995
H14   H     H_    0.404660 0.636645 0.589778 0.131857
H15   H     H_    0.151530 0.458092 0.215146 0.153621
H16   H     H_    0.848752 0.542233 0.784981 0.153539
H17   H     H_    0.056337 0.426603 0.966284 0.145390
H18   H     H_    0.947579 0.579682 0.033914 0.144634
H19   H     H_    0.848642 0.555333 0.928446 0.123961
H20   H     H_    0.153507 0.448071 0.071832 0.124199
H21   H     H_    0.871447 0.503426 0.144116 0.124348
H22   H     H_    0.132545 0.503473 0.856062 0.124985
H23   H     H_    0.363817 0.162013 0.510398 0.150969
H24   H     H_    0.643203 0.832951 0.406180 0.144589
H25   H     H_    0.680303 0.236359 0.513078 0.158375
H26   H     H_    0.318336 0.763659 0.497654 0.152536
H27   H     H_    0.938800 0.150452 0.425136 0.145643
H28   H     H_    0.064406 0.849994 0.541375 0.148765
N1    N     N_R   0.208390 0.438070 0.445820 -0.175162
N2    N     N_R   0.791610 0.561930 0.554180 -0.176162
O1    O     O_R   0.020090 0.662480 0.528530 -0.591383
O2    O     O_R   0.979910 0.337520 0.471470 -0.591514
O3    O     O_R   0.160710 0.620650 0.491980 -0.588255
O4    O     O_R   0.839290 0.379350 0.508020 -0.588328
O5    O     O_R   0.921540 0.523360 0.633990 -0.587298
O6    O     O_R   0.078460 0.476640 0.366010 -0.587473
O7    O     O_R   0.062170 0.481520 0.597440 -0.587827
O8    O     O_R   0.937830 0.518480 0.402560 -0.589307
C53   C     C_3   0.169138 0.058912 0.544795 -0.414929
C54   C     C_3   0.052042 0.026028 0.571805 -0.372782
C55   C     C_3   0.019568 0.117063 0.589750 -0.830371
H29   H     H_    0.051228 0.173615 0.642005 0.255180
H30   H     H_    0.047256 0.154753 0.535391 0.249647
H31   H     H_    0.934622 0.090536 0.605680 0.245215
H32   H     H_    0.014166 0.968298 0.522796 0.222890
H33   H     H_    0.025524 0.992171 0.628151 0.220604
H34   H     H_    0.203454 0.119152 0.594459 0.201901
H35   H     H_    0.193555 0.092950 0.488721 0.198389
C56   C     C_3   0.837653 0.940280 0.387686 -0.414471
C57   C     C_3   0.955238 0.976798 0.363766 -0.373631
C58   C     C_3   0.990194 0.886613 0.331874 -0.835356
H36   H     H_    0.963947 0.838687 0.379634 0.252641
H37   H     H_    0.959094 0.839156 0.276587 0.253867
H38   H     H_    0.075225 0.915320 0.315476 0.243778
H39   H     H_    0.983982 0.024235 0.315303 0.218827
H40   H     H_    0.989669 0.023073 0.417618 0.226160
H41   H     H_    0.810465 0.890367 0.434200 0.200789
H42   H     H_    0.807365 0.893636 0.331803 0.197896

loop_
_geom_bond_atom_site_label_1
_geom_bond_atom_site_label_2
_ccdc_geom_bond_type
C1    O3    A    
C15   C18   A    
C30   C32   A    
C53   C54   S    
C29   C33   A    
C28   N2    A    
C55   H29   S    
C4    C8    A    
C55   H31   S    
C39   C41   A    
Cu1   Cu2   S    
C58   H37   S    
C22   C32   A    
Cu1   N2    S    
C35   C37   A    
C50   H15   S    
Cu2   O6    S    
C3    C7    A    
Cu2   O3    S    
C23   C39   S    
C27   C29   A    
C45   C51   S    
C15   C16   A    
C46   C52   S    
C33   C36   A    
C56   H41   S    
C34   C35   A    
C19   H23   S    
Cu2   N1    S    
C42   H2    S    
C11   C15   A    
C18   H4    S    
C22   H12   S    
C12   C16   A    
C16   C17   A    
C23   O5    A    
C2    O4    A    
C32   C38   A    
C41   H1    S    
C5    C13   A    
C28   H7    S    
C40   C42   A    
C41   C43   A    
C42   C44   A    
C24   O8    A    
C57   C58   S    
C44   C46   A    
C45   C47   A    
C1    O1    A    
C58   H38   S    
C46   C48   A    
C30   C34   A    
C8    H27   S    
C48   H20   S    
C47   H19   S    
C47   C49   A    
C53   H34   S    
Cu2   O2    S    
C13   C19   A    
C17   C19   A    
C6    C8    A    
C51   C52   D    
C56   H42   S    
C1    C3    S    
C9    H26   S    
C44   H21   S    
C2    C4    S    
C26   H9    S    
C3    C9    A    
C27   H8    S    
C14   C20   A    
C6    C14   A    
C21   C31   A    
C54   H33   S    
Cu1   O8    S    
C36   H14   S    
C33   C34   A    
C6    C56   S    
C9    C11   A    
C37   H5    S    
C10   C12   A    
C38   H6    S    
C39   C49   A    
C12   C14   A    
C49   H16   S    
Cu1   O5    S    
C23   O7    A    
C51   H18   S    
C4    C10   A    
C5    C7    A    
C43   H22   S    
C21   C25   A    
C26   N2    A    
C21   H11   S    
C24   O6    A    
C53   H35   S    
C5    C53   S    
C10   H25   S    
C55   H30   S    
C58   H36   S    
C20   H24   S    
C36   C38   A    
Cu2   O7    S    
C43   C45   A    
C52   H17   S    
C57   H40   S    
C11   C13   A    
C57   H39   S    
C54   H32   S    
C40   C50   A    
C48   C50   A    
C24   C40   S    
C28   C30   A    
C2    O2    A    
Cu1   O4    S    
C18   C20   A    
C54   C55   S    
C35   H13   S    
C27   N1    A    
C31   C37   A    
C7    H28   S    
C29   C31   A    
C22   C26   A    
C56   C57   S    
C25   N1    A    
Cu1   O1    S    
C25   H10   S    
C17   H3    S    
