data_mof_unit_60664.cif
_audit_creation_date              2012-12-10T16:51:51-0500
_audit_creation_method            fapswitch 2.2
_symmetry_space_group_name_H-M    P1
_symmetry_Int_Tables_number       1
_space_group_crystal_system       triclinic
_cell_length_a                    18.363934
_cell_length_b                    18.373538
_cell_length_c                    18.388972
_cell_angle_alpha                 90.830564
_cell_angle_beta                  119.573511
_cell_angle_gamma                 119.442064
_cell_volume                      4420.38245221

loop_
_atom_site_label
_atom_site_type_symbol
_atom_type_description
_atom_site_fract_x
_atom_site_fract_y
_atom_site_fract_z
_atom_type_partial_charge
C1    C     C_R   0.777006 0.638837 0.638555 0.849796
C2    C     C_2   0.112689 0.307772 0.297811 -0.329105
C3    C     C_2   0.440189 0.162626 0.718778 -0.164071
C4    C     C_R   0.223030 0.361645 0.360097 0.859328
C5    C     C_2   0.504438 0.195442 0.807749 -0.295219
C6    C     C_2   0.442642 0.218808 0.662596 -0.163291
C7    C     C_2   0.498783 0.307765 0.695465 -0.294675
C8    C     C_2   0.056235 0.778641 0.718784 -0.163735
C9    C     C_2   0.112344 0.803258 0.807740 -0.295417
C10   C     C_2   0.943851 0.719909 0.662582 -0.162060
C11   C     C_2   0.887744 0.696817 0.695441 -0.295322
C12   C     C_3   0.568708 0.766879 0.835513 -0.130899
C13   C     C_2   0.438964 0.161030 0.222321 -0.170056
C14   C     C_2   0.509221 0.195325 0.204882 -0.285518
C15   C     C_2   0.443608 0.216926 0.282399 -0.170884
C16   C     C_R   0.500358 0.638844 0.361838 0.850934
C17   C     C_2   0.492230 0.304111 0.296935 -0.284586
C18   C     C_2   0.442700 0.780191 0.223841 -0.162183
C19   C     C_2   0.498998 0.803407 0.191141 -0.295501
C20   C     C_2   0.440127 0.721543 0.277550 -0.163865
C21   C     C_2   0.504400 0.696735 0.309034 -0.294894
C22   C     C_R   0.500460 0.138594 0.861616 0.851342
C23   C     C_3   0.593415 0.791829 0.766722 -0.176960
C24   C     C_R   0.499912 0.861236 0.138250 0.849231
C25   C     C_R   0.777106 0.138490 0.141083 0.807709
C26   C     C_R   0.223079 0.861208 0.861623 0.851511
C27   C     C_R   0.501478 0.140867 0.142420 0.858502
C28   C     C_R   0.499759 0.361582 0.638562 0.849812
C29   C     C_R   0.500192 0.858293 0.858374 0.776749
C30   C     C_R   0.498886 0.359027 0.358028 0.862415
C31   C     C_R   0.499889 0.641752 0.641666 0.775420
C32   C     C_3   0.474891 0.673393 0.766738 -0.176424
C33   C     C_3   0.406634 0.708206 0.733299 -0.177496
C34   C     C_3   0.525156 0.826641 0.733283 -0.177486
C35   C     C_3   0.500397 0.800886 0.801214 0.052133
C36   C     C_3   0.921929 0.267696 0.288280 -0.403124
C37   C     C_3   0.859536 0.233760 0.327877 -0.344281
C38   C     C_3   0.898731 0.308649 0.403555 -0.883185
C39   C     C_3   0.431341 0.733154 0.664507 -0.131725
C40   C     C_3   0.499656 0.699149 0.698809 0.052984
C41   C     C_2   0.944521 0.167640 0.217054 -0.201673
C42   C     C_2   0.885431 0.192440 0.214545 -0.002666
C43   C     C_2   0.055871 0.220164 0.280280 -0.176267
H1    H     H_    0.329928 0.674660 0.720371 0.134214
H2    H     H_    0.575412 0.263820 0.237959 0.148398
H3    H     H_    0.405088 0.185311 0.313832 0.179432
H4    H     H_    0.525873 0.336549 0.262439 0.147458
H5    H     H_    0.395086 0.803971 0.210134 0.175412
H6    H     H_    0.563545 0.719503 0.298032 0.150336
H7    H     H_    0.625222 0.781370 0.906477 0.146538
H8    H     H_    0.670119 0.825375 0.779647 0.134211
H9    H     H_    0.545802 0.890376 0.720346 0.134181
H10   H     H_    0.374827 0.718663 0.593543 0.145814
H11   H     H_    0.910063 0.106667 0.167907 0.159612
H12   H     H_    0.076947 0.341299 0.265950 0.160682
H13   H     H_    0.091294 0.185317 0.307317 0.183954
H14   H     H_    0.395113 0.184875 0.591332 0.174321
H15   H     H_    0.921685 0.721152 0.765598 0.150070
H16   H     H_    0.454239 0.609656 0.779672 0.134322
H17   H     H_    0.545227 0.779319 0.201112 0.150008
H18   H     H_    0.383604 0.699113 0.292258 0.175031
H19   H     H_    0.979533 0.337190 0.458154 0.260190
H20   H     H_    0.893158 0.361845 0.379073 0.265223
H21   H     H_    0.851786 0.282233 0.430251 0.250824
H22   H     H_    0.777753 0.204985 0.276276 0.227484
H23   H     H_    0.383772 0.091417 0.684840 0.174804
H24   H     H_    0.864913 0.181026 0.353786 0.220579
H25   H     H_    0.002697 0.300056 0.344470 0.224165
H26   H     H_    0.914825 0.318998 0.260505 0.207572
H27   H     H_    0.563483 0.265568 0.843983 0.150825
H28   H     H_    0.544896 0.344012 0.765653 0.150356
H29   H     H_    0.093553 0.801255 0.684883 0.175091
H30   H     H_    0.078406 0.780239 0.843924 0.150201
H31   H     H_    0.906528 0.695978 0.591338 0.175975
H32   H     H_    0.377022 0.090779 0.192646 0.180701
O1    O     O_3   0.500000 0.500000 0.500000 -0.487614
O2    O     O_R   0.270900 0.886160 0.946260 -0.646092
O3    O     O_R   0.560160 0.177420 0.117340 -0.650687
O4    O     O_R   0.729180 0.615300 0.675360 -0.644706
O5    O     O_R   0.440020 0.882760 0.822680 -0.642148
O6    O     O_R   0.439990 0.057240 0.117340 -0.647687
O7    O     O_R   0.560190 0.882760 0.942820 -0.646798
O8    O     O_R   0.729270 0.053840 0.113900 -0.650945
O9    O     O_R   0.270910 0.884750 0.824690 -0.643252
O10   O     O_R   0.560170 0.175430 0.946260 -0.642616
O11   O     O_R   0.440000 0.886160 0.115330 -0.643538
O12   O     O_R   0.439910 0.615300 0.386140 -0.643246
O13   O     O_R   0.270820 0.446200 0.386140 -0.647650
O14   O     O_R   0.560090 0.613880 0.384720 -0.645764
O15   O     O_R   0.439920 0.324620 0.553780 -0.645084
O16   O     O_R   0.560100 0.442800 0.382710 -0.648760
O17   O     O_R   0.560070 0.617290 0.677370 -0.640703
O18   O     O_R   0.439930 0.322630 0.382710 -0.648419
O19   O     O_R   0.439900 0.617290 0.557220 -0.647990
O20   O     O_R   0.560080 0.446200 0.675360 -0.644310
O21   O     O_R   0.729180 0.613880 0.553780 -0.642249
O22   O     O_R   0.270820 0.324620 0.384720 -0.641695
O23   O     O_3   0.500090 0.000040 0.000040 -0.485957
O24   O     O_R   0.440010 0.053840 0.824690 -0.643620
O25   O     O_R   0.560180 0.884750 0.113900 -0.645426
O26   O     O_R   0.729260 0.175430 0.115330 -0.645119
Zn1   Zn    Zn3+2 0.414150 0.543930 0.458110 0.959732
Zn2   Zn    Zn3+2 0.585850 0.541910 0.456060 0.964932
Zn3   Zn    Zn3+2 0.414160 0.370220 0.456060 0.959086
Zn4   Zn    Zn3+2 0.585840 0.543930 0.629770 0.966500
Zn5   Zn    Zn3+2 0.585940 0.956110 0.041940 0.957315
Zn6   Zn    Zn3+2 0.585930 0.129820 0.043980 0.959609
Zn7   Zn    Zn3+2 0.414240 0.958130 0.043980 0.959305
Zn8   Zn    Zn3+2 0.414250 0.956110 0.870280 0.962314

loop_
_geom_bond_atom_site_label_1
_geom_bond_atom_site_label_2
_ccdc_geom_bond_type
O26   Zn6   S    
O1    Zn3   S    
O1    Zn4   S    
C41   C42   D    
C36   C42   S    
C1    C11   S    
C3    C6    S    
C21   H6    S    
C12   C23   S    
C33   C39   S    
C28   O20   A    
C36   C37   S    
C18   C19   D    
C30   O18   A    
C2    H12   S    
C7    H28   S    
C23   C40   S    
O24   Zn8   S    
O23   Zn7   S    
C31   C40   S    
O4    Zn4   S    
C34   C35   S    
C22   O10   A    
C20   H18   S    
O20   Zn4   S    
C5    C22   S    
C13   H32   S    
C8    C9    D    
C37   H22   S    
O5    Zn8   S    
C16   O12   A    
C15   H3    S    
C14   C27   S    
C11   H15   S    
C27   O3    A    
O1    Zn2   S    
C32   C40   S    
O6    Zn7   S    
C16   O14   A    
O23   Zn8   S    
C13   C14   D    
C12   C32   S    
C17   C30   S    
C41   C43   S    
C6    H14   S    
C9    H30   S    
O18   Zn3   S    
C9    C26   S    
C14   H2    S    
C38   H21   S    
O1    Zn1   S    
C8    H29   S    
C26   O2    A    
C34   C39   S    
C27   O6    A    
C39   C40   S    
C7    C28   S    
O3    Zn6   S    
C2    C4    S    
C37   C38   S    
C4    O22   A    
O12   Zn1   S    
C43   H13   S    
C23   H8    S    
C2    C43   D    
C23   C34   S    
C12   C35   S    
O15   Zn3   S    
C13   C15   S    
C1    O4    A    
C3    H23   S    
C36   H26   S    
C38   H20   S    
C15   C17   D    
C26   O9    A    
C22   O24   A    
C24   O25   A    
C33   H1    S    
O25   Zn5   S    
O2    Zn7   S    
O11   Zn7   S    
C17   H4    S    
O16   Zn2   S    
C30   O16   A    
C3    C5    D    
C5    H27   S    
C18   H5    S    
C25   C42   S    
O13   Zn1   S    
C36   H25   S    
C16   C21   S    
C6    C7    D    
C4    O13   A    
C19   H17   S    
C31   O19   A    
C29   C35   S    
C34   H9    S    
O9    Zn8   S    
O23   Zn5   S    
O8    Zn5   S    
C32   C33   S    
C19   C24   S    
C29   O7    A    
C10   H31   S    
C25   O26   A    
C39   H10   S    
C29   O5    A    
C1    O21   A    
C37   H24   S    
C33   C35   S    
C18   C20   S    
O7    Zn5   S    
C41   H11   S    
O22   Zn3   S    
C10   C11   D    
O23   Zn6   S    
O17   Zn4   S    
C20   C21   D    
O19   Zn1   S    
C8    C10   S    
C31   O17   A    
O21   Zn2   S    
C25   O8    A    
C28   O15   A    
C32   H16   S    
O10   Zn6   S    
C24   O11   A    
C12   H7    S    
O14   Zn2   S    
C38   H19   S    
