data_mof_unit_48438.cif
_audit_creation_date              2012-12-10T19:10:29-0500
_audit_creation_method            fapswitch 2.2
_symmetry_space_group_name_H-M    P1
_symmetry_Int_Tables_number       1
_space_group_crystal_system       triclinic
_cell_length_a                    10.673024
_cell_length_b                    9.886065
_cell_length_c                    15.713115
_cell_angle_alpha                 89.362574
_cell_angle_beta                  96.049513
_cell_angle_gamma                 91.093509
_cell_volume                      1648.35454124

loop_
_atom_site_label
_atom_site_type_symbol
_atom_type_description
_atom_site_fract_x
_atom_site_fract_y
_atom_site_fract_z
_atom_type_partial_charge
C1    C     C_R   0.258086 0.499288 0.497809 0.810174
C2    C     C_3   0.618039 0.460893 0.958522 -0.402280
C3    C     C_3   0.620216 0.461546 0.056733 -0.397653
C4    C     C_1   0.489670 0.496794 0.824610 -0.013929
C5    C     C_1   0.493418 0.502163 0.173799 -0.099780
C6    C     C_1   0.496516 0.501999 0.249393 -0.188632
C7    C     C_3   0.074150 0.646246 0.497162 -0.422945
C8    C     C_3   0.084252 0.423362 0.577079 -0.448812
C9    C     C_3   0.934129 0.644723 0.505379 -0.352387
C10   C     C_3   0.940333 0.414786 0.573236 -0.336905
C11   C     C_3   0.058282 0.428388 0.415050 -0.385991
C12   C     C_3   0.121747 0.498815 0.496649 0.198088
C13   C     C_3   0.879295 0.499916 0.496947 0.108472
C14   C     C_R   0.499237 0.500648 0.338538 0.872847
C15   C     C_3   0.913744 0.437953 0.412351 -0.426137
C16   C     C_3   0.372059 0.077893 0.474455 -0.364031
C17   C     C_3   0.370883 0.917509 0.480125 -0.378151
C18   C     C_3   0.583594 0.082684 0.437803 -0.278584
C19   C     C_3   0.573898 0.922869 0.432001 -0.250045
C20   C     C_3   0.546207 0.081069 0.586230 0.319913
C21   C     C_3   0.552954 0.917047 0.584839 0.339071
C22   C     C_R   0.742235 0.500626 0.498478 0.901310
C23   C     C_R   0.497908 0.499321 0.661149 0.986439
C24   C     C_3   0.455409 0.643047 0.045214 -0.446038
C25   C     C_3   0.388600 0.397371 0.044577 -0.428184
C26   C     C_3   0.389875 0.388306 0.945718 -0.172750
C27   C     C_3   0.456396 0.643217 0.946492 -0.178284
C28   C     C_1   0.494051 0.497625 0.749649 -0.040639
C29   C     C_3   0.489671 0.501054 0.082026 0.306162
C30   C     C_3   0.484867 0.497797 0.915928 0.134023
H1    H     H_    0.886509 0.713950 0.456335 0.203380
H2    H     H_    0.910833 0.307900 0.563649 0.245165
H3    H     H_    0.090197 0.477137 0.356685 0.154976
H4    H     H_    0.085250 0.320156 0.415095 0.177618
H5    H     H_    0.876671 0.502143 0.357052 0.161760
H6    H     H_    0.870383 0.335204 0.402852 0.179861
H7    H     H_    0.336713 0.110554 0.408413 0.183916
H8    H     H_    0.324484 0.875205 0.419202 0.187535
H9    H     H_    0.304616 0.117643 0.516937 0.170870
H10   H     H_    0.311441 0.883733 0.530689 0.162149
H11   H     H_    0.559502 0.127112 0.373006 0.163262
H12   H     H_    0.529040 0.894978 0.367241 0.151582
H13   H     H_    0.470513 0.102314 0.627698 0.056795
H14   H     H_    0.489957 0.879842 0.632514 0.069195
H15   H     H_    0.682956 0.113757 0.457743 0.209695
H16   H     H_    0.668593 0.878544 0.435548 0.215259
H17   H     H_    0.362141 0.672013 0.064295 0.205137
H18   H     H_    0.295534 0.427735 0.063075 0.219361
H19   H     H_    0.407834 0.295710 0.073788 0.160634
H20   H     H_    0.525059 0.719718 0.073471 0.163777
H21   H     H_    0.427817 0.287216 0.932738 0.138504
H22   H     H_    0.536452 0.710517 0.931710 0.160118
H23   H     H_    0.693924 0.534531 0.084238 0.181908
H24   H     H_    0.645671 0.359440 0.082931 0.179558
H25   H     H_    0.690221 0.534347 0.938786 0.204586
H26   H     H_    0.644928 0.359148 0.937566 0.208550
H27   H     H_    0.092842 0.699919 0.436935 0.178418
H28   H     H_    0.122824 0.319345 0.581365 0.190149
H29   H     H_    0.123305 0.704095 0.551757 0.181906
H30   H     H_    0.123369 0.478396 0.635682 0.185410
H31   H     H_    0.921700 0.678320 0.570785 0.236433
H32   H     H_    0.910309 0.449871 0.634878 0.212121
N1    N     N_3   0.499750 0.138610 0.498180 -0.110934
N2    N     N_3   0.499750 0.861390 0.498180 -0.107798
O1    O     O_R   0.314910 0.616040 0.499980 -0.645958
O2    O     O_R   0.314910 0.383960 0.499980 -0.643086
O3    O     O_R   0.500120 0.616090 0.377110 -0.629893
O4    O     O_R   0.500120 0.383910 0.377110 -0.630452
O5    O     O_R   0.685320 0.616040 0.499960 -0.562444
O6    O     O_R   0.685320 0.383960 0.499960 -0.581657
O7    O     O_R   0.500110 0.615990 0.622830 -0.581214
O8    O     O_R   0.500110 0.384010 0.622830 -0.560847
Zn1   Zn    Zn3+2 0.500150 0.654960 0.499960 0.982023
Zn2   Zn    Zn3+2 0.500150 0.345040 0.499960 0.980594
C31   C     C_2   0.339781 0.705557 0.899447 0.913771
O9    O     O_2   0.235397 0.683005 0.922439 -0.588157
O10   O     O_R   0.352931 0.791136 0.829347 -0.802213
H33   H     H_    0.269294 0.826800 0.802551 0.346205
C32   C     C_2   0.259319 0.388649 0.896028 0.965090
O11   O     O_2   0.165038 0.408093 0.931901 -0.584001
O12   O     O_R   0.246571 0.359955 0.808573 -0.829445
H34   H     H_    0.155602 0.360510 0.782393 0.342392
S1    S     S_3+6 0.685168 0.165140 0.650235 0.073770
O13   O     O_2   0.704840 0.314430 0.649690 -0.303161
O14   O     O_2   0.670212 0.130976 0.742189 -0.271419
O15   O     O_3   0.824855 0.112097 0.626305 -0.549372
H35   H     H_    0.884509 0.131142 0.677671 0.379435
S2    S     S_3+6 0.708128 0.847178 0.627872 0.072439
O16   O     O_2   0.750797 0.903015 0.714606 -0.228181
O17   O     O_2   0.712710 0.698447 0.644285 -0.289521
O18   O     O_3   0.815111 0.886841 0.560023 -0.597949
H36   H     H_    0.897296 0.892216 0.595786 0.378057

loop_
_geom_bond_atom_site_label_1
_geom_bond_atom_site_label_2
_ccdc_geom_bond_type
N2    Zn1   S    
C24   C27   S    
O12   H34   S    
C19   H16   S    
O10   H33   S    
C9    H31   S    
C2    H25   S    
C17   N2    S    
C5    C6    T    
C3    H24   S    
C18   N1    S    
O4    Zn2   S    
O2    Zn2   S    
O1    Zn1   S    
C18   C19   S    
C15   H5    S    
C3    C29   S    
C9    C13   S    
C24   C29   S    
C21   N2    S    
C8    H28   S    
C11   C15   S    
C16   C17   S    
O6    Zn2   S    
C1    O1    A    
C14   O3    A    
O5    Zn1   S    
O3    Zn1   S    
C16   N1    S    
C22   O5    A    
C19   H12   S    
C16   H7    S    
C21   S2    S    
C27   C30   S    
C24   H20   S    
C10   H32   S    
C1    C12   S    
C27   C31   S    
C7    H29   S    
C4    C28   T    
C5    C29   S    
C25   C29   S    
C7    C12   S    
C23   O7    A    
C11   H3    S    
O8    Zn2   S    
C18   H11   S    
O18   H36   S    
C32   O12   S    
O15   H35   S    
C25   C26   S    
C17   H10   S    
C31   O9    D    
C6    C14   S    
C21   H14   S    
S1    O13   D    
S2    O18   S    
C19   N2    S    
C8    C12   S    
C1    O2    A    
C23   C28   S    
C20   C21   S    
C31   O10   S    
C25   H18   S    
S1    O14   D    
S2    O17   D    
C26   C30   S    
C13   C15   S    
C18   H15   S    
C15   H6    S    
C20   H13   S    
C27   H22   S    
O7    Zn1   S    
C7    C9    S    
C24   H17   S    
C23   O8    A    
C11   H4    S    
C10   C13   S    
C11   C12   S    
N1    Zn2   S    
C26   C32   S    
C2    C30   S    
C20   N1    S    
C2    C3    S    
C2    H26   S    
C26   H21   S    
C8    H30   S    
C3    H23   S    
C22   O6    A    
C13   C22   S    
C17   H8    S    
C25   H19   S    
C9    H1    S    
C16   H9    S    
C32   O11   D    
C10   H2    S    
S1    O15   S    
S2    O16   D    
C8    C10   S    
C20   S1    S    
C14   O4    A    
C7    H27   S    
C4    C30   S    
