data_mof_unit_51346.cif
_audit_creation_date              2012-10-26T20:02:31-0400
_audit_creation_method            fapswitch 2.2
_symmetry_space_group_name_H-M    P1
_symmetry_Int_Tables_number       1
_space_group_crystal_system       triclinic
_cell_length_a                    18.973569
_cell_length_b                    18.564771
_cell_length_c                    12.352655
_cell_angle_alpha                 90.124224
_cell_angle_beta                  129.067995
_cell_angle_gamma                 90.091346
_cell_volume                      3378.15437158

loop_
_atom_site_label
_atom_site_type_symbol
_atom_type_description
_atom_site_fract_x
_atom_site_fract_y
_atom_site_fract_z
_atom_type_partial_charge
C1    C     C_R   0.609877 0.896672 0.650014 0.530526
C2    C     C_R   0.681591 0.748959 0.057469 0.052152
C3    C     C_R   0.162048 0.773923 0.021391 0.055510
C4    C     C_R   0.181601 0.248971 0.057486 0.052149
C5    C     C_R   0.584959 0.239634 0.906626 -0.134600
C6    C     C_R   0.604499 0.785798 0.950241 -0.140978
C7    C     C_R   0.084950 0.739636 0.906621 -0.134600
C8    C     C_R   0.104511 0.285815 0.950266 -0.140986
C9    C     C_R   0.586976 0.206826 0.807756 -0.114866
C10   C     C_R   0.594495 0.805420 0.833152 -0.121029
C11   C     C_R   0.086966 0.706825 0.807752 -0.114860
C12   C     C_R   0.611631 0.102307 0.652053 0.529951
C13   C     C_R   0.094496 0.305428 0.833164 -0.121037
C14   C     C_R   0.316168 0.816434 0.147501 -0.131502
C15   C     C_R   0.311907 0.176948 0.137768 -0.124779
C16   C     C_R   0.816178 0.316426 0.147516 -0.131498
C17   C     C_R   0.811922 0.676961 0.137789 -0.124768
C18   C     C_R   0.235408 0.841810 0.235560 -0.138592
C19   C     C_R   0.266879 0.190083 0.281475 -0.147345
C20   C     C_R   0.735417 0.341800 0.235572 -0.138592
C21   C     C_R   0.766854 0.690062 0.281448 -0.147365
C22   C     C_R   0.675180 0.161774 0.736469 0.000669
C23   C     C_R   0.109875 0.396671 0.650012 0.530528
C24   C     C_R   0.669034 0.834516 0.729793 -0.002791
C25   C     C_R   0.175171 0.661782 0.736457 0.000668
C26   C     C_R   0.169025 0.334510 0.729783 -0.002792
C27   C     C_R   0.685323 0.004459 0.286914 -0.148981
C28   C     C_R   0.185324 0.504446 0.286914 -0.148984
C29   C     C_R   0.343202 0.990521 0.629097 0.423996
C30   C     C_R   0.843199 0.490534 0.629094 0.424009
C31   C     C_R   0.312102 0.979541 0.705736 0.204465
C32   C     C_R   0.812092 0.479594 0.705733 0.204494
C33   C     C_R   0.386874 0.100946 0.345868 0.544816
C34   C     C_R   0.111630 0.602309 0.652050 0.529956
C35   C     C_R   0.384615 0.900780 0.343050 0.549711
C36   C     C_R   0.886874 0.600946 0.345868 0.544805
C37   C     C_R   0.884617 0.400778 0.343053 0.549711
C38   C     C_R   0.371363 0.985758 0.849729 -0.157007
C39   C     C_R   0.871356 0.485811 0.849725 -0.156982
C40   C     C_R   0.464241 0.997373 0.922901 -0.065829
C41   C     C_R   0.964239 0.497392 0.922900 -0.065829
C42   C     C_R   0.495444 0.001659 0.843156 0.114898
C43   C     C_R   0.995443 0.501662 0.843156 0.114896
C44   C     C_R   0.527664 0.000078 0.073029 -0.003904
C45   C     C_R   0.241011 0.779648 0.032374 0.034617
C46   C     C_R   0.027663 0.500087 0.073028 -0.003905
C47   C     C_R   0.621540 0.003586 0.140839 0.040509
C48   C     C_R   0.121539 0.503581 0.140838 0.040506
C49   C     C_R   0.651322 0.005278 0.062653 -0.158985
C50   C     C_R   0.151321 0.505269 0.062653 -0.158987
C51   C     C_R   0.589938 0.004210 0.917692 -0.083726
C52   C     C_R   0.089938 0.504205 0.917692 -0.083729
C53   C     C_R   0.502293 0.999127 0.159897 0.035445
C54   C     C_R   0.002293 0.499137 0.159898 0.035448
C55   C     C_R   0.656164 0.002370 0.365880 0.038799
C56   C     C_R   0.245326 0.225650 0.040602 0.031739
C57   C     C_R   0.156164 0.502360 0.365880 0.038795
C58   C     C_R   0.660495 0.303873 0.124223 -0.136168
C59   C     C_R   0.694519 0.733128 0.179766 -0.133045
C60   C     C_R   0.160485 0.803882 0.124212 -0.136165
C61   C     C_R   0.194546 0.233152 0.179800 -0.133052
C62   C     C_R   0.312220 0.850203 0.244508 -0.003946
C63   C     C_R   0.321416 0.157369 0.255613 -0.001756
C64   C     C_R   0.812228 0.350197 0.244519 -0.003943
C65   C     C_R   0.821414 0.657368 0.255613 -0.001765
C66   C     C_R   0.749645 0.171373 0.739090 -0.120394
C67   C     C_R   0.741024 0.279637 0.032392 0.034620
C68   C     C_R   0.735165 0.816424 0.716698 -0.134163
C69   C     C_R   0.249629 0.671391 0.739064 -0.120376
C70   C     C_R   0.235146 0.316409 0.716673 -0.134172
C71   C     C_R   0.317979 0.719975 0.831045 -0.120528
C72   C     C_R   0.302113 0.266776 0.805558 -0.141283
C73   C     C_R   0.818005 0.219945 0.831089 -0.120576
C74   C     C_R   0.802141 0.766799 0.805595 -0.141266
C75   C     C_R   0.315837 0.756819 0.926926 -0.100863
C76   C     C_R   0.306547 0.236294 0.912259 -0.113259
C77   C     C_R   0.815863 0.256791 0.926969 -0.100890
C78   C     C_R   0.745333 0.725655 0.040610 0.031744
C79   C     C_R   0.806573 0.736315 0.912293 -0.113244
C80   C     C_R   0.742587 0.247595 0.929281 0.042662
C81   C     C_R   0.739907 0.751703 0.927316 0.037049
C82   C     C_R   0.242570 0.747610 0.929257 0.042664
C83   C     C_R   0.239892 0.251693 0.927299 0.037042
C84   C     C_R   0.667561 0.204795 0.823750 0.030554
C85   C     C_R   0.666740 0.797478 0.828426 0.024675
C86   C     C_R   0.167549 0.704802 0.823737 0.030560
C87   C     C_R   0.166732 0.297476 0.828420 0.024673
C88   C     C_3   0.215921 0.032270 0.415763 0.030102
C89   C     C_R   0.662059 0.273915 0.021403 0.055512
C90   C     C_3   0.126771 0.998179 0.291272 -0.248573
C91   C     C_3   0.050923 0.053867 0.212365 -0.477517
C92   C     C_3   0.715924 0.532257 0.415713 0.030125
C93   C     C_3   0.626745 0.498142 0.291340 -0.248582
C94   C     C_3   0.550910 0.553833 0.212407 -0.477526
Cl1   Cl    Cl    0.200478 0.950592 0.625837 -0.644316
Cl2   Cl    Cl    0.700452 0.450698 0.625842 -0.644365
Cu1   Cu    Cu3+1 0.526340 1.000000 0.421010 0.930641
Cu2   Cu    Cu3+1 0.026340 0.500000 0.421010 0.930643
Cu3   Cu    Cu3+1 0.473640 1.000000 0.578990 0.957407
Cu4   Cu    Cu3+1 0.973640 0.500000 0.578990 0.957389
H1    H     H_    0.231999 0.866553 0.311477 0.175040
H2    H     H_    0.932258 0.498832 0.117002 0.120046
H3    H     H_    0.343462 0.976798 0.902233 0.146307
H4    H     H_    0.843447 0.476879 0.902225 0.146319
H5    H     H_    0.620111 0.003177 0.868526 0.186359
H6    H     H_    0.120111 0.503171 0.868525 0.186361
H7    H     H_    0.522763 0.237988 0.893266 0.098897
H8    H     H_    0.550935 0.798268 0.955588 0.107905
H9    H     H_    0.022757 0.737986 0.893267 0.098893
H10   H     H_    0.050957 0.298296 0.955630 0.107911
H11   H     H_    0.600608 0.299297 0.116800 0.111878
H12   H     H_    0.278424 0.181151 0.377932 0.105377
H13   H     H_    0.648677 0.753936 0.196456 0.106008
H14   H     H_    0.100599 0.799306 0.116791 0.111884
H15   H     H_    0.148720 0.253976 0.196512 0.106004
H16   H     H_    0.378969 0.820273 0.164156 0.117037
H17   H     H_    0.355189 0.151538 0.121007 0.124733
H18   H     H_    0.878978 0.320270 0.164171 0.117039
H19   H     H_    0.855224 0.651568 0.121053 0.124737
H20   H     H_    0.756196 0.140111 0.671714 0.128661
H21   H     H_    0.737299 0.842588 0.640508 0.130630
H22   H     H_    0.256181 0.640132 0.671687 0.128666
H23   H     H_    0.732009 0.366540 0.311491 0.175031
H24   H     H_    0.237279 0.342569 0.640479 0.130627
H25   H     H_    0.371731 0.793128 0.995601 0.100819
H26   H     H_    0.364342 0.202326 0.982617 0.102247
H27   H     H_    0.871766 0.293087 0.995661 0.100815
H28   H     H_    0.864374 0.702352 0.982660 0.102243
H29   H     H_    0.374621 0.727482 0.831099 0.115785
H30   H     H_    0.353580 0.254287 0.795705 0.107714
H31   H     H_    0.874653 0.227441 0.831158 0.115782
H32   H     H_    0.853616 0.754317 0.795755 0.107713
H33   H     H_    0.523656 0.184641 0.717348 0.148366
H34   H     H_    0.778379 0.681113 0.377886 0.105384
H35   H     H_    0.529111 0.826607 0.747489 0.160003
H36   H     H_    0.023648 0.684635 0.717350 0.148374
H37   H     H_    0.029111 0.326617 0.747507 0.160007
H38   H     H_    0.705383 0.003214 0.478522 0.119243
H39   H     H_    0.205384 0.503197 0.478522 0.119247
H40   H     H_    0.235588 0.072251 0.373813 0.147526
H41   H     H_    0.204567 0.061712 0.482369 0.143580
H42   H     H_    0.136442 0.974590 0.218710 0.157137
H43   H     H_    0.106385 0.954303 0.327562 0.219917
H44   H     H_    0.038261 0.077248 0.281552 0.166242
H45   H     H_    0.723329 0.006953 0.114265 0.114419
H46   H     H_    0.987500 0.027676 0.122011 0.151966
H47   H     H_    0.069378 0.097734 0.173155 0.145827
H48   H     H_    0.735557 0.572171 0.373616 0.147589
H49   H     H_    0.704626 0.561780 0.482314 0.143515
H50   H     H_    0.636357 0.474484 0.218757 0.157088
H51   H     H_    0.606383 0.454316 0.327744 0.220025
H52   H     H_    0.538310 0.577286 0.281620 0.166264
H53   H     H_    0.487461 0.527622 0.122141 0.151973
H54   H     H_    0.569335 0.597646 0.173068 0.145824
H55   H     H_    0.223329 0.506937 0.114264 0.114421
H56   H     H_    0.757467 0.006716 0.339834 0.102977
H57   H     H_    0.257467 0.506694 0.339833 0.102983
H58   H     H_    0.432257 0.998818 0.116997 0.120038
N1    N     N_R   0.566260 0.000000 0.302220 -0.234062
N2    N     N_R   0.066260 0.500000 0.302220 -0.234065
N3    N     N_R   0.434410 0.000000 0.697680 -0.256522
N4    N     N_R   0.934410 0.500000 0.697680 -0.256525
O1    O     O_R   0.608610 0.924520 0.551740 -0.505807
O2    O     O_R   0.435880 0.924530 0.314850 -0.514656
O3    O     O_R   0.935880 0.575470 0.314850 -0.508630
O4    O     O_R   0.935880 0.424530 0.314850 -0.514652
O5    O     O_R   0.391380 0.075460 0.448260 -0.495325
O6    O     O_R   0.391380 0.924540 0.448260 -0.446246
O7    O     O_R   0.891380 0.575460 0.448260 -0.495360
O8    O     O_R   0.891380 0.424540 0.448260 -0.446248
O9    O     O_3   0.284475 0.979041 0.486289 -0.524705
O10   O     O_3   0.784475 0.479027 0.486292 -0.524725
O11   O     O_R   0.608610 0.075480 0.551740 -0.499709
O12   O     O_R   0.108610 0.424520 0.551740 -0.505810
O13   O     O_R   0.108610 0.575480 0.551740 -0.499702
O14   O     O_R   0.564110 0.924510 0.685150 -0.532647
O15   O     O_R   0.564110 0.075490 0.685150 -0.534496
O16   O     O_R   0.064110 0.424510 0.685150 -0.532649
O17   O     O_R   0.064110 0.575490 0.685150 -0.534493
O18   O     O_R   0.435880 0.075470 0.314850 -0.508634

loop_
_geom_bond_atom_site_label_1
_geom_bond_atom_site_label_2
_ccdc_geom_bond_type
C83   C87   A    
C79   H28   S    
C73   H31   S    
C10   C85   A    
C93   C94   S    
C74   H32   S    
C92   H48   S    
C76   H26   S    
C21   H34   S    
C60   H14   S    
C45   C82   A    
C80   C84   A    
Cu4   O16   S    
C91   H47   S    
C93   H50   S    
C42   N3    A    
C39   H4    S    
C39   C41   A    
C23   O12   A    
C33   O5    A    
C28   C57   A    
C7    C11   A    
C53   H58   S    
C8    C13   A    
C55   H38   S    
Cu1   N1    S    
C92   C93   S    
C38   C40   A    
C19   C61   A    
Cu3   O15   S    
C3    C7    A    
Cu2   O12   S    
C14   H16   S    
C43   C52   A    
C32   C39   A    
C11   C86   A    
C94   H52   S    
C14   C62   A    
C12   C22   S    
C16   H18   S    
C67   C89   A    
C57   H39   S    
C23   C26   S    
C69   C71   A    
C73   C77   A    
C22   C66   A    
C23   O16   A    
C36   O3    A    
C34   O13   A    
Cu3   N3    S    
C44   C53   A    
C88   H40   S    
Cu3   O14   S    
C19   C63   A    
C26   C87   A    
C49   C51   A    
C61   H15   S    
C50   C52   A    
C41   C46   A    
C24   C85   A    
C90   H43   S    
C77   H27   S    
C44   C47   A    
C4    C8    A    
C42   C51   A    
C3    C60   A    
C55   N1    A    
C12   O15   A    
C52   H6    S    
C88   O9    S    
C66   H20   S    
C4    C56   A    
C33   O18   A    
C41   C43   A    
C13   C87   A    
C34   O17   A    
C2    C6    A    
C76   C83   A    
C28   H57   S    
Cu1   Cu3   S    
C14   C45   A    
Cu3   O5    S    
C46   C48   A    
C53   N1    A    
Cu1   O11   S    
Cu4   O8    S    
C58   H11   S    
C29   N3    A    
C10   H35   S    
C47   C49   A    
C37   O8    A    
C79   C81   A    
C17   H19   S    
C2    C59   A    
C18   C62   A    
Cu1   O18   S    
Cu1   O1    S    
C19   H12   S    
C66   C73   A    
C4    C61   A    
C3    C45   A    
C15   H17   S    
C75   H25   S    
C18   H1    S    
C22   C84   A    
C20   C64   A    
C43   N4    A    
C5    C9    A    
C38   H3    S    
C2    C78   A    
C8    H10   S    
C71   H29   S    
C40   C42   A    
C50   H55   S    
C33   C63   S    
Cu1   O2    S    
C46   C54   A    
C35   O6    A    
C36   O7    A    
C49   H45   S    
C72   C76   A    
C16   C67   A    
C90   H42   S    
C29   O9    S    
C30   O10   S    
Cu2   O4    S    
C91   H44   S    
C20   H23   S    
C18   C60   A    
C32   Cl2   S    
C57   N2    A    
Cu2   N2    S    
C1    O14   A    
C74   C79   A    
C26   C70   A    
C93   H51   S    
C25   C69   A    
C30   N4    A    
C20   C58   A    
C88   H41   S    
C37   C64   S    
C56   C83   A    
Cu3   O6    S    
C5    H7    S    
C77   C80   A    
C27   C47   A    
C27   H56   S    
C28   C48   A    
C15   C63   A    
C21   C65   A    
Cu4   O7    S    
C36   C65   S    
C17   C65   A    
C54   H2    S    
C67   C80   A    
C71   C75   A    
C88   C90   S    
C59   H13   S    
C68   H21   S    
C6    C10   A    
C70   C72   A    
C75   C82   A    
C72   H30   S    
C37   O4    A    
C25   C34   S    
Cu2   Cu4   S    
C35   O2    A    
C31   C38   A    
C17   C78   A    
C15   C56   A    
C7    H9    S    
C29   C31   A    
C82   C86   A    
C11   H36   S    
C30   C32   A    
Cu2   O13   S    
C78   C81   A    
C90   C91   S    
C94   H54   S    
C69   H22   S    
C92   O10   S    
C94   H53   S    
C31   Cl1   S    
C48   C50   A    
C25   C86   A    
C35   C62   S    
C27   C55   A    
C58   C89   A    
C5    C89   A    
C51   H5    S    
Cu2   O3    S    
C24   C68   A    
C9    C84   A    
C54   N2    A    
C21   C59   A    
C70   H24   S    
C40   C44   A    
C1    O1    A    
C1    C24   S    
C92   H49   S    
C6    H8    S    
Cu4   N4    S    
C16   C64   A    
Cu4   O17   S    
C68   C74   A    
C91   H46   S    
C81   C85   A    
C13   H37   S    
C12   O11   A    
C9    H33   S    
