data_mof_unit_50644.cif
_audit_creation_date              2013-03-05T15:59:43-0500
_audit_creation_method            fapswitch 2.2
_symmetry_space_group_name_H-M    P1
_symmetry_Int_Tables_number       1
_space_group_crystal_system       triclinic
_cell_length_a                    18.748879
_cell_length_b                    26.267963
_cell_length_c                    18.176944
_cell_angle_alpha                 90.141434
_cell_angle_beta                  89.968888
_cell_angle_gamma                 89.935171
_cell_volume                      8952.01714986

loop_
_atom_site_label
_atom_site_type_symbol
_atom_site_description
_atom_site_fract_x
_atom_site_fract_y
_atom_site_fract_z
_atom_type_partial_charge
Zn1   Zn    Zn3+2 0.500000 0.706650 0.586810 1.072260
Zn2   Zn    Zn3+2 0.500000 0.293350 0.413190 1.098031
Zn3   Zn    Zn3+2 0.500000 0.706650 0.413190 1.072848
Zn4   Zn    Zn3+2 0.500000 0.293350 0.586810 1.090303
Zn5   Zn    Zn3+2 1.000000 0.206650 0.086810 1.092767
Zn6   Zn    Zn3+2 1.000000 0.793350 0.913190 1.077187
Zn7   Zn    Zn3+2 1.000000 0.206650 0.913190 1.098028
Zn8   Zn    Zn3+2 0.000000 0.793350 0.086810 1.068160
Zn9   Zn    Zn3+2 0.586710 0.793420 0.500000 1.094060
Zn10  Zn    Zn3+2 0.413290 0.206580 0.500000 1.114498
Zn11  Zn    Zn3+2 0.413290 0.793420 0.500000 1.125621
Zn12  Zn    Zn3+2 0.586710 0.206580 0.500000 1.128586
Zn13  Zn    Zn3+2 0.086710 0.293420 0.000000 1.115733
Zn14  Zn    Zn3+2 0.913290 0.706580 0.000000 1.098590
Zn15  Zn    Zn3+2 0.913290 0.293420 0.000000 1.129721
Zn16  Zn    Zn3+2 0.086710 0.706580 0.000000 1.111234
O1    O     O_3   0.500000 0.750040 0.500000 -0.579631
O2    O     O_3   0.500000 0.249960 0.500000 -0.585450
O3    O     O_3   0.000000 0.250040 0.000000 -0.584131
O4    O     O_3   0.000000 0.749960 0.000000 -0.578579
O5    O     O_R   0.585420 0.719700 0.353880 -0.569989
O6    O     O_R   0.414580 0.280300 0.646120 -0.585096
O7    O     O_R   0.414580 0.719700 0.646120 -0.571662
O8    O     O_R   0.585420 0.280300 0.353880 -0.601435
O9    O     O_R   0.585420 0.280300 0.646120 -0.581700
O10   O     O_R   0.414580 0.719700 0.353880 -0.615248
O11   O     O_R   0.414580 0.280300 0.353880 -0.573715
O12   O     O_R   0.585420 0.719700 0.646120 -0.606186
O13   O     O_R   0.085420 0.219700 0.853880 -0.575971
O14   O     O_R   0.914580 0.780300 0.146120 -0.606987
O15   O     O_R   0.914580 0.219700 0.146120 -0.565858
O16   O     O_R   0.085420 0.780300 0.853880 -0.611582
O17   O     O_R   0.085420 0.780300 0.146120 -0.568770
O18   O     O_R   0.914580 0.219700 0.853880 -0.595829
O19   O     O_R   0.914580 0.780300 0.853880 -0.569681
O20   O     O_R   0.085420 0.219700 0.146120 -0.594850
O21   O     O_R   0.646120 0.780390 0.585510 -0.580581
O22   O     O_R   0.353880 0.219610 0.414490 -0.576158
O23   O     O_R   0.353880 0.780390 0.414490 -0.553303
O24   O     O_R   0.646120 0.219610 0.585510 -0.594419
O25   O     O_R   0.646120 0.219610 0.414490 -0.561854
O26   O     O_R   0.353880 0.780390 0.585510 -0.592816
O27   O     O_R   0.353880 0.219610 0.585510 -0.582491
O28   O     O_R   0.646120 0.780390 0.414490 -0.586372
O29   O     O_R   0.146120 0.280390 0.085510 -0.570980
O30   O     O_R   0.853880 0.719610 0.914490 -0.584051
O31   O     O_R   0.853880 0.280390 0.914490 -0.565281
O32   O     O_R   0.146120 0.719610 0.085510 -0.599955
O33   O     O_R   0.146120 0.719610 0.914490 -0.554690
O34   O     O_R   0.853880 0.280390 0.085510 -0.594906
O35   O     O_R   0.853880 0.719610 0.085510 -0.578465
O36   O     O_R   0.146120 0.280390 0.914490 -0.562468
O37   O     O_R   0.560660 0.865840 0.500000 -0.615551
O38   O     O_R   0.439340 0.134160 0.500000 -0.607416
O39   O     O_R   0.439340 0.865840 0.500000 -0.599027
O40   O     O_R   0.560660 0.134160 0.500000 -0.600724
O41   O     O_R   0.060660 0.365840 0.000000 -0.609773
O42   O     O_R   0.939340 0.634160 0.000000 -0.603163
O43   O     O_R   0.939340 0.365840 0.000000 -0.605283
O44   O     O_R   0.060660 0.634160 0.000000 -0.600562
O45   O     O_R   0.500000 0.634240 0.439310 -0.639623
O46   O     O_R   0.500000 0.365760 0.560690 -0.639532
O47   O     O_R   0.500000 0.634240 0.560690 -0.636092
O48   O     O_R   0.500000 0.365760 0.439310 -0.627734
O49   O     O_R   0.000000 0.134240 0.939310 -0.630116
O50   O     O_R   1.000000 0.865760 0.060690 -0.642179
O51   O     O_R   1.000000 0.134240 0.060690 -0.631115
O52   O     O_R   1.000000 0.865760 0.939310 -0.634702
C1    C     C_R   0.638940 0.750205 0.358590 0.938591
C2    C     C_R   0.359282 0.251121 0.639521 0.950375
C3    C     C_R   0.360563 0.749701 0.640633 0.945321
C4    C     C_R   0.639510 0.250048 0.359649 0.966991
C5    C     C_R   0.638182 0.249000 0.642535 0.947459
C6    C     C_R   0.360166 0.749806 0.359965 0.952240
C7    C     C_R   0.361814 0.249377 0.357795 0.960070
C8    C     C_R   0.639897 0.749938 0.640029 0.926049
C9    C     C_R   0.138149 0.250754 0.857900 0.966918
C10   C     C_R   0.860084 0.750477 0.140019 0.936145
C11   C     C_R   0.861308 0.250573 0.141822 0.962067
C12   C     C_R   0.140045 0.749992 0.859948 0.924767
C13   C     C_R   0.139149 0.749994 0.141282 0.911736
C14   C     C_R   0.861342 0.250554 0.858679 0.974609
C15   C     C_R   0.860454 0.750338 0.859308 0.950726
C16   C     C_R   0.140606 0.249138 0.139438 0.904503
C17   C     C_R   0.499955 0.889983 0.500128 0.907191
C18   C     C_R   0.499971 0.110085 0.500062 0.927493
C19   C     C_R   0.999824 0.389744 0.000009 0.957564
C20   C     C_R   0.000414 0.609777 0.000527 0.892451
C21   C     C_R   0.500221 0.609547 0.500043 0.808442
C22   C     C_R   0.499894 0.390140 0.499952 0.800044
C23   C     C_R   0.999919 0.109873 0.999953 0.800719
C24   C     C_R   0.000086 0.890428 0.000122 0.816307
C25   C     C_R   0.477903 0.540960 0.360992 0.035629
C26   C     C_R   0.432585 0.454102 0.616619 0.029729
C27   C     C_R   0.520054 0.539804 0.640573 0.009537
C28   C     C_R   0.560871 0.452103 0.378298 0.041665
C29   C     C_R   0.940583 0.046935 0.878913 0.074733
C30   C     C_R   0.977188 0.959621 0.140358 0.055827
C31   C     C_R   0.059683 0.048103 0.121399 0.071746
C32   C     C_R   0.026066 0.959535 0.861271 0.074913
C33   C     C_R   0.503787 0.513873 0.297803 0.226028
C34   C     C_R   0.446635 0.469396 0.689466 0.305750
C35   C     C_R   0.491858 0.511978 0.702494 0.281906
C36   C     C_R   0.543704 0.468638 0.306976 0.273809
C37   C     C_R   0.960214 0.031881 0.807667 0.187291
C38   C     C_R   0.002520 0.987709 0.202946 0.193153
C39   C     C_R   0.040874 0.033148 0.192575 0.197904
C40   C     C_R   0.002046 0.987484 0.797855 0.183386
C41   C     C_R   0.523527 0.473881 0.437706 -0.033747
C42   C     C_R   0.499095 0.524309 0.567887 -0.006878
C43   C     C_R   0.476092 0.474080 0.561085 -0.047829
C44   C     C_R   0.500523 0.524461 0.432352 -0.026412
C45   C     C_R   0.001404 0.975381 0.932532 -0.007158
C46   C     C_R   0.022410 0.026267 0.062394 -0.024794
C47   C     C_R   0.999261 0.975717 0.068259 -0.012048
C48   C     C_R   0.978139 0.025792 0.937961 -0.035764
C49   C     C_R   0.500282 0.446158 0.499676 -0.066423
C50   C     C_R   0.500226 0.553002 0.500230 -0.063211
C51   C     C_R   0.000438 0.946969 0.000395 -0.103330
C52   C     C_R   0.000122 0.053719 0.000063 -0.078561
C53   C     C_R   0.248047 0.783362 0.694968 0.302765
C54   C     C_R   0.767445 0.238824 0.326911 0.264689
C55   C     C_R   0.750417 0.785362 0.304811 0.305956
C56   C     C_R   0.232038 0.233882 0.673604 0.259503
C57   C     C_R   0.255972 0.211266 0.298428 0.295587
C58   C     C_R   0.763170 0.774735 0.681004 0.233663
C59   C     C_R   0.755023 0.221182 0.689213 0.301662
C60   C     C_R   0.234254 0.768405 0.323438 0.251901
C61   C     C_R   0.744827 0.279951 0.190484 0.300193
C62   C     C_R   0.263045 0.723822 0.817778 0.246000
C63   C     C_R   0.244702 0.289231 0.800038 0.298962
C64   C     C_R   0.735093 0.730892 0.177207 0.236087
C65   C     C_R   0.747329 0.717032 0.805608 0.314987
C66   C     C_R   0.268178 0.267537 0.172694 0.251022
C67   C     C_R   0.254190 0.718852 0.192366 0.291308
C68   C     C_R   0.732119 0.253674 0.830246 0.260521
C69   C     C_R   0.685720 0.265804 0.231936 0.326779
C70   C     C_R   0.306977 0.713581 0.757202 0.312911
C71   C     C_R   0.306453 0.277799 0.761222 0.324082
C72   C     C_R   0.689628 0.719390 0.235866 0.309840
C73   C     C_R   0.687108 0.728429 0.764776 0.282976
C74   C     C_R   0.316042 0.278052 0.230830 0.292138
C75   C     C_R   0.313528 0.731446 0.233641 0.280440
C76   C     C_R   0.678965 0.264108 0.777157 0.304705
C77   C     C_R   0.187878 0.771761 0.735613 0.283993
C78   C     C_R   0.816848 0.227713 0.271126 0.307580
C79   C     C_R   0.811028 0.774240 0.264174 0.281094
C80   C     C_R   0.185145 0.222800 0.731684 0.306989
C81   C     C_R   0.193786 0.222453 0.260455 0.305265
C82   C     C_R   0.807153 0.785462 0.741358 0.306886
C83   C     C_R   0.813983 0.236050 0.730237 0.309478
C84   C     C_R   0.188109 0.779952 0.265220 0.309789
C85   C     C_R   0.697388 0.251614 0.305557 -0.380246
C86   C     C_R   0.305410 0.748762 0.698042 -0.361760
C87   C     C_R   0.298959 0.255046 0.691557 -0.374708
C88   C     C_R   0.692709 0.751236 0.299319 -0.363894
C89   C     C_R   0.696883 0.750669 0.695373 -0.385201
C90   C     C_R   0.311355 0.246835 0.295195 -0.334272
C91   C     C_R   0.302671 0.749539 0.305387 -0.382014
C92   C     C_R   0.691094 0.246751 0.703437 -0.355148
C93   C     C_R   0.197213 0.748904 0.804436 -0.386113
C94   C     C_R   0.807939 0.252285 0.201831 -0.362365
C95   C     C_R   0.802206 0.751991 0.194323 -0.397207
C96   C     C_R   0.188912 0.253803 0.796058 -0.350381
C97   C     C_R   0.201049 0.245982 0.191135 -0.390841
C98   C     C_R   0.805073 0.751194 0.801767 -0.358246
C99   C     C_R   0.802926 0.247527 0.805296 -0.384981
C100  C     C_R   0.193552 0.749951 0.200036 -0.363546
C101  C     C_R   0.435442 0.974321 0.491432 0.274557
C102  C     C_R   0.563764 0.025886 0.489821 0.276203
C103  C     C_R   0.563999 0.974348 0.509203 0.301802
C104  C     C_R   0.435573 0.026060 0.510387 0.294243
C105  C     C_R   0.938600 0.473993 0.981172 0.286162
C106  C     C_R   0.066268 0.524021 0.007187 0.264100
C107  C     C_R   0.060344 0.472498 0.026054 0.297146
C108  C     C_R   0.936187 0.525445 0.000646 0.299598
C109  C     C_R   0.499757 0.053754 0.500140 -0.356639
C110  C     C_R   0.499789 0.946449 0.500356 -0.353238
C111  C     C_R   0.001516 0.553091 0.002200 -0.352778
C112  C     C_R   0.999487 0.445719 0.001876 -0.355706
S1    S     S_3+6 0.513108 0.530525 0.795063 0.120539
O53   O     O_2   0.583059 0.506917 0.816435 -0.204076
O54   O     O_2   0.520384 0.587061 0.798326 -0.240798
O55   O     O_3   0.451104 0.514802 0.857625 -0.447632
H1    H     H_    0.459552 0.537577 0.900253 0.399406
S2    S     S_3+6 0.561995 0.426990 0.232234 0.142579
O56   O     O_2   0.631512 0.442213 0.197855 -0.205968
O57   O     O_2   0.567330 0.373410 0.260244 -0.217473
O58   O     O_3   0.497471 0.428780 0.168261 -0.420098
H2    H     H_    0.517798 0.410799 0.125256 0.406779
S3    S     S_3+6 0.492368 0.540000 0.208199 0.138182
O59   O     O_2   0.421644 0.523922 0.177184 -0.154311
O60   O     O_2   0.493648 0.596505 0.214628 -0.215706
O61   O     O_3   0.557229 0.523838 0.148801 -0.426237
H3    H     H_    0.601788 0.535930 0.172166 0.392274
S4    S     S_3+6 0.419323 0.428193 0.761422 0.150923
O62   O     O_2   0.356814 0.451523 0.800835 -0.161218
O63   O     O_2   0.397824 0.377697 0.729994 -0.273664
O64   O     O_3   0.486659 0.418227 0.820810 -0.406868
H4    H     H_    0.467062 0.394929 0.858465 0.408384
S5    S     S_3+6 0.048114 0.079625 0.262940 0.145365
O65   O     O_2   0.120066 0.075827 0.298281 -0.169099
O66   O     O_2   0.040091 0.131061 0.228133 -0.209981
O67   O     O_3   0.985689 0.073622 0.328803 -0.385803
H5    H     H_    0.939712 0.072958 0.302216 0.394997
S6    S     S_3+6 0.018948 0.964287 0.706991 0.120895
O68   O     O_2   0.092577 0.979362 0.682898 -0.190480
O69   O     O_2   0.014579 0.907769 0.707786 -0.204700
O70   O     O_3   0.959912 0.984366 0.643976 -0.385451
H6    H     H_    0.913384 0.970939 0.660776 0.380708
S7    S     S_3+6 0.947153 0.076709 0.735920 0.163611
O71   O     O_2   0.880209 0.063794 0.694823 -0.151849
O72   O     O_2   0.940413 0.129010 0.768542 -0.211995
O73   O     O_3   0.015723 0.077088 0.676513 -0.380187
H7    H     H_    0.058441 0.072414 0.707705 0.391810
S8    S     S_3+6 0.995953 0.962120 0.293343 0.119213
O74   O     O_2   0.923839 0.973545 0.325547 -0.202275
O75   O     O_2   0.005210 0.905921 0.288945 -0.208807
O76   O     O_3   0.059435 0.984252 0.350320 -0.395260
H8    H     H_    0.105128 0.973207 0.327982 0.379748
C113  C     C_3   0.411304 0.574352 0.350550 -0.231031
C114  C     C_3   0.355460 0.571047 0.412006 -0.840098
H9    H     H_    0.302332 0.582009 0.390077 0.275980
H10   H     H_    0.351675 0.531750 0.433477 0.267382
H11   H     H_    0.367647 0.597705 0.457472 0.245315
H12   H     H_    0.425484 0.614440 0.339209 0.275346
H13   H     H_    0.382308 0.561174 0.300903 0.264722
C115  C     C_3   0.364731 0.424600 0.596862 -0.303323
C116  C     C_3   0.323735 0.447764 0.532497 -0.839891
H14   H     H_    0.308429 0.487601 0.545671 0.280971
H15   H     H_    0.355730 0.446606 0.481297 0.260820
H16   H     H_    0.274349 0.425433 0.522776 0.278479
H17   H     H_    0.376242 0.384083 0.584733 0.225892
H18   H     H_    0.326626 0.425479 0.643500 0.274985
C117  C     C_3   0.586238 0.573138 0.652865 -0.225064
C118  C     C_3   0.644189 0.568251 0.593880 -0.848204
H19   H     H_    0.695421 0.583011 0.615995 0.281195
H20   H     H_    0.651930 0.527730 0.578242 0.266935
H21   H     H_    0.631263 0.591031 0.544640 0.241326
H22   H     H_    0.571575 0.613394 0.662127 0.279265
H23   H     H_    0.614017 0.561060 0.703587 0.273625
C119  C     C_3   0.628308 0.420174 0.390248 -0.303428
C120  C     C_3   0.668991 0.432530 0.460981 -0.841470
H24   H     H_    0.724619 0.418418 0.456222 0.276237
H25   H     H_    0.670656 0.474426 0.470689 0.269813
H26   H     H_    0.644063 0.413510 0.508917 0.253391
H27   H     H_    0.616984 0.378794 0.388251 0.249501
H28   H     H_    0.666143 0.428104 0.344694 0.265786
C121  C     C_3   0.871187 0.076372 0.891389 -0.318270
C122  C     C_3   0.830817 0.060756 0.961213 -0.820539
H29   H     H_    0.774504 0.073599 0.957513 0.282752
H30   H     H_    0.831133 0.018744 0.968265 0.272579
H31   H     H_    0.854909 0.078863 0.010458 0.258320
H32   H     H_    0.880481 0.117971 0.892512 0.240190
H33   H     H_    0.834629 0.068616 0.844648 0.266609
C123  C     C_3   0.912964 0.924401 0.152220 -0.240715
C124  C     C_3   0.852133 0.930243 0.096482 -0.835406
H34   H     H_    0.822843 0.966359 0.106605 0.280401
H35   H     H_    0.870239 0.929332 0.038705 0.246048
H36   H     H_    0.814324 0.898110 0.103639 0.261590
H37   H     H_    0.929410 0.884339 0.157581 0.279459
H38   H     H_    0.887341 0.932952 0.205639 0.271142
C125  C     C_3   0.127529 0.079385 0.109381 -0.316849
C126  C     C_3   0.170933 0.062703 0.042105 -0.847108
H39   H     H_    0.181389 0.021093 0.043945 0.278929
H40   H     H_    0.142890 0.072208 0.990240 0.255442
H41   H     H_    0.222874 0.082959 0.041970 0.276112
H42   H     H_    0.116531 0.120701 0.106045 0.235359
H43   H     H_    0.163199 0.074223 0.157419 0.267570
C127  C     C_3   0.093349 0.926572 0.853254 -0.254719
C128  C     C_3   0.149978 0.936306 0.912386 -0.853707
H44   H     H_    0.160184 0.977826 0.917988 0.275881
H45   H     H_    0.134050 0.920534 0.966334 0.244517
H46   H     H_    0.200648 0.917392 0.896216 0.278664
H47   H     H_    0.080998 0.885626 0.848569 0.268192
H48   H     H_    0.121001 0.935827 0.801282 0.276794
S9    S     S_3+6 0.257980 0.847501 0.666412 0.146578
O77   O     O_2   0.239509 0.852041 0.586528 -0.144787
O78   O     O_2   0.208517 0.881267 0.709633 -0.225085
O79   O     O_3   0.342383 0.867016 0.680975 -0.524416
H49   H     H_    0.361940 0.875411 0.631905 0.392045
S10   S     S_3+6 0.797092 0.247910 0.419227 0.119260
O80   O     O_2   0.782549 0.201186 0.464279 -0.129540
O81   O     O_2   0.875831 0.258868 0.420672 -0.236990
O82   O     O_3   0.753432 0.297392 0.457285 -0.566849
H50   H     H_    0.769309 0.327504 0.428879 0.357074
S11   S     S_3+6 0.740305 0.848644 0.337780 0.144001
O83   O     O_2   0.758846 0.850414 0.417922 -0.144674
O84   O     O_2   0.789308 0.884055 0.297135 -0.227463
O85   O     O_3   0.655756 0.868378 0.324703 -0.519810
H51   H     H_    0.637344 0.877624 0.373988 0.397468
S12   S     S_3+6 0.200590 0.233120 0.581400 0.088522
O86   O     O_2   0.222652 0.184899 0.543474 -0.158416
O87   O     O_2   0.120618 0.237308 0.580018 -0.250495
O88   O     O_3   0.235609 0.282825 0.535415 -0.558052
H52   H     H_    0.210905 0.313171 0.555431 0.367841
S13   S     S_3+6 0.272650 0.146969 0.321366 0.141058
O89   O     O_2   0.234370 0.134338 0.391635 -0.151790
O90   O     O_2   0.245184 0.113670 0.260572 -0.254062
O91   O     O_3   0.360717 0.135695 0.330208 -0.526918
H53   H     H_    0.365681 0.115090 0.375242 0.405073
S14   S     S_3+6 0.796843 0.784102 0.590203 0.135302
O92   O     O_2   0.770145 0.834326 0.561984 -0.150003
O93   O     O_2   0.877044 0.784725 0.589838 -0.210039
O94   O     O_3   0.769018 0.737592 0.533410 -0.515586
H54   H     H_    0.794191 0.706570 0.550294 0.358272
S15   S     S_3+6 0.748849 0.154839 0.673331 0.157382
O95   O     O_2   0.789860 0.140848 0.605160 -0.134005
O96   O     O_2   0.780775 0.128112 0.738345 -0.251970
O97   O     O_3   0.663467 0.135531 0.666116 -0.512823
H55   H     H_    0.658818 0.121011 0.616124 0.408077
S16   S     S_3+6 0.201613 0.768838 0.415514 0.138807
O98   O     O_2   0.221641 0.818341 0.451295 -0.120744
O99   O     O_2   0.121806 0.763474 0.417001 -0.208022
O100  O     O_3   0.237767 0.720806 0.463802 -0.540013
H56   H     H_    0.218696 0.689440 0.440705 0.355048
S17   S     S_3+6 0.749064 0.345588 0.169654 0.151369
O101  O     O_2   0.699213 0.357393 0.107154 -0.157085
O102  O     O_2   0.724880 0.373722 0.237169 -0.251090
O103  O     O_3   0.831734 0.366323 0.149741 -0.502197
H57   H     H_    0.829600 0.377585 0.097983 0.415084
S18   S     S_3+6 0.297412 0.713369 0.907671 0.146153
O104  O     O_2   0.270114 0.663409 0.935339 -0.117930
O105  O     O_2   0.377577 0.711980 0.906773 -0.213033
O106  O     O_3   0.271161 0.760197 0.965042 -0.510345
H58   H     H_    0.289415 0.791952 0.942422 0.348892
S19   S     S_3+6 0.230643 0.353656 0.825326 0.140827
O107  O     O_2   0.277366 0.366468 0.889957 -0.196529
O108  O     O_2   0.251184 0.386411 0.761224 -0.231344
O109  O     O_3   0.144843 0.366524 0.845466 -0.522079
H59   H     H_    0.146534 0.389810 0.888337 0.409478
S20   S     S_3+6 0.701987 0.729200 0.085281 0.133585
O110  O     O_2   0.723359 0.679899 0.049940 -0.150692
O111  O     O_2   0.622039 0.733557 0.084140 -0.200364
O112  O     O_3   0.736414 0.777520 0.036134 -0.528107
H60   H     H_    0.719870 0.808763 0.061617 0.350864
S21   S     S_3+6 0.757958 0.652846 0.833067 0.132818
O113  O     O_2   0.737353 0.647817 0.912330 -0.157113
O114  O     O_2   0.710500 0.618910 0.787937 -0.243966
O115  O     O_3   0.843220 0.634466 0.820208 -0.527433
H61   H     H_    0.859671 0.621168 0.868140 0.401381
S22   S     S_3+6 0.295642 0.275174 0.079135 0.110184
O116  O     O_2   0.276619 0.327863 0.054103 -0.144529
O117  O     O_2   0.375019 0.267840 0.073046 -0.262972
O118  O     O_3   0.255044 0.233850 0.022040 -0.507528
H62   H     H_    0.263715 0.199308 0.042781 0.340745
S23   S     S_3+6 0.248210 0.655307 0.160437 0.151789
O119  O     O_2   0.258524 0.654469 0.078752 -0.139366
O120  O     O_2   0.304721 0.622569 0.195040 -0.205570
O121  O     O_3   0.167975 0.631213 0.183457 -0.507764
H63   H     H_    0.138675 0.632074 0.138295 0.385999
S24   S     S_3+6 0.709672 0.236672 0.922655 0.130061
O122  O     O_2   0.711040 0.283291 0.970548 -0.143342
O123  O     O_2   0.636755 0.212887 0.925750 -0.213571
O124  O     O_3   0.768559 0.194359 0.956349 -0.570834
H64   H     H_    0.767495 0.165557 0.921135 0.344602
S25   S     S_3+6 0.606477 0.252948 0.182940 0.147306
O125  O     O_2   0.552931 0.224789 0.229190 -0.248216
O126  O     O_2   0.575288 0.301850 0.155791 -0.182533
O127  O     O_3   0.627481 0.216671 0.109410 -0.478490
H65   H     H_    0.592938 0.226742 0.070789 0.423184
S26   S     S_3+6 0.355012 0.655167 0.754956 0.139319
O128  O     O_2   0.353175 0.632098 0.679218 -0.278872
O129  O     O_2   0.430721 0.666189 0.775869 -0.172915
O130  O     O_3   0.320026 0.612754 0.814053 -0.444785
H66   H     H_    0.360850 0.599694 0.842995 0.410793
S27   S     S_3+6 0.379646 0.261992 0.816531 0.126518
O131  O     O_2   0.412097 0.213060 0.789705 -0.223608
O132  O     O_2   0.433257 0.303994 0.813353 -0.221594
O133  O     O_3   0.353672 0.254446 0.904204 -0.458399
H67   H     H_    0.371049 0.285109 0.930239 0.415730
S28   S     S_3+6 0.633831 0.665661 0.227019 0.131408
O134  O     O_2   0.630739 0.635505 0.297134 -0.269980
O135  O     O_2   0.561442 0.685756 0.208609 -0.160130
O136  O     O_3   0.662030 0.626556 0.159549 -0.494863
H68   H     H_    0.621497 0.623720 0.124803 0.418386
S29   S     S_3+6 0.603236 0.721077 0.806667 0.150566
O137  O     O_2   0.554915 0.764780 0.787563 -0.239919
O138  O     O_2   0.572100 0.672948 0.777418 -0.209907
O139  O     O_3   0.611742 0.717500 0.898720 -0.428515
H69   H     H_    0.588813 0.685048 0.913110 0.418476
S30   S     S_3+6 0.376371 0.330415 0.223853 0.165122
O140  O     O_2   0.368465 0.363933 0.290470 -0.240119
O141  O     O_2   0.450639 0.309428 0.221912 -0.173778
O142  O     O_3   0.364098 0.367318 0.149571 -0.412677
H70   H     H_    0.405840 0.360853 0.117384 0.402258
S31   S     S_3+6 0.397042 0.727652 0.191314 0.150008
O143  O     O_2   0.445054 0.770094 0.216178 -0.237722
O144  O     O_2   0.427357 0.677773 0.214362 -0.195154
O145  O     O_3   0.388481 0.729236 0.099060 -0.440187
H71   H     H_    0.414232 0.698691 0.080575 0.421272
S32   S     S_3+6 0.596478 0.290449 0.804981 0.164648
O146  O     O_2   0.577269 0.335537 0.758320 -0.198459
O147  O     O_2   0.544021 0.248218 0.793654 -0.199932
O148  O     O_3   0.594122 0.310053 0.893065 -0.435186
H72   H     H_    0.543504 0.307429 0.908202 0.399794
S33   S     S_3+6 0.104594 0.777406 0.692855 0.152183
O149  O     O_2   0.058231 0.732384 0.710602 -0.242476
O150  O     O_2   0.071477 0.824439 0.723115 -0.200006
O151  O     O_3   0.113948 0.782285 0.601011 -0.429472
H73   H     H_    0.083222 0.811205 0.586315 0.422153
S34   S     S_3+6 0.881963 0.180477 0.287718 0.144228
O152  O     O_2   0.880869 0.141985 0.226407 -0.276209
O153  O     O_2   0.953084 0.206249 0.290119 -0.162587
O154  O     O_3   0.867630 0.149568 0.367297 -0.449937
H74   H     H_    0.913375 0.151365 0.394419 0.429403
S35   S     S_3+6 0.894234 0.784812 0.305233 0.152246
O155  O     O_2   0.944810 0.742303 0.286736 -0.234655
O156  O     O_2   0.921110 0.833627 0.274024 -0.222984
O157  O     O_3   0.886618 0.789909 0.397157 -0.429329
H75   H     H_    0.913677 0.820881 0.410760 0.423706
S36   S     S_3+6 0.130294 0.168259 0.723283 0.125477
O158  O     O_2   0.132939 0.136993 0.792390 -0.286787
O159  O     O_2   0.055207 0.185623 0.710059 -0.154284
O160  O     O_3   0.157518 0.131023 0.653153 -0.465600
H76   H     H_    0.119132 0.132772 0.615803 0.431449
S37   S     S_3+6 0.120156 0.235533 0.317917 0.150670
O161  O     O_2   0.067476 0.270090 0.281022 -0.231319
O162  O     O_2   0.085004 0.186667 0.339762 -0.144121
O163  O     O_3   0.149958 0.264320 0.394391 -0.495031
H77   H     H_    0.136106 0.241706 0.435170 0.435382
S38   S     S_3+6 0.858370 0.842148 0.740442 0.131231
O164  O     O_2   0.858532 0.867316 0.814817 -0.270585
O165  O     O_2   0.932845 0.827294 0.719945 -0.166520
O166  O     O_3   0.826538 0.884375 0.679209 -0.480627
H78   H     H_    0.865032 0.888762 0.642420 0.409300
S39   S     S_3+6 0.894548 0.244909 0.681652 0.154422
O167  O     O_2   0.950085 0.271506 0.727326 -0.253170
O168  O     O_2   0.921775 0.194182 0.656314 -0.129380
O169  O     O_3   0.876940 0.280450 0.606801 -0.487852
H79   H     H_    0.912096 0.269326 0.569322 0.425567
S40   S     S_3+6 0.130722 0.832884 0.275216 0.147536
O170  O     O_2   0.127355 0.863606 0.205606 -0.261151
O171  O     O_2   0.058438 0.812253 0.293288 -0.161187
O172  O     O_3   0.158326 0.871835 0.343075 -0.471802
H80   H     H_    0.116729 0.876159 0.376145 0.418476
S41   S     S_3+6 0.359675 0.950064 0.443815 0.145559
O173  O     O_2   0.382838 0.914735 0.383124 -0.239365
O174  O     O_2   0.312729 0.921543 0.496494 -0.187728
O175  O     O_3   0.313202 0.998212 0.405940 -0.463647
H81   H     H_    0.262922 0.992563 0.420480 0.420688
S42   S     S_3+6 0.637843 0.049610 0.438929 0.140994
O176  O     O_2   0.612599 0.085116 0.379667 -0.239535
O177  O     O_2   0.687824 0.077721 0.489296 -0.212023
O178  O     O_3   0.681491 0.000932 0.398499 -0.458553
H82   H     H_    0.732601 0.006475 0.409523 0.424617
S43   S     S_3+6 0.639814 0.950252 0.556795 0.141963
O179  O     O_2   0.686553 0.921428 0.504114 -0.196190
O180  O     O_2   0.682139 0.993231 0.589697 -0.179803
O181  O     O_3   0.613351 0.911568 0.625246 -0.522040
H83   H     H_    0.649788 0.884256 0.627506 0.403375
S44   S     S_3+6 0.360564 0.050943 0.559120 0.140876
O182  O     O_2   0.313502 0.080431 0.507660 -0.199183
O183  O     O_2   0.317994 0.008420 0.592602 -0.172902
O184  O     O_3   0.388777 0.089472 0.627260 -0.519527
H84   H     H_    0.348778 0.113377 0.636272 0.403061
S45   S     S_3+6 0.870732 0.449587 0.922385 0.128712
O185  O     O_2   0.902292 0.412635 0.868064 -0.253428
O186  O     O_2   0.814758 0.422712 0.967040 -0.221536
O187  O     O_3   0.832965 0.497760 0.875354 -0.470438
H85   H     H_    0.780872 0.493769 0.882177 0.423001
S46   S     S_3+6 0.153831 0.545540 0.983864 0.155298
O188  O     O_2   0.153410 0.586014 0.925276 -0.191056
O189  O     O_2   0.189234 0.566157 0.051717 -0.193195
O190  O     O_3   0.202356 0.496431 0.951691 -0.462740
H86   H     H_    0.248422 0.497626 0.978503 0.423836
S47   S     S_3+6 0.120199 0.445526 0.091703 0.133076
O191  O     O_2   0.180034 0.418488 0.052559 -0.203574
O192  O     O_2   0.150797 0.486135 0.140552 -0.173569
O193  O     O_3   0.075932 0.403710 0.144868 -0.535052
H87   H     H_    0.111917 0.377995 0.159637 0.389147
S48   S     S_3+6 0.856308 0.548013 0.042822 0.138454
O194  O     O_2   0.812597 0.576567 0.987511 -0.209153
O195  O     O_2   0.813170 0.504076 0.071246 -0.181374
O196  O     O_3   0.875993 0.586468 0.114226 -0.521103
H88   H     H_    0.834365 0.609497 0.119246 0.407576

loop_
_geom_bond_atom_site_label_1
_geom_bond_atom_site_label_2
_geom_bond_distance
_ccdc_geom_bond_type
C104  C109  1.419292 A    
Zn6   O16   1.959516 S    
S39   O167  1.503759 D    
S25   O125  1.505186 D    
Zn7   O13   1.961081 S    
C123  H38   1.105544 S    
S5    O66   1.500781 D    
S45   O185  1.503527 D    
S18   O105  1.503488 D    
S8    O76   1.681412 S    
Zn5   O51   1.959287 S    
S31   O145  1.685254 S    
O34   C11   1.297852 A    
C42   C50   1.444128 A    
C46   C47   1.401749 A    
S41   O173  1.503436 D    
C5    C92   1.488112 S    
S10   O80   1.502281 D    
C6    C91   1.465399 S    
O163  H77   0.985926 S    
C24   C51   1.485225 S    
C53   S9    1.774146 S    
S33   O150  1.486258 D    
S46   O189  1.501156 D    
S18   O106  1.683606 S    
C81   S37   1.763609 S    
C38   C39   1.407179 A    
C122  H30   1.111302 S    
C128  H44   1.111940 S    
Zn5   O20   1.961107 S    
C26   C43   1.400854 A    
S28   O134  1.503361 D    
C69   S25   1.765139 S    
O166  H78   0.990641 S    
S35   O157  1.681907 S    
S23   O119  1.497335 D    
C42   C43   1.393796 A    
S29   O139  1.683753 S    
C108  C111  1.424892 A    
Zn2   O48   1.959287 S    
C67   C100  1.405866 A    
S11   O84   1.503240 D    
C103  C110  1.419108 A    
C76   C92   1.432334 A    
Zn4   O2    1.944246 S    
C70   C86   1.419923 A    
C122  H31   1.109199 S    
C31   C125  1.531001 S    
O64   H4    0.990111 S    
C31   C39   1.398167 A    
C74   C90   1.433084 A    
O11   C7    1.282816 A    
C115  C116  1.527509 S    
S39   O169  1.684578 S    
S21   O113  1.497638 D    
C55   C88   1.409267 A    
S1    O54   1.492535 D    
C15   C98   1.474378 S    
O109  H59   0.990008 S    
S3    O59   1.501795 D    
C22   C49   1.471528 S    
O115  H61   0.988825 S    
S32   O147  1.497274 D    
C25   C33   1.433728 A    
S22   O116  1.500667 D    
C29   C121  1.529294 S    
C80   S36   1.770858 S    
C33   S3    1.781899 S    
Zn12  O24   1.942642 S    
S17   O103  1.682957 S    
S43   O180  1.503732 D    
C116  H14   1.110284 S    
O16   C12   1.301394 A    
C78   C94   1.426544 A    
O40   C18   1.302410 A    
O124  H64   0.990013 S    
Zn16  O4    1.984243 S    
S24   O122  1.500999 D    
C66   C97   1.420963 A    
C69   C85   1.407194 A    
O79   H49   0.989656 S    
C57   C81   1.386825 A    
C72   C88   1.424363 A    
C73   C89   1.403570 A    
S40   O170  1.503745 D    
S47   O192  1.500906 D    
C121  H33   1.110509 S    
S25   O127  1.685751 S    
Zn7   O3    1.944247 S    
C28   C36   1.405657 A    
S45   O187  1.684454 S    
S31   O143  1.502556 D    
C62   C70   1.400084 A    
S21   O115  1.685360 S    
C75   S31   1.746881 S    
O91   H53   0.986845 S    
C20   C111  1.489550 S    
O38   C18   1.300212 A    
S41   O175  1.683795 S    
O49   C23   1.276017 A    
C35   S1    1.795670 S    
Zn3   O10   1.961405 S    
S4    O62   1.502542 D    
C56   S12   1.777050 S    
S22   O118  1.682815 S    
O42   C20   1.311449 A    
O136  H68   0.991153 S    
O33   C12   1.279287 A    
C38   S8    1.781088 S    
C28   C41   1.406715 A    
C113  H13   1.108675 S    
C30   C38   1.435776 A    
S28   O136  1.682426 S    
Zn10  O22   1.943551 S    
S12   O87   1.503506 D    
O35   C10   1.284137 A    
Zn8   O14   1.961082 S    
C65   C98   1.408792 A    
Zn13  O29   1.943549 S    
C77   C93   1.399944 A    
C63   C96   1.402625 A    
Zn10  O2    1.986357 S    
C83   C99   1.411672 A    
O52   C24   1.279928 A    
Zn3   O1    1.944247 S    
S27   O133  1.678389 S    
S6    O69   1.487058 D    
C54   C78   1.402938 A    
O121  H63   0.988292 S    
O43   C19   1.296866 A    
C70   S26   1.778676 S    
C25   C44   1.432878 A    
O112  H60   0.990810 S    
C48   C52   1.406897 A    
C61   C69   1.391154 A    
C26   C34   1.407869 A    
C116  H15   1.107311 S    
O37   C17   1.302284 A    
C124  H35   1.103721 S    
S2    O56   1.500221 D    
O130  H66   0.990462 S    
O139  H69   0.990814 S    
C62   S18   1.778612 S    
Zn3   O5    1.961081 S    
C117  H22   1.104785 S    
C74   S30   1.786509 S    
C102  S42   1.782286 S    
C31   C46   1.402258 A    
O133  H67   0.988802 S    
O44   C20   1.299159 A    
C103  S43   1.780884 S    
O175  H81   0.990343 S    
S39   O168  1.497783 D    
C101  S41   1.781505 S    
C121  C122  1.534336 S    
S36   O158  1.503303 D    
S8    O75   1.488158 D    
C116  H16   1.110644 S    
O23   C6    1.279579 A    
Zn13  O41   1.963488 S    
S26   O128  1.503212 D    
C82   C98   1.422109 A    
S24   O124  1.682490 S    
O32   C13   1.295153 A    
C124  H34   1.110526 S    
Zn16  O44   1.964558 S    
C106  C107  1.401521 A    
C117  H23   1.106143 S    
C59   C83   1.389601 A    
C60   C84   1.400841 A    
S40   O172  1.682796 S    
S47   O191  1.504682 D    
C118  H20   1.110388 S    
C126  H39   1.110836 S    
C72   S28   1.764812 S    
C73   S29   1.757825 S    
C9    C96   1.474872 S    
C67   C75   1.382228 A    
C10   C95   1.466976 S    
S9    O77   1.497964 D    
S13   O90   1.499421 D    
O178  H82   0.989944 S    
S4    O64   1.682207 S    
O127  H65   0.991586 S    
S37   O162  1.497955 D    
C27   C35   1.443908 A    
S14   O93   1.503807 D    
C8    C89   1.468008 S    
C32   C40   1.440316 A    
C1    C88   1.475387 S    
C2    C87   1.477325 S    
C80   C96   1.425803 A    
C81   C97   1.411397 A    
S48   O194  1.499415 D    
S19   O108  1.500497 D    
O193  H87   0.991764 S    
O50   C24   1.278860 A    
C114  H11   1.106023 S    
C3    C86   1.468948 S    
C119  H28   1.110296 S    
O41   C19   1.301401 A    
O5    C1    1.287583 A    
C78   S34   1.766287 S    
C113  C114  1.533316 S    
Zn4   O6    1.961082 S    
C71   C87   1.406100 A    
C120  H26   1.108834 S    
O47   C21   1.277661 A    
O70   H6    0.989746 S    
C115  H17   1.107325 S    
C114  H10   1.106809 S    
O157  H75   0.990204 S    
C47   C51   1.444905 A    
S38   O164  1.503440 D    
C54   C85   1.410308 A    
C71   S27   1.751738 S    
O8    C4    1.292134 A    
C105  S45   1.780975 S    
S34   O152  1.503090 D    
C58   C89   1.419384 A    
O58   H2    0.988350 S    
C127  H47   1.103563 S    
S36   O160  1.683503 S    
S20   O112  1.683021 S    
O151  H73   0.990201 S    
S31   O144  1.488808 D    
C63   S19   1.771931 S    
C108  S48   1.782291 S    
C107  C112  1.410916 A    
C68   C99   1.411614 A    
C65   S21   1.770600 S    
Zn1   O1    1.948807 S    
S16   O100  1.681072 S    
C43   C49   1.408649 A    
C124  H36   1.110698 S    
C29   C37   1.402006 A    
C79   C95   1.406332 A    
S33   O149  1.504071 D    
S23   O121  1.685653 S    
C58   C82   1.401040 A    
S46   O190  1.681324 S    
C30   C47   1.438780 A    
C126  H41   1.110231 S    
C101  C104  1.401264 A    
S28   O135  1.494119 D    
S18   O104  1.497210 D    
O9    C5    1.287113 A    
S35   O156  1.491531 D    
C34   C35   1.423798 A    
S29   O138  1.490144 D    
C63   C71   1.387691 A    
O184  H84   0.990878 S    
S7    O73   1.678557 S    
O13   C9    1.284419 A    
O67   H5    0.988619 S    
S38   O166  1.682468 S    
S9    O79   1.684842 S    
O18   C14   1.287827 A    
S42   O176  1.502921 D    
C59   C92   1.397009 A    
O6    C2    1.295471 A    
C60   C91   1.412793 A    
C128  H46   1.110700 S    
S30   O140  1.502567 D    
C66   S22   1.788416 S    
S48   O196  1.684069 S    
O48   C22   1.273441 A    
C41   C49   1.411853 A    
C125  C126  1.531389 S    
Zn14  O30   1.943551 S    
C32   C127  1.535918 S    
S1    O53   1.501792 D    
Zn15  O3    1.984245 S    
C56   C80   1.404760 A    
C39   S5    1.771330 S    
S22   O117  1.504413 D    
C104  S44   1.784194 S    
C120  H24   1.109758 S    
Zn4   O46   1.961561 S    
O24   C5    1.299303 A    
Zn11  O26   1.943026 S    
O85   H51   0.989498 S    
S13   O89   1.502751 D    
S17   O102  1.500672 D    
C16   C97   1.474943 S    
C84   C100  1.424922 A    
C19   C112  1.470642 S    
C45   C51   1.443426 A    
S24   O123  1.504830 D    
Zn1   O12   1.961107 S    
C117  C118  1.531112 S    
Zn2   O11   1.961108 S    
C26   C115  1.532762 S    
C14   C99   1.465757 S    
S40   O171  1.496770 D    
O61   H3    0.989713 S    
C121  H32   1.106864 S    
S25   O126  1.495773 D    
C123  H37   1.100809 S    
S45   O186  1.504047 D    
S44   O184  1.683435 S    
S21   O114  1.502761 D    
Zn4   O9    1.961403 S    
S41   O174  1.502349 D    
C125  H42   1.106278 S    
Zn14  O42   1.963488 S    
Zn13  O3    1.986355 S    
C102  C109  1.417131 A    
S43   O179  1.500708 D    
C84   S40   1.766086 S    
Zn14  O4    1.986357 S    
S4    O63   1.498648 D    
C118  H19   1.111317 S    
C53   C86   1.408512 A    
S33   O151  1.683749 S    
O76   H8    0.990675 S    
C106  S46   1.788010 S    
O19   C15   1.288833 A    
S46   O188  1.506660 D    
S44   O182  1.502142 D    
S30   O142  1.679894 S    
C122  H29   1.110158 S    
C113  H12   1.106210 S    
C18   C109  1.479715 S    
S15   O95   1.502607 D    
O39   C17   1.302074 A    
S3    O60   1.488804 D    
O82   H50   0.991593 S    
O7    C3    1.286607 A    
C66   C74   1.413659 A    
Zn13  O36   1.941230 S    
C57   S13   1.768217 S    
Zn14  O35   1.941229 S    
C58   S14   1.784494 S    
C59   S15   1.769653 S    
O51   C23   1.274774 A    
S16   O98   1.500706 D    
S11   O85   1.684406 S    
O28   C1    1.294483 A    
S27   O132  1.494551 D    
C57   C90   1.398928 A    
Zn16  O33   1.943027 S    
C29   C48   1.399698 A    
C54   S10   1.783547 S    
C55   S11   1.775538 S    
C7    C90   1.481613 S    
C40   S6    1.787052 S    
O21   C8    1.280432 A    
C33   C36   1.413833 A    
Zn7   O18   1.961405 S    
C64   C95   1.410112 A    
C11   C94   1.480383 S    
S2    O57   1.501149 D    
O12   C8    1.299437 A    
O88   H52   0.989883 S    
Zn11  O39   1.964558 S    
Zn12  O25   1.943027 S    
O142  H70   0.991134 S    
S1    O55   1.678444 S    
O97   H55   0.988572 S    
Zn11  O1    1.984245 S    
C4    C85   1.464621 S    
S6    O68   1.501902 D    
Zn15  O43   1.964558 S    
S48   O195  1.502548 D    
S32   O146  1.502033 D    
C27   C42   1.436650 A    
O148  H72   0.990486 S    
C118  H21   1.104735 S    
C75   C91   1.401588 A    
O145  H71   0.993694 S    
Zn5   O3    1.948807 S    
C64   C72   1.398562 A    
Zn6   O4    1.948809 S    
C105  C112  1.412920 A    
C65   C73   1.384394 A    
C36   S2    1.775236 S    
C37   S7    1.776127 S    
C67   S23   1.769554 S    
S15   O97   1.684880 S    
S2    O58   1.679149 S    
S36   O159  1.499063 D    
S43   O181  1.683324 S    
S19   O107  1.503534 D    
C68   C76   1.414646 A    
S26   O129  1.498058 D    
O26   C3    1.293608 A    
C13   C100  1.477198 S    
S16   O99   1.503297 D    
O106  H58   0.992045 S    
O30   C15   1.294946 A    
S47   O193  1.683942 S    
O187  H85   0.990186 S    
C126  H40   1.108599 S    
O94   H54   0.990708 S    
C102  C103  1.399719 A    
C127  C128  1.532475 S    
C46   C52   1.407885 A    
S26   O130  1.682893 S    
C61   S17   1.768009 S    
C79   S35   1.751857 S    
Zn8   O50   1.961561 S    
Zn2   O2    1.948809 S    
S5    O65   1.497806 D    
S27   O131  1.501622 D    
Zn15  O31   1.942643 S    
Zn16  O32   1.942642 S    
C30   C123  1.534786 S    
S37   O161  1.500310 D    
S10   O82   1.682425 S    
O55   H1    0.990666 S    
S14   O94   1.681150 S    
Zn8   O4    1.944246 S    
S12   O86   1.498339 D    
S20   O111  1.503328 D    
C64   S20   1.783273 S    
Zn7   O49   1.961561 S    
Zn15  O34   1.943026 S    
S20   O110  1.498251 D    
O169  H79   0.990984 S    
S7    O71   1.499723 D    
C120  H25   1.114606 S    
S35   O155  1.501473 D    
S3    O61   1.679249 S    
C115  H18   1.108506 S    
C68   S24   1.789240 S    
C45   C48   1.396964 A    
Zn6   O52   1.959287 S    
O181  H83   0.991024 S    
S38   O165  1.496085 D    
S17   O101  1.504198 D    
C27   C117  1.535616 S    
S32   O148  1.681203 S    
Zn1   O47   1.959287 S    
O45   C21   1.281777 A    
C119  C120  1.529628 S    
S34   O153  1.496740 D    
O22   C7    1.303696 A    
Zn3   O45   1.961561 S    
C37   C40   1.415552 A    
C76   S32   1.766735 S    
C127  H48   1.105097 S    
S8    O74   1.502705 D    
S44   O183  1.503297 D    
C41   C44   1.400030 A    
O196  H88   0.990946 S    
O73   H7    0.989254 S    
C17   C110  1.483224 S    
S13   O91   1.685011 S    
S15   O96   1.500548 D    
S23   O120  1.503002 D    
S34   O154  1.682162 S    
O160  H76   0.990776 S    
C125  H43   1.108657 S    
C123  C124  1.533767 S    
Zn9   O21   1.943549 S    
O190  H86   0.992432 S    
Zn11  O23   1.942643 S    
C28   C119  1.532320 S    
S29   O137  1.503054 D    
Zn12  O40   1.964558 S    
S10   O81   1.504630 D    
O25   C4    1.285377 A    
C62   C93   1.419723 A    
Zn9   O1    1.986355 S    
S7    O72   1.500161 D    
C55   C79   1.385518 A    
Zn1   O7    1.959518 S    
O27   C2    1.286684 A    
S9    O78   1.502613 D    
S11   O83   1.498440 D    
Zn2   O8    1.959516 S    
S5    O67   1.681604 S    
C53   C77   1.382847 A    
C56   C87   1.410999 A    
O29   C16   1.284343 A    
S42   O177  1.503566 D    
C82   S38   1.772836 S    
C101  C110  1.420088 A    
S37   O163  1.677177 S    
C83   S39   1.765227 S    
C105  C108  1.396978 A    
C128  H45   1.106519 S    
S14   O92   1.502097 D    
Zn9   O28   1.941230 S    
S30   O141  1.497385 D    
Zn10  O27   1.941229 S    
O31   C14   1.287874 A    
S12   O88   1.685575 S    
C32   C45   1.435659 A    
C34   S4    1.775336 S    
S19   O109  1.683310 S    
O15   C11   1.288385 A    
C107  S47   1.785806 S    
Zn6   O19   1.961108 S    
C119  H27   1.108262 S    
C60   S16   1.781727 S    
O103  H57   0.987732 S    
S42   O178  1.684373 S    
O100  H56   0.991001 S    
C44   C50   1.442174 A    
S6    O70   1.678784 S    
O20   C16   1.298231 A    
O46   C22   1.277697 A    
O10   C6    1.294626 A    
C61   C94   1.403519 A    
O154  H74   0.990605 S    
Zn8   O17   1.961403 S    
C114  H9    1.111005 S    
Zn10  O38   1.963488 S    
C12   C93   1.471867 S    
O172  H80   0.990666 S    
O14   C10   1.292847 A    
Zn9   O37   1.963488 S    
C21   C50   1.485337 S    
C77   S33   1.750890 S    
Zn12  O2    1.984243 S    
C23   C52   1.475063 S    
C25   C113  1.537254 S    
O118  H62   0.996632 S    
O17   C13   1.286079 A    
C106  C111  1.436508 A    
O36   C9    1.297275 A    
Zn5   O15   1.959518 S    
