data_mof_unit_31090.cif
_audit_creation_date              2012-12-10T18:47:49-0500
_audit_creation_method            fapswitch 2.2
_symmetry_space_group_name_H-M    P1
_symmetry_Int_Tables_number       1
_space_group_crystal_system       triclinic
_cell_length_a                    9.927158
_cell_length_b                    10.672775
_cell_length_c                    15.189752
_cell_angle_alpha                 89.874681
_cell_angle_beta                  76.321594
_cell_angle_gamma                 89.61301
_cell_volume                      1563.67904348

loop_
_atom_site_label
_atom_site_type_symbol
_atom_type_description
_atom_site_fract_x
_atom_site_fract_y
_atom_site_fract_z
_atom_type_partial_charge
C1    C     C_R   0.499840 0.739683 0.498977 0.951357
C2    C     C_R   0.411941 0.937840 0.453705 0.544311
C3    C     C_R   0.501272 0.127858 0.501022 -0.193834
C4    C     C_R   0.498793 0.872300 0.498696 -0.203919
C5    C     C_R   0.948402 0.418826 0.446481 -0.063132
C6    C     C_R   0.051608 0.581153 0.553505 -0.078176
C7    C     C_R   0.091691 0.418886 0.446471 -0.077178
C8    C     C_R   0.908338 0.581090 0.553510 -0.088203
C9    C     C_R   0.420434 0.478690 0.671328 0.897977
C10   C     C_R   0.580532 0.494813 0.325798 0.908812
C11   C     C_R   0.385627 0.409667 0.756312 -0.146080
C12   C     C_R   0.500210 0.260352 0.500848 0.935095
C13   C     C_R   0.617006 0.457114 0.231431 -0.152787
C14   C     C_R   0.195830 0.331742 0.870973 0.564317
C15   C     C_R   0.801498 0.393030 0.105787 0.566978
C16   C     C_R   0.254018 0.359145 0.780927 -0.314855
C17   C     C_R   0.756873 0.445649 0.190777 -0.316748
C18   C     C_R   0.478314 0.386688 0.810664 -0.151879
C19   C     C_R   0.517155 0.416166 0.186459 -0.204969
C20   C     C_R   0.429233 0.331747 0.896609 0.023987
C21   C     C_R   0.558800 0.356619 0.101735 0.029390
C22   C     C_R   0.284873 0.314720 0.930302 -0.060108
C23   C     C_R   0.320602 0.299484 0.083317 0.498174
C24   C     C_R   0.702944 0.340090 0.063737 -0.046078
C25   C     C_R   0.517943 0.310186 0.954513 -0.096733
C26   C     C_R   0.464127 0.322523 0.048887 -0.090800
C27   C     C_3   0.990082 0.431622 0.862877 -0.278063
C28   C     C_3   0.002605 0.511357 0.069201 -0.312297
C29   C     C_3   0.289651 0.160967 0.199799 -0.324659
C30   C     C_3   0.673626 0.101226 0.832438 -0.255978
C31   C     C_3   0.807172 0.106771 0.559259 -0.291042
C32   C     C_3   0.192465 0.895637 0.439823 -0.294128
C33   C     C_R   0.656988 0.272044 0.922699 0.483624
C34   C     C_R   0.234974 0.286058 0.022465 -0.254130
C35   C     C_R   0.744598 0.276197 0.981653 -0.287881
C36   C     C_R   0.584045 0.933292 0.545756 -0.385839
C37   C     C_R   0.416157 0.066956 0.453875 -0.379432
C38   C     C_R   0.588000 0.062387 0.546052 0.545255
H1    H     H_    0.129355 0.257091 0.048391 0.248427
H2    H     H_    0.089200 0.646378 0.596454 0.122959
H3    H     H_    0.161497 0.353821 0.403440 0.137863
H4    H     H_    0.838572 0.646220 0.596468 0.116295
H5    H     H_    0.960702 0.398745 0.800688 0.185225
H6    H     H_    0.055772 0.517021 0.848378 0.129384
H7    H     H_    0.893988 0.463564 0.910504 0.202955
H8    H     H_    0.039551 0.517786 0.132555 0.178111
H9    H     H_    0.932264 0.591254 0.063491 0.139677
H10   H     H_    0.095426 0.521042 0.012532 0.200689
H11   H     H_    0.402711 0.143935 0.191265 0.178084
H12   H     H_    0.846558 0.236255 0.960727 0.254754
H13   H     H_    0.245112 0.090584 0.160849 0.165450
H14   H     H_    0.239366 0.147855 0.272597 0.185113
H15   H     H_    0.721379 0.064355 0.763919 0.214172
H16   H     H_    0.715446 0.044779 0.881855 0.133655
H17   H     H_    0.559522 0.088744 0.844501 0.167732
H18   H     H_    0.866255 0.172339 0.592255 0.202387
H19   H     H_    0.834936 0.127695 0.485280 0.150758
H20   H     H_    0.840267 0.010107 0.572062 0.134575
H21   H     H_    0.163673 0.877144 0.514139 0.149569
H22   H     H_    0.132821 0.829486 0.407707 0.193244
H23   H     H_    0.409081 0.433386 0.217360 0.220251
H24   H     H_    0.160907 0.992089 0.425187 0.138044
H25   H     H_    0.584638 0.417816 0.788669 0.190436
H26   H     H_    0.833683 0.476467 0.225854 0.180817
H27   H     H_    0.188139 0.358149 0.733430 0.182967
H28   H     H_    0.645250 0.880660 0.583648 0.174133
H29   H     H_    0.355210 0.119729 0.415893 0.174662
H30   H     H_    0.910836 0.353669 0.403465 0.130879
N1    N     N_R   0.142780 0.500030 0.500020 -0.079087
N2    N     N_R   0.857220 0.499970 0.499980 -0.076285
O1    O     O_R   0.385370 0.683250 0.500010 -0.580554
O2    O     O_3   0.940879 0.392914 0.063178 -0.592563
O3    O     O_3   0.262636 0.284223 0.174786 -0.629707
O4    O     O_3   0.708020 0.228854 0.835336 -0.605820
O5    O     O_3   0.664342 0.125158 0.597478 -0.589726
O6    O     O_3   0.335210 0.875098 0.402476 -0.594929
O7    O     O_R   0.614630 0.316750 0.499990 -0.586675
O8    O     O_R   0.614700 0.683220 0.500000 -0.633730
O9    O     O_R   0.385300 0.316780 0.500000 -0.643231
O10   O     O_R   0.319830 0.500020 0.632250 -0.638327
O11   O     O_R   0.680170 0.499980 0.367750 -0.629769
O12   O     O_R   0.549160 0.499990 0.632240 -0.618243
O13   O     O_R   0.450840 0.500010 0.367760 -0.613081
O14   O     O_3   0.053194 0.331769 0.901944 -0.592797
Zn1   Zn    Zn3+2 0.346870 0.500020 0.500000 0.958358
Zn2   Zn    Zn3+2 0.653130 0.499980 0.500000 0.962551

loop_
_geom_bond_atom_site_label_1
_geom_bond_atom_site_label_2
_ccdc_geom_bond_type
C6    N1    A    
C21   C26   A    
C4    C36   A    
C11   C18   A    
C14   O14   S    
C2    O6    S    
C28   H9    S    
C29   H11   S    
C15   O2    S    
C30   H16   S    
C28   H8    S    
C1    O1    A    
C31   H20   S    
C27   O14   S    
C19   C21   A    
C8    H4    S    
C17   H26   S    
C30   O4    S    
C36   H28   S    
C18   H25   S    
C29   O3    S    
C20   C25   A    
C12   O9    A    
C10   O13   A    
C23   C26   A    
C3    C12   S    
O1    Zn1   S    
C27   H6    S    
C3    C38   A    
C31   H18   S    
C18   C20   A    
O11   Zn2   S    
C9    O12   A    
C27   H7    S    
C1    O8    A    
C28   O2    S    
C23   O3    S    
C5    H30   S    
C38   O5    S    
C22   C34   A    
C30   H15   S    
C24   C35   A    
C13   C19   A    
C34   H1    S    
C5    C7    A    
C6    C8    A    
C25   C26   A    
O12   Zn2   S    
C10   C13   S    
C9    O10   A    
C2    C4    A    
C7    N1    A    
O10   Zn1   S    
C11   C16   A    
C31   O5    S    
C23   C34   A    
C12   O7    A    
C35   H12   S    
C9    C11   S    
C15   C24   A    
O13   Zn1   S    
C20   C22   A    
O7    Zn2   S    
C14   C16   A    
C32   H22   S    
N2    Zn2   S    
O9    Zn1   S    
N1    Zn1   S    
C29   H13   S    
C15   C17   A    
C28   H10   S    
C5    N2    A    
C32   O6    S    
C30   H17   S    
C10   O11   A    
C8    N2    A    
C13   C17   A    
C1    C4    S    
C31   H19   S    
C36   C38   A    
C32   H24   S    
C2    C37   A    
C14   C22   A    
C19   H23   S    
C37   H29   S    
C33   C35   A    
C6    H2    S    
C7    H3    S    
C27   H5    S    
C33   O4    S    
C3    C37   A    
O8    Zn2   S    
C21   C24   A    
C16   H27   S    
C32   H21   S    
C25   C33   A    
C29   H14   S    
