data_mof_unit_49786.cif
_audit_creation_date              2013-03-05T16:19:43-0500
_audit_creation_method            fapswitch 2.2
_symmetry_space_group_name_H-M    P1
_symmetry_Int_Tables_number       1
_space_group_crystal_system       triclinic
_cell_length_a                    10.675425
_cell_length_b                    9.760747
_cell_length_c                    27.49926
_cell_angle_alpha                 90.209695
_cell_angle_beta                  87.934716
_cell_angle_gamma                 90.439117
_cell_volume                      2863.46440493

loop_
_atom_site_label
_atom_site_type_symbol
_atom_site_description
_atom_site_fract_x
_atom_site_fract_y
_atom_site_fract_z
_atom_type_partial_charge
O1    O     O_R   0.314910 0.616040 0.499990 -0.645032
O2    O     O_R   0.314910 0.383960 0.499990 -0.644595
C1    C     C_R   0.258044 0.499741 0.499851 0.877085
O3    O     O_R   0.500140 0.616020 0.428740 -0.599482
O4    O     O_R   0.500140 0.383980 0.428740 -0.633339
C2    C     C_R   0.502310 0.499152 0.405699 0.912217
Zn1   Zn    Zn3+2 0.500150 0.654960 0.499980 0.959950
Zn2   Zn    Zn3+2 0.500150 0.345040 0.499980 0.910915
O5    O     O_R   0.685320 0.616040 0.499970 -0.564320
O6    O     O_R   0.685320 0.383960 0.499970 -0.645656
O7    O     O_R   0.500090 0.616050 0.571230 -0.622322
O8    O     O_R   0.500090 0.383950 0.571230 -0.640930
C3    C     C_R   0.742351 0.501082 0.499968 0.962207
C4    C     C_R   0.498781 0.500145 0.594128 0.900897
C5    C     C_R   0.401032 0.378394 0.180138 0.592364
O9    O     O_2   0.295922 0.369620 0.208690 -0.551007
N1    N     N_R   0.510592 0.417158 0.200622 -0.335309
C6    C     C_R   0.619135 0.434662 0.173663 0.591982
C7    C     C_R   0.567352 0.344643 0.282558 0.360785
C8    C     C_R   0.568134 0.372509 0.332240 -0.317476
C9    C     C_R   0.457358 0.586928 0.321125 0.159163
C10   C     C_R   0.458724 0.560108 0.271094 -0.114596
C11   C     C_R   0.511582 0.439843 0.251942 0.147183
C12   C     C_R   0.508115 0.377266 0.101022 -0.084807
C13   C     C_R   0.397745 0.351834 0.129621 -0.075473
C14   C     C_R   0.289941 0.299342 0.106768 0.058730
C15   C     C_R   0.620147 0.415366 0.123393 -0.022654
C16   C     C_R   0.511202 0.490532 0.352252 -0.099698
H1    H     H_    0.418202 0.632577 0.246486 0.167699
C17   C     C_R   0.492541 0.499364 0.647285 -0.102012
C18   C     C_R   0.385838 0.386461 0.977272 0.074432
C19   C     C_R   0.615929 0.374761 0.970239 -0.063304
C20   C     C_R   0.498878 0.393142 0.948671 0.063217
C21   C     C_R   0.273355 0.425452 0.955932 -0.094095
C22   C     C_R   0.270396 0.456875 0.906763 -0.083056
C23   C     C_R   0.380310 0.453488 0.877583 -0.039836
C24   C     C_R   0.495081 0.422128 0.898534 -0.052214
C25   C     C_R   0.606194 0.421414 0.869463 -0.084801
C26   C     C_R   0.600352 0.451046 0.819863 0.605550
N2    N     N_R   0.487860 0.480172 0.800257 -0.338959
C27   C     C_R   0.378815 0.482026 0.827790 0.593230
C28   C     C_R   0.458662 0.374418 0.722091 -0.129874
C29   C     C_R   0.463848 0.377075 0.671799 -0.201564
C30   C     C_R   0.514186 0.619865 0.673797 -0.249584
C31   C     C_R   0.510041 0.618610 0.724862 0.360292
C32   C     C_R   0.482644 0.493203 0.748765 0.187866
O10   O     O_2   0.269616 0.510421 0.806854 -0.516989
C33   C     C_R   0.390655 0.351497 0.027177 -0.095077
C34   C     C_R   0.506297 0.368526 0.049878 0.053222
C35   C     C_R   0.619191 0.384762 0.021522 0.084886
C36   C     C_R   0.285004 0.303734 0.055415 0.264037
H2    H     H_    0.445881 0.282981 0.652194 0.171100
H3    H     H_    0.438606 0.278643 0.740680 0.175362
H4    H     H_    0.181742 0.485333 0.891855 0.216014
H5    H     H_    0.187537 0.439064 0.977263 0.203717
O11   O     O_2   0.725223 0.472497 0.195579 -0.524203
C37   C     C_R   0.729823 0.437675 0.095101 -0.101428
H6    H     H_    0.610516 0.298606 0.355810 0.199137
H7    H     H_    0.816227 0.469337 0.111490 0.203887
C38   C     C_R   0.724855 0.356578 0.939537 0.248092
C39   C     C_R   0.719275 0.384948 0.889880 -0.154505
O12   O     O_2   0.705687 0.449123 0.791197 -0.515977
C40   C     C_R   0.729293 0.423199 0.044968 -0.100926
H8    H     H_    0.535321 0.714504 0.654660 0.204051
H9    H     H_    0.803129 0.373568 0.866886 0.230875
H10   H     H_    0.814421 0.450841 0.024832 0.189761
C41   C     C_3   0.066894 0.427844 0.546707 -0.063734
C42   C     C_3   0.075192 0.421019 0.454157 -0.050872
H11   H     H_    0.097900 0.319154 0.545777 0.179847
H12   H     H_    0.105577 0.312365 0.456911 0.180904
C43   C     C_3   0.922583 0.427582 0.545775 -0.415925
C44   C     C_3   0.930748 0.421943 0.455061 -0.424462
H13   H     H_    0.889367 0.319134 0.544675 0.181804
H14   H     H_    0.896701 0.313872 0.457432 0.183545
H15   H     H_    0.879800 0.468809 0.580026 0.241383
H16   H     H_    0.894632 0.459509 0.420325 0.241360
H17   H     H_    0.111745 0.707036 0.530240 0.196630
H18   H     H_    0.118140 0.704256 0.466363 0.195456
C45   C     C_3   0.075298 0.650780 0.498591 -0.443435
C46   C     C_3   0.121589 0.500389 0.499787 0.051727
C47   C     C_3   0.878840 0.505058 0.499922 -0.080941
C48   C     C_3   0.931824 0.659555 0.498932 0.528952
C49   C     C_3   0.420793 0.079952 0.460365 -0.226276
C50   C     C_3   0.418916 0.918458 0.461051 -0.246767
H19   H     H_    0.457093 0.115335 0.424072 0.166225
H20   H     H_    0.452075 0.880951 0.424938 0.164068
H21   H     H_    0.323884 0.119850 0.463822 0.167031
H22   H     H_    0.321288 0.879817 0.465890 0.172217
H23   H     H_    0.667595 0.121491 0.454580 0.189521
H24   H     H_    0.664355 0.883469 0.453104 0.229307
C51   C     C_3   0.627573 0.082049 0.489785 -0.308554
C52   C     C_3   0.627087 0.920273 0.489039 -0.251714
C53   C     C_3   0.452807 0.082215 0.547098 0.142630
C54   C     C_3   0.454487 0.918569 0.547347 0.123794
N3    N     N_3   0.499750 0.138610 0.498940 -0.063458
N4    N     N_3   0.499750 0.861390 0.498940 -0.075577
H25   H     H_    0.518893 0.116689 0.575191 0.133046
H26   H     H_    0.522810 0.887702 0.574916 0.145842
H27   H     H_    0.691179 0.119180 0.518252 0.179205
H28   H     H_    0.691833 0.882820 0.516555 0.224411
C55   C     C_3   0.398549 0.717230 0.339711 -0.823268
H29   H     H_    0.348456 0.771310 0.310816 0.248495
H30   H     H_    0.329518 0.695673 0.369911 0.231218
H31   H     H_    0.473865 0.786360 0.351991 0.254257
N5    N     N_R   0.621115 0.218953 0.264058 0.224435
O13   O     O_R   0.707242 0.157148 0.287903 -0.356260
O14   O     O_R   0.576947 0.158788 0.225937 -0.375254
N6    N     N_R   0.836540 0.294131 0.956715 0.215642
O15   O     O_R   0.945710 0.325379 0.937047 -0.358695
O16   O     O_R   0.827837 0.192198 0.987069 -0.299251
N7    N     N_R   0.535115 0.743220 0.751348 0.223908
O17   O     O_R   0.584015 0.849067 0.728892 -0.362893
O18   O     O_R   0.504023 0.755063 0.797341 -0.352263
C56   C     C_3   0.112529 0.488567 0.594955 -0.846132
H32   H     H_    0.216364 0.490414 0.595526 0.214401
H33   H     H_    0.076908 0.593824 0.601277 0.282402
H34   H     H_    0.077932 0.423687 0.625779 0.267565
C57   C     C_3   0.129950 0.473970 0.404974 -0.836627
H35   H     H_    0.098811 0.406076 0.375164 0.268470
H36   H     H_    0.098033 0.579316 0.397299 0.273050
H37   H     H_    0.233782 0.472378 0.404157 0.222169
N8    N     N_R   0.890731 0.741279 0.542381 0.177012
O19   O     O_R   0.811617 0.694812 0.575565 -0.430684
O20   O     O_R   0.932721 0.865982 0.547486 -0.394257
N9    N     N_R   0.897093 0.736530 0.454870 0.178268
O21   O     O_R   0.938483 0.861285 0.448481 -0.387446
O22   O     O_R   0.824757 0.685385 0.422204 -0.433818
C58   C     C_3   0.324324 0.142990 0.564626 -0.825159
H38   H     H_    0.298867 0.108192 0.601993 0.217073
H39   H     H_    0.324824 0.253923 0.568995 0.275258
H40   H     H_    0.247558 0.115677 0.540269 0.233703
C59   C     C_3   0.327950 0.855445 0.566438 -0.801775
H41   H     H_    0.307996 0.887925 0.604573 0.221323
H42   H     H_    0.248964 0.885282 0.543881 0.240649
H43   H     H_    0.326678 0.744325 0.569388 0.275227
C60   C     C_3   0.185711 0.227933 0.136147 -0.605865
H44   H     H_    0.131971 0.154066 0.114232 0.251276
H45   H     H_    0.225436 0.164675 0.165232 0.247969
H46   H     H_    0.119893 0.304721 0.152145 0.269202
N10   N     N_R   0.177776 0.247136 0.032066 0.199279
O23   O     O_R   0.192335 0.153327 0.998632 -0.312122
O24   O     O_R   0.065740 0.291636 0.043300 -0.362482

loop_
_geom_bond_atom_site_label_1
_geom_bond_atom_site_label_2
_geom_bond_distance
_ccdc_geom_bond_type
C42   C46   1.565810 S    
C49   H21   1.108958 S    
C53   C54   1.597596 S    
C10   H1    1.083838 S    
C7    C8    1.392360 A    
C12   C15   1.411272 A    
C44   H16   1.107604 S    
C58   H38   1.107304 S    
C56   H32   1.109173 S    
C31   C32   1.415085 A    
C30   H8    1.083039 S    
N2    C32   1.425290 S    
Zn1   N4    2.015259 S    
N5    O14   1.301163 A    
N1    C11   1.428121 S    
C23   C24   1.408808 A    
C41   C56   1.544463 S    
N10   O24   1.301896 A    
C60   H46   1.110129 S    
C28   H3    1.083331 S    
C50   N4    1.488949 S    
O4    C2    1.292092 A    
O7    C4    1.296498 A    
C29   H2    1.082638 S    
C5    C13   1.413863 A    
C54   H26   1.114628 S    
C5    O9    1.348485 S    
C3    C47   1.457250 S    
C52   N4    1.488239 S    
N6    O15   1.301585 A    
C5    N1    1.366577 A    
C21   C22   1.389054 A    
C28   C32   1.396643 A    
O5    C3    1.280705 A    
C57   H35   1.110825 S    
C42   C57   1.543255 S    
H24   C52   1.111336 S    
C33   C36   1.422630 A    
C2    C16   1.471531 S    
N7    O17   1.301698 A    
C59   H41   1.108228 S    
C18   C20   1.417702 A    
H23   C51   1.112838 S    
C44   C47   1.561219 S    
C38   N6    1.438761 S    
C6    O11   1.350320 S    
C25   C39   1.398616 A    
C9    C55   1.502436 S    
C36   N10   1.438226 S    
C40   H10   1.079980 S    
C21   H5    1.078714 S    
C53   N3    1.503738 S    
C9    C10   1.399135 A    
C22   H4    1.083400 S    
C35   C40   1.408583 A    
C17   C30   1.403559 A    
C23   C27   1.398975 A    
Zn2   N3    2.014984 S    
C4    C17   1.460940 S    
O3    Zn1   1.994215 S    
C1    C46   1.456847 S    
C37   C40   1.385527 A    
C57   H36   1.109091 S    
H17   C45   1.108159 S    
C41   C46   1.566269 S    
C55   H29   1.110867 S    
C14   C60   1.517905 S    
C12   C13   1.413700 A    
C42   C44   1.541395 S    
O3    C2    1.302800 A    
C15   C37   1.398312 A    
C26   N2    1.366265 A    
C43   H13   1.114421 S    
H18   C45   1.112461 S    
C8    C16   1.407592 A    
C13   C14   1.422200 A    
C47   C48   1.606513 S    
C38   C39   1.397788 A    
O1    C1    1.283240 A    
C57   H37   1.108098 S    
C7    C11   1.406090 A    
C48   N9    1.487757 S    
C24   C25   1.406374 A    
C45   C48   1.534386 S    
Zn1   O7    1.997135 S    
C49   C50   1.576447 S    
Zn2   O8    1.994408 S    
C49   N3    1.488672 S    
N1    C6    1.362886 A    
C27   O10   1.349720 S    
C18   C21   1.410882 A    
N7    O18   1.300917 A    
N10   O23   1.301375 A    
C54   N4    1.506413 S    
C19   C35   1.414924 A    
C59   H42   1.106056 S    
C7    N5    1.441700 S    
C44   H14   1.114452 S    
N2    C27   1.365805 A    
C49   H19   1.112709 S    
C9    C16   1.413526 A    
O8    C4    1.295140 A    
C55   H31   1.106970 S    
C18   C33   1.418170 A    
N9    O21   1.302544 A    
C17   C29   1.399443 A    
C28   C29   1.382430 A    
C19   C38   1.424002 A    
N8    O20   1.302735 A    
C58   H40   1.107335 S    
C53   H25   1.114216 S    
C51   C52   1.579081 S    
C30   C31   1.403458 A    
C52   H28   1.107945 S    
C60   H45   1.110348 S    
C20   C24   1.410544 A    
C55   H30   1.109872 S    
C12   C34   1.409518 A    
Zn1   O5    2.015787 S    
C26   O12   1.350020 S    
C33   C34   1.411749 A    
O1    Zn1   2.010803 S    
Zn2   O6    2.010070 S    
O2    Zn2   2.016521 S    
C6    C15   1.394148 A    
C50   H22   1.109286 S    
C50   H20   1.104323 S    
C60   H44   1.107951 S    
O6    C3    1.291086 A    
C58   H39   1.088995 S    
O4    Zn2   1.996947 S    
C56   H33   1.109170 S    
C31   N7    1.443637 S    
N5    O13   1.301583 A    
C51   H27   1.112505 S    
C19   C20   1.415278 A    
O2    C1    1.287017 A    
C53   C58   1.558283 S    
C14   C36   1.415884 A    
C43   H15   1.107577 S    
C25   C26   1.399018 A    
C59   H43   1.087889 S    
N6    O16   1.301664 A    
C41   C43   1.541702 S    
C54   C59   1.555149 S    
C56   H34   1.110725 S    
C37   H7    1.083515 S    
C51   N3    1.488616 S    
C45   C46   1.553305 S    
C39   H9    1.083380 S    
C42   H12   1.115048 S    
C34   C35   1.419828 A    
N9    O22   1.301263 A    
C10   C11   1.399289 A    
C22   C23   1.397986 A    
C41   H11   1.113688 S    
N8    O19   1.301285 A    
C8    H6    1.083848 S    
C48   N8    1.488942 S    
C43   C47   1.560339 S    
