data_mof_unit_25926.cif
_audit_creation_date              2012-12-10T18:52:18-0500
_audit_creation_method            fapswitch 2.2
_symmetry_space_group_name_H-M    P1
_symmetry_Int_Tables_number       1
_space_group_crystal_system       triclinic
_cell_length_a                    15.709125
_cell_length_b                    10.640299
_cell_length_c                    9.959508
_cell_angle_alpha                 91.507528
_cell_angle_beta                  90.042718
_cell_angle_gamma                 91.760166
_cell_volume                      1663.36620932

loop_
_atom_site_label
_atom_site_type_symbol
_atom_type_description
_atom_site_fract_x
_atom_site_fract_y
_atom_site_fract_z
_atom_type_partial_charge
C1    C     C_R   0.501314 0.260596 0.498792 0.893029
C2    C     C_R   0.448044 0.416946 0.068073 0.040233
C3    C     C_R   0.338323 0.502196 0.499912 0.876830
C4    C     C_R   0.661831 0.499998 0.500130 0.865709
C5    C     C_3   0.972893 0.417361 0.566223 0.433607
C6    C     C_3   0.028660 0.619591 0.434696 0.352374
C7    C     C_3   0.027194 0.411708 0.437910 -0.024928
C8    C     C_3   0.973206 0.624558 0.563306 -0.056073
C9    C     C_1   0.249891 0.510253 0.499686 -0.173557
C10   C     C_1   0.750781 0.503713 0.500644 -0.208399
C11   C     C_3   0.029357 0.525072 0.627146 0.365125
C12   C     C_R   0.498480 0.739488 0.501052 0.942317
C13   C     C_3   0.972291 0.511560 0.373941 0.380252
C14   C     C_3   0.084215 0.519650 0.498989 -0.141773
C15   C     C_3   0.917111 0.515570 0.501653 -0.089616
C16   C     C_1   0.174942 0.516735 0.499182 0.082981
C17   C     C_1   0.826109 0.508716 0.501160 0.102496
C18   C     C_R   0.453327 0.061620 0.402457 -0.381243
C19   C     C_R   0.547921 0.938886 0.595091 -0.385955
C20   C     C_3   0.059464 0.293061 0.368324 -0.851941
C21   C     C_3   0.935190 0.739345 0.632392 -0.937707
C22   C     C_3   0.998650 0.241995 0.693609 0.165649
C23   C     C_R   0.450624 0.931903 0.402504 0.493474
C24   C     C_3   0.983475 0.103613 0.655778 -0.907759
C25   C     C_3   0.007547 0.807162 0.328468 0.124686
C26   C     C_3   0.043062 0.885604 0.214698 -0.862930
C27   C     C_3   0.997003 0.512679 0.144130 0.151539
C28   C     C_3   0.983124 0.403764 0.043986 -0.840675
C29   C     C_3   0.096316 0.644244 0.797422 0.134983
C30   C     C_3   0.170565 0.632265 0.893703 -0.890007
C31   C     C_3   0.420177 0.875253 0.183711 0.140845
C32   C     C_3   0.367004 0.783439 0.096296 -0.794608
C33   C     C_3   0.680757 0.151677 0.656169 0.096667
C34   C     C_R   0.551418 0.067916 0.593767 0.511102
C35   C     C_3   0.727747 0.227225 0.766423 -0.771352
C36   C     C_3   0.691682 0.620118 0.131611 0.136075
C37   C     C_3   0.752047 0.710610 0.208026 -0.827912
C38   C     C_3   0.327112 0.322217 0.833063 0.140433
C39   C     C_3   0.297472 0.238327 0.714604 -0.775726
C40   C     C_3   0.584825 0.702421 0.866296 -0.798196
C41   C     C_3   0.385000 0.329809 0.135014 -0.806680
C42   C     C_R   0.497498 0.872133 0.501198 -0.177416
C43   C     C_R   0.503302 0.128169 0.497173 -0.180511
C44   C     C_R   0.552827 0.580411 0.075351 0.466597
C45   C     C_R   0.451175 0.413029 0.923908 0.491443
C46   C     C_R   0.546567 0.588767 0.932376 0.013999
H1    H     H_    0.413661 0.110390 0.333074 0.167940
H2    H     H_    0.065561 0.269512 0.667649 0.141079
H3    H     H_    0.988545 0.089009 0.545375 0.261098
H4    H     H_    0.031777 0.046517 0.705448 0.211793
H5    H     H_    0.919028 0.071527 0.688662 0.259854
H6    H     H_    0.995434 0.871599 0.415318 0.161889
H7    H     H_    0.946350 0.761784 0.293990 0.144682
H8    H     H_    0.056251 0.824139 0.125735 0.245079
H9    H     H_    0.996165 0.956282 0.186257 0.206323
H10   H     H_    0.103068 0.935447 0.247136 0.271149
H11   H     H_    0.064035 0.511679 0.181080 0.147808
H12   H     H_    0.585542 0.891393 0.668037 0.175911
H13   H     H_    0.989683 0.602139 0.090970 0.158672
H14   H     H_    0.923334 0.415569 0.986669 0.263884
H15   H     H_    0.037566 0.400589 0.973500 0.241941
H16   H     H_    0.978900 0.313297 0.096912 0.250862
H17   H     H_    0.045401 0.695681 0.850787 0.153059
H18   H     H_    0.119927 0.701038 0.711709 0.158690
H19   H     H_    0.225627 0.593305 0.839039 0.250791
H20   H     H_    0.189527 0.726564 0.935957 0.217610
H21   H     H_    0.152661 0.569966 0.977319 0.253643
H22   H     H_    0.488560 0.852854 0.170299 0.178340
H23   H     H_    0.004586 0.231477 0.335867 0.254918
H24   H     H_    0.409539 0.971823 0.148378 0.127822
H25   H     H_    0.298727 0.806766 0.103542 0.253004
H26   H     H_    0.387607 0.789261 0.989938 0.199004
H27   H     H_    0.374779 0.685870 0.130114 0.265709
H28   H     H_    0.685969 0.204709 0.561329 0.128227
H29   H     H_    0.711883 0.059489 0.642725 0.128451
H30   H     H_    0.723521 0.176712 0.862482 0.242364
H31   H     H_    0.795698 0.240186 0.739139 0.251850
H32   H     H_    0.699373 0.321020 0.780168 0.264326
H33   H     H_    0.711552 0.618476 0.024410 0.125458
H34   H     H_    0.098328 0.318113 0.279557 0.233227
H35   H     H_    0.699047 0.523882 0.170135 0.172902
H36   H     H_    0.735396 0.714045 0.316328 0.253124
H37   H     H_    0.818216 0.678831 0.196387 0.234472
H38   H     H_    0.747959 0.806472 0.167463 0.239212
H39   H     H_    0.308985 0.420468 0.815985 0.141015
H40   H     H_    0.291411 0.287220 0.920698 0.125455
H41   H     H_    0.309183 0.138348 0.735822 0.246886
H42   H     H_    0.228220 0.249124 0.697775 0.187383
H43   H     H_    0.331960 0.263299 0.621700 0.248046
H44   H     H_    0.532120 0.761382 0.834164 0.248847
H45   H     H_    0.100070 0.241495 0.437879 0.233408
H46   H     H_    0.623637 0.764210 0.935268 0.230477
H47   H     H_    0.626063 0.674940 0.781244 0.256588
H48   H     H_    0.391680 0.326010 0.242948 0.285356
H49   H     H_    0.319823 0.363791 0.119523 0.193224
H50   H     H_    0.390715 0.232049 0.094929 0.228405
H51   H     H_    0.986065 0.810901 0.656450 0.238604
H52   H     H_    0.887730 0.780749 0.565293 0.238493
H53   H     H_    0.902833 0.710879 0.726325 0.255608
H54   H     H_    0.992080 0.252900 0.803968 0.165506
N1    N     N_R   0.499980 0.499970 0.857200 -0.145602
N2    N     N_R   0.500020 0.500030 0.142800 -0.150032
O1    O     O_R   0.499990 0.316750 0.614620 -0.509112
O2    O     O_3   0.068134 0.718924 0.364210 -0.597003
O3    O     O_3   0.934379 0.504499 0.245478 -0.623865
O4    O     O_3   0.064316 0.523304 0.757794 -0.630795
O5    O     O_3   0.394679 0.863342 0.318956 -0.599085
O6    O     O_3   0.594949 0.134571 0.694655 -0.573945
O7    O     O_3   0.607215 0.660380 0.148707 -0.594516
O8    O     O_3   0.415892 0.310826 0.851325 -0.559981
O9    O     O_R   0.500010 0.683250 0.385380 -0.546786
O10   O     O_R   0.500000 0.316780 0.385290 -0.650415
O11   O     O_R   0.500000 0.683220 0.614710 -0.640369
O12   O     O_R   0.376780 0.499970 0.614640 -0.622113
O13   O     O_R   0.623220 0.500030 0.385360 -0.594366
O14   O     O_R   0.376780 0.500000 0.385310 -0.613940
O15   O     O_R   0.623220 0.500000 0.614690 -0.622351
O16   O     O_3   0.935831 0.313565 0.632167 -0.620592
Zn1   Zn    Zn3+2 0.500000 0.499980 0.653120 0.978732
Zn2   Zn    Zn3+2 0.500000 0.500020 0.346880 0.979183

loop_
_geom_bond_atom_site_label_1
_geom_bond_atom_site_label_2
_ccdc_geom_bond_type
C22   H2    S    
C29   H17   S    
C4    O13   A    
C39   H41   S    
C40   H47   S    
C18   H1    S    
C32   H26   S    
C40   C46   S    
C23   C42   A    
C38   H40   S    
C36   C37   S    
C9    C16   T    
C25   H7    S    
C5    C11   S    
C3    O14   A    
O15   Zn1   S    
C1    O10   A    
C38   C39   S    
C21   H53   S    
C11   C14   S    
C41   H50   S    
C2    N2    A    
C10   C17   T    
C15   C17   S    
C12   C42   S    
O11   Zn1   S    
C33   H29   S    
C7    C14   S    
C41   H48   S    
C44   C46   A    
C37   H38   S    
C6    O2    S    
C38   O8    S    
C1    O1    A    
O12   Zn1   S    
C19   C42   A    
C44   O7    S    
C24   H5    S    
C29   H18   S    
C2    C45   A    
C26   H9    S    
C19   C34   A    
C33   O6    S    
C39   H42   S    
C26   H8    S    
C20   H45   S    
C1    C43   S    
C32   H25   S    
C28   H14   S    
C19   H12   S    
C24   H4    S    
C31   H22   S    
C46   N1    A    
C35   H30   S    
C22   H54   S    
C20   H34   S    
C38   H39   S    
C18   C23   A    
N1    Zn1   S    
C13   O3    S    
C27   H11   S    
C32   H27   S    
O10   Zn2   S    
C44   N2    A    
C45   O8    S    
C6    C8    S    
C25   C26   S    
C35   H31   S    
O14   Zn2   S    
O9    Zn2   S    
C29   C30   S    
C3    C9    S    
C6    C14   S    
C21   H51   S    
C31   C32   S    
C36   H35   S    
C23   O5    S    
C11   O4    S    
C8    C21   S    
C40   H46   S    
C30   H20   S    
C45   N1    A    
C36   H33   S    
C7    C20   S    
C8    C15   S    
C13   C15   S    
C22   C24   S    
C4    O15   A    
C4    C10   S    
C27   C28   S    
N2    Zn2   S    
C5    C7    S    
C12   O11   A    
C24   H3    S    
C22   O16   S    
C31   O5    S    
O1    Zn1   S    
C34   C43   A    
C30   H21   S    
C3    O12   A    
C26   H10   S    
C25   O2    S    
C35   H32   S    
C5    O16   S    
C34   O6    S    
C31   H24   S    
C25   H6    S    
C27   H13   S    
C18   C43   A    
C28   H15   S    
C6    C13   S    
C21   H52   S    
C41   H49   S    
C8    C11   S    
C33   C35   S    
C14   C16   S    
C29   O4    S    
C5    C15   S    
C30   H19   S    
C33   H28   S    
C7    C13   S    
C37   H36   S    
O13   Zn2   S    
C36   O7    S    
C27   O3    S    
C20   H23   S    
C37   H37   S    
C2    C41   S    
C40   H44   S    
C39   H43   S    
C12   O9    A    
C28   H16   S    
