data_mof_unit_30569.cif
_audit_creation_date              2012-12-10T17:10:25-0500
_audit_creation_method            fapswitch 2.2
_symmetry_space_group_name_H-M    P1
_symmetry_Int_Tables_number       1
_space_group_crystal_system       triclinic
_cell_length_a                    10.862326
_cell_length_b                    12.990643
_cell_length_c                    11.650072
_cell_angle_alpha                 100.028335
_cell_angle_beta                  93.818764
_cell_angle_gamma                 89.60453
_cell_volume                      1615.19638155

loop_
_atom_site_label
_atom_site_type_symbol
_atom_type_description
_atom_site_fract_x
_atom_site_fract_y
_atom_site_fract_z
_atom_type_partial_charge
C1    C     C_R   0.493810 0.299168 0.478740 0.834992
C2    C     C_R   0.501055 0.701041 0.521471 0.813519
C3    C     C_R   0.500636 0.814561 0.534028 -0.049677
C4    C     C_R   0.483525 0.186124 0.467303 -0.056901
C5    C     C_R   0.444795 0.015990 0.348156 -0.215370
C6    C     C_R   0.531713 0.985146 0.654304 -0.218814
C7    C     C_R   0.449725 0.124178 0.358739 -0.221721
C8    C     C_R   0.529670 0.876963 0.643372 -0.197228
C9    C     C_R   0.509378 0.139576 0.565841 -0.282873
C10   C     C_R   0.471495 0.861027 0.435875 -0.270893
C11   C     C_R   0.504364 0.031643 0.556074 0.174913
C12   C     C_R   0.473005 0.969232 0.446157 0.178273
C13   C     C_R   0.441677 0.371927 0.020258 -0.367527
C14   C     C_R   0.558489 0.628252 0.979768 -0.350277
C15   C     C_R   0.437949 0.388376 0.142353 0.052296
C16   C     C_R   0.559057 0.612626 0.857413 0.086587
C17   C     C_R   0.517250 0.559902 0.157844 0.022742
C18   C     C_R   0.489580 0.438409 0.842813 0.002127
C19   C     C_R   0.519680 0.547628 0.034884 0.067502
C20   C     C_R   0.483700 0.451668 0.965502 0.065937
C21   C     C_R   0.263782 0.483443 0.498142 0.830910
C22   C     C_R   0.738801 0.495598 0.499439 0.846245
C23   C     C_R   0.131705 0.445097 0.707685 0.289446
C24   C     C_R   0.856116 0.364742 0.299008 0.245370
C25   C     C_R   0.087788 0.493505 0.814060 -0.268274
C26   C     C_R   0.905776 0.340752 0.189817 -0.235945
C27   C     C_R   0.981464 0.554349 0.815382 0.263868
C28   C     C_R   0.030955 0.355486 0.179517 0.267041
C29   C     C_R   0.912491 0.558261 0.710440 -0.168243
C30   C     C_R   0.106635 0.390592 0.280164 -0.236199
C31   C     C_R   0.951155 0.502899 0.603005 -0.041603
C32   C     C_R   0.056581 0.426866 0.389391 -0.003867
C33   C     C_R   0.073010 0.466892 0.601853 0.044272
C34   C     C_R   0.926690 0.424410 0.395017 0.046999
C35   C     C_R   0.873643 0.477578 0.498236 -0.170935
C36   C     C_R   0.130889 0.456484 0.495402 -0.177905
Cu1   Cu    Cu3+1 0.509250 0.507730 0.615930 0.950942
Cu2   Cu    Cu3+1 0.490750 0.492270 0.384070 0.936539
H1    H     H_    0.411756 0.297422 0.969247 0.136112
H2    H     H_    0.587662 0.703007 0.030638 0.140366
H3    H     H_    0.134265 0.481834 0.895992 0.143809
H4    H     H_    0.849210 0.301710 0.115011 0.142390
H5    H     H_    0.831110 0.606489 0.715384 0.171212
H6    H     H_    0.203724 0.381162 0.270077 0.169222
H7    H     H_    0.447912 0.813186 0.351379 0.146733
H8    H     H_    0.535207 0.187059 0.650030 0.148212
H9    H     H_    0.552206 0.842246 0.720123 0.145434
H10   H     H_    0.428560 0.159194 0.281962 0.145715
H11   H     H_    0.420025 0.969000 0.263519 0.133197
H12   H     H_    0.555504 0.032285 0.739086 0.131229
H13   H     H_    0.465500 0.363740 0.789768 0.132188
H14   H     H_    0.549956 0.632138 0.211565 0.119347
H15   H     H_    0.588656 0.676091 0.816957 0.126372
H16   H     H_    0.405783 0.325684 0.182687 0.118837
N1    N     N_R   0.523180 0.519350 0.790130 -0.177458
N2    N     N_R   0.476820 0.480650 0.209870 -0.176548
O1    O     O_R   0.506570 0.354460 0.582000 -0.587292
O2    O     O_R   0.493430 0.645540 0.418000 -0.594265
O3    O     O_R   0.490940 0.341410 0.386200 -0.601467
O4    O     O_R   0.509060 0.658590 0.613800 -0.602856
O5    O     O_R   0.327470 0.506520 0.597900 -0.545585
O6    O     O_R   0.672530 0.493480 0.402100 -0.557938
O7    O     O_R   0.311840 0.493460 0.402100 -0.596995
O8    O     O_R   0.688160 0.506540 0.597900 -0.593807
N3    N     N_2   0.082774 0.327859 0.069280 -0.438578
H17   H     H_    0.165385 0.364782 0.063678 0.247892
C37   C     C_3   0.086876 0.216914 0.024576 -0.712319
H18   H     H_    0.146522 0.177086 0.084500 0.220053
H19   H     H_    0.992765 0.182315 0.014321 0.236083
H20   H     H_    0.125756 0.203937 0.937436 0.227081
N4    N     N_2   0.937886 0.604707 0.923064 -0.439206
H21   H     H_    0.007706 0.637528 0.982229 0.251740
C38   C     C_3   0.857541 0.539615 0.974435 -0.667429
H22   H     H_    0.819636 0.586161 0.053283 0.226687
H23   H     H_    0.909742 0.472660 0.000463 0.242774
H24   H     H_    0.779807 0.509087 0.911246 0.247631
N5    N     N_2   0.224756 0.366905 0.708669 -0.406523
H25   H     H_    0.257558 0.358957 0.791703 0.235065
C39   C     C_3   0.195294 0.265771 0.638024 -0.699978
H26   H     H_    0.270003 0.209702 0.652252 0.223920
H27   H     H_    0.188059 0.270398 0.543733 0.228693
H28   H     H_    0.107451 0.235297 0.663144 0.225035
N6    N     N_2   0.751074 0.306557 0.317725 -0.393481
H29   H     H_    0.692097 0.285705 0.244230 0.254787
C40   C     C_3   0.783336 0.218318 0.374367 -0.701705
H30   H     H_    0.701262 0.168873 0.375373 0.233144
H31   H     H_    0.819727 0.245924 0.465883 0.233589
H32   H     H_    0.853567 0.168833 0.325992 0.222615

loop_
_geom_bond_atom_site_label_1
_geom_bond_atom_site_label_2
_ccdc_geom_bond_type
C27   C29   A    
C38   H22   S    
C19   C20   A    
C5    H11   S    
C21   C36   S    
N5    H25   S    
C22   C35   S    
C32   C36   A    
C24   N6    S    
C24   C26   A    
C1    O3    A    
C2    O4    A    
C33   C36   A    
C34   C35   A    
C16   H15   S    
Cu2   O2    S    
N3    C37   S    
C31   C33   A    
C21   O5    A    
N5    C39   S    
C9    H8    S    
C29   H5    S    
C38   H23   S    
C30   H6    S    
C4    C7    A    
C17   H14   S    
C18   H13   S    
C40   H31   S    
C21   O7    A    
C37   H18   S    
C15   H16   S    
C5    C12   A    
C3    C8    A    
C25   H3    S    
C6    C11   A    
N4    C38   S    
C6    C8    A    
C23   C33   A    
C40   H30   S    
C22   O8    A    
C6    H12   S    
C39   H26   S    
C37   H19   S    
C32   C34   A    
Cu1   Cu2   S    
C1    O1    A    
C22   O6    A    
N6    H29   S    
C10   H7    S    
C23   N5    S    
C9    C11   A    
C17   N2    A    
C10   C12   A    
C18   N1    A    
N6    C40   S    
C16   N1    A    
C13   C15   A    
C38   H24   S    
C14   C16   A    
Cu1   O8    S    
C27   N4    S    
C26   H4    S    
C5    C7    A    
Cu2   O7    S    
C40   H32   S    
C13   C20   A    
C14   C19   A    
C39   H28   S    
Cu1   O5    S    
C11   C12   A    
C2    O2    A    
C25   C27   A    
C26   C28   A    
C1    C4    S    
C15   N2    A    
C37   H20   S    
C28   C30   A    
C2    C3    S    
C8    H9    S    
N4    H21   S    
C29   C31   A    
C3    C10   A    
C7    H10   S    
C30   C32   A    
C31   C35   A    
C17   C19   A    
C28   N3    S    
C18   C20   A    
C23   C25   A    
C39   H27   S    
C24   C34   A    
C13   H1    S    
Cu1   O4    S    
C14   H2    S    
Cu2   O3    S    
Cu1   N1    S    
Cu2   N2    S    
N3    H17   S    
C4    C9    A    
Cu1   O1    S    
Cu2   O6    S    
