data_mof_unit_65536.cif
_audit_creation_date              2012-12-10T19:17:13-0500
_audit_creation_method            fapswitch 2.2
_symmetry_space_group_name_H-M    P1
_symmetry_Int_Tables_number       1
_space_group_crystal_system       triclinic
_cell_length_a                    22.324521
_cell_length_b                    22.248574
_cell_length_c                    14.980654
_cell_angle_alpha                 89.963241
_cell_angle_beta                  90.008072
_cell_angle_gamma                 89.995386
_cell_volume                      7440.7207922

loop_
_atom_site_label
_atom_site_type_symbol
_atom_type_description
_atom_site_fract_x
_atom_site_fract_y
_atom_site_fract_z
_atom_type_partial_charge
C1    C     C_R   0.081148 0.419116 0.500004 0.904499
C2    C     C_1   0.840706 0.666680 0.498821 0.224675
C3    C     C_1   0.340943 0.833096 0.500423 0.225280
C4    C     C_1   0.340847 0.166837 0.498848 0.223278
C5    C     C_1   0.876547 0.372648 0.500120 -0.057377
C6    C     C_1   0.876473 0.627287 0.499685 -0.058151
C7    C     C_1   0.376599 0.872591 0.500132 -0.056836
C8    C     C_1   0.376547 0.127376 0.499692 -0.057581
C9    C     C_3   0.032638 0.443590 0.052311 0.441219
C10   C     C_3   0.032667 0.443609 0.947825 0.444117
C11   C     C_3   0.031470 0.557060 0.052193 0.443364
C12   C     C_R   0.081158 0.580871 0.499995 0.900552
C13   C     C_3   0.031442 0.557077 0.947708 0.444780
C14   C     C_3   0.531175 0.942763 0.052311 0.445554
C15   C     C_3   0.531200 0.942779 0.947825 0.441188
C16   C     C_3   0.532927 0.056224 0.052194 0.441787
C17   C     C_3   0.532902 0.056241 0.947709 0.445281
C18   C     C_3   0.999777 0.499993 0.089848 -0.552425
C19   C     C_3   0.999777 0.499995 0.910156 -0.550759
C20   C     C_3   0.499776 0.999998 0.089847 -0.554597
C21   C     C_3   0.499776 1.000000 0.910156 -0.550171
C22   C     C_3   0.934473 0.499293 0.947461 0.878351
C23   C     C_R   0.581137 0.919106 0.500005 0.900882
C24   C     C_3   0.934473 0.499319 0.052517 0.884127
C25   C     C_3   0.434476 0.000994 0.947459 0.878932
C26   C     C_3   0.434476 0.001017 0.052516 0.883189
C27   C     C_1   0.999839 0.499997 0.809297 0.458892
C28   C     C_1   0.999839 0.499997 0.190704 0.460444
C29   C     C_1   0.499839 0.999999 0.809298 0.459074
C30   C     C_1   0.499839 0.999999 0.190703 0.464799
C31   C     C_R   0.919078 0.418860 0.500020 0.880286
C32   C     C_R   0.919073 0.581136 0.499960 0.880050
C33   C     C_R   0.419085 0.918850 0.500021 0.878114
C34   C     C_R   0.581140 0.080889 0.499994 0.899978
C35   C     C_R   0.419079 0.081149 0.499960 0.879070
C36   C     C_3   0.800405 0.249967 0.590500 1.028089
C37   C     C_3   0.808648 0.241985 0.421316 1.050483
C38   C     C_3   0.822703 0.772043 0.542247 1.019966
C39   C     C_3   0.778513 0.728174 0.399117 1.059318
C40   C     C_3   0.299842 0.750527 0.591233 1.028296
C41   C     C_3   0.309363 0.741271 0.422341 1.050493
C42   C     C_3   0.322254 0.271635 0.544860 1.016663
C43   C     C_3   0.280089 0.229736 0.399059 1.073381
C44   C     C_3   0.262322 0.689365 0.424739 0.117573
C45   C     C_1   0.168015 0.657550 0.500856 0.181594
C46   C     C_3   0.245558 0.706688 0.596743 0.102733
C47   C     C_3   0.234292 0.282920 0.398256 0.055905
C48   C     C_3   0.270915 0.318121 0.556890 0.162063
C49   C     C_3   0.761615 0.190077 0.423640 0.122231
C50   C     C_3   0.746151 0.206108 0.596193 0.103965
C51   C     C_3   0.732484 0.781142 0.398186 0.104002
C52   C     C_3   0.771583 0.818778 0.554238 0.159695
C53   C     C_1   0.127846 0.622724 0.500125 -0.070099
C54   C     C_1   0.127989 0.377430 0.499765 -0.082729
C55   C     C_1   0.627769 0.122807 0.500113 -0.069483
C56   C     C_1   0.168341 0.342802 0.498546 0.161068
C57   C     C_1   0.627875 0.877308 0.499777 -0.040445
C58   C     C_3   0.797065 0.285543 0.500791 -0.233790
C59   C     C_3   0.796841 0.714249 0.497301 -0.237405
C60   C     C_3   0.297173 0.785425 0.500889 -0.233056
C61   C     C_3   0.297036 0.214468 0.497359 -0.235967
C62   C     C_3   0.215951 0.700846 0.501913 -0.203585
C63   C     C_3   0.216300 0.299542 0.496693 -0.200207
C64   C     C_3   0.715832 0.200977 0.501773 -0.203941
C65   C     C_3   0.716046 0.799259 0.496627 -0.215332
C66   C     C_3   0.186738 0.763024 0.481628 -0.546500
C67   C     C_1   0.667900 0.157678 0.500790 0.182748
C68   C     C_3   0.190477 0.240937 0.539105 -0.541273
C69   C     C_3   0.686481 0.263306 0.483010 -0.547697
C70   C     C_3   0.690939 0.741325 0.541911 -0.555372
C71   C     C_3   0.733815 0.313505 0.490257 -0.513157
C72   C     C_3   0.740513 0.693340 0.549295 -0.507725
C73   C     C_3   0.234004 0.813286 0.488831 -0.513752
C74   C     C_3   0.239967 0.192893 0.546892 -0.512805
C75   C     C_1   0.668127 0.842565 0.498591 0.193222
C76   C     C_1   0.840853 0.333191 0.500378 0.225693
F1    F     F_    0.854599 0.219837 0.594844 -0.537142
F2    F     F_    0.798156 0.289425 0.662203 -0.604644
F3    F     F_    0.751824 0.677681 0.361868 -0.615558
F4    F     F_    0.846365 0.758033 0.625417 -0.611682
F5    F     F_    0.304243 0.771786 0.341810 -0.610018
F6    F     F_    0.297036 0.790521 0.662234 -0.604878
F7    F     F_    0.253698 0.179855 0.359588 -0.615499
F8    F     F_    0.344886 0.256464 0.628217 -0.610234
F9    F     F_    0.090869 0.441049 0.915641 -0.471953
F10   F     F_    0.090819 0.440956 0.084610 -0.472928
F11   F     F_    0.089555 0.560935 0.915437 -0.466527
F12   F     F_    0.866931 0.220339 0.424872 -0.537859
F13   F     F_    0.089605 0.560846 0.084404 -0.470276
F14   F     F_    0.589315 0.938707 0.915638 -0.473774
F15   F     F_    0.589269 0.938625 0.084606 -0.470249
F16   F     F_    0.591094 0.058587 0.915441 -0.467724
F17   F     F_    0.591139 0.058502 0.084409 -0.473198
F18   F     F_    0.904751 0.448764 0.083904 -0.562568
F19   F     F_    0.904789 0.448701 0.916211 -0.562603
F20   F     F_    0.903728 0.549275 0.083755 -0.560139
F21   F     F_    0.903692 0.549211 0.916063 -0.569955
F22   F     F_    0.403465 0.951249 0.083899 -0.562823
F23   F     F_    0.868766 0.795164 0.490560 -0.535029
F24   F     F_    0.403498 0.951191 0.916206 -0.562677
F25   F     F_    0.405029 0.051751 0.083756 -0.560375
F26   F     F_    0.404994 0.051693 0.916063 -0.569400
F27   F     F_    0.829089 0.740213 0.348586 -0.531382
F28   F     F_    0.354009 0.720453 0.596990 -0.537059
F29   F     F_    0.367619 0.719670 0.427235 -0.537891
F30   F     F_    0.368910 0.295559 0.495210 -0.536965
F31   F     F_    0.331378 0.242202 0.350367 -0.534000
F32   F     F_    0.802930 0.273106 0.341389 -0.610306
H1    H     H_    0.236675 0.691569 0.361014 0.164101
H2    H     H_    0.731621 0.342522 0.429768 0.277240
H3    H     H_    0.751922 0.685969 0.620817 0.265686
H4    H     H_    0.723580 0.649816 0.522724 0.273533
H5    H     H_    0.223224 0.842777 0.546654 0.260686
H6    H     H_    0.232260 0.841845 0.427830 0.277098
H7    H     H_    0.250307 0.184678 0.618573 0.265252
H8    H     H_    0.223472 0.149684 0.518629 0.273476
H9    H     H_    0.149432 0.772624 0.528934 0.249553
H10   H     H_    0.166836 0.763373 0.413430 0.258438
H11   H     H_    0.171630 0.249941 0.606664 0.251255
H12   H     H_    0.211607 0.730269 0.638539 0.155418
H13   H     H_    0.152972 0.222998 0.497928 0.257538
H14   H     H_    0.649537 0.272550 0.531094 0.249838
H15   H     H_    0.666068 0.264168 0.415160 0.258363
H16   H     H_    0.673301 0.751357 0.609872 0.252007
H17   H     H_    0.652699 0.722836 0.502824 0.258258
H18   H     H_    0.007429 0.597818 0.076008 0.119364
H19   H     H_    0.007348 0.597819 0.923865 0.117409
H20   H     H_    0.009407 0.402350 0.076144 0.118807
H21   H     H_    0.009491 0.402354 0.924000 0.118665
H22   H     H_    0.509942 0.097589 0.076007 0.119608
H23   H     H_    0.192682 0.265396 0.366468 0.157626
H24   H     H_    0.509867 0.097593 0.923863 0.117719
H25   H     H_    0.506892 0.902140 0.076147 0.120379
H26   H     H_    0.506966 0.902141 0.924002 0.119583
H27   H     H_    0.204601 0.557769 0.642460 0.389667
H28   H     H_    0.265855 0.523685 0.413785 0.425611
H29   H     H_    0.352686 0.454162 0.477789 0.403772
H30   H     H_    0.184596 0.411667 0.325317 0.379398
H31   H     H_    0.705819 0.056620 0.640482 0.389338
H32   H     H_    0.765030 0.024482 0.410403 0.408223
H33   H     H_    0.851366 0.953319 0.465782 0.400898
H34   H     H_    0.255031 0.313198 0.627053 0.150416
H35   H     H_    0.728943 0.935562 0.304306 0.409220
H36   H     H_    0.735490 0.192764 0.360390 0.162633
H37   H     H_    0.712526 0.229385 0.638935 0.155340
H38   H     H_    0.690433 0.762875 0.368685 0.158694
H39   H     H_    0.756772 0.815132 0.625089 0.150406
H40   H     H_    0.723482 0.342558 0.548743 0.260938
N1    N     N_1   0.999850 0.500000 0.731150 -0.078437
N2    N     N_1   0.999850 0.500000 0.268850 -0.077985
N3    N     N_1   0.499850 1.000000 0.731150 -0.078147
N4    N     N_1   0.499850 1.000000 0.268850 -0.075861
O1    O     O_R   0.061440 0.438650 0.574260 -0.595124
O2    O     O_R   0.938580 0.438650 0.425740 -0.593881
O3    O     O_R   0.938580 0.561350 0.574260 -0.600697
O4    O     O_R   0.938580 0.561350 0.425740 -0.588077
O5    O     O_R   0.438580 0.938650 0.574260 -0.593395
O6    O     O_R   0.438580 0.938650 0.425740 -0.595463
O7    O     O_R   0.438580 0.061350 0.574260 -0.599910
O8    O     O_R   0.438580 0.061350 0.425740 -0.589807
O9    O     O_2   0.322511 0.631344 0.688753 -0.069141
O10   O     O_2   0.221303 0.643113 0.745467 -0.218598
O11   O     O_3   0.237250 0.575864 0.606641 -0.458324
O12   O     O_R   0.061440 0.438650 0.425740 -0.612094
O13   O     O_2   0.331622 0.610850 0.335672 -0.159046
O14   O     O_2   0.338151 0.606411 0.498277 -0.127793
O15   O     O_3   0.243532 0.561864 0.420636 -0.502513
O16   O     O_2   0.243903 0.438075 0.557939 -0.269690
O17   O     O_2   0.332601 0.405356 0.639263 -0.161959
O18   O     O_3   0.339623 0.412100 0.467997 -0.386670
O19   O     O_2   0.321633 0.353181 0.320068 -0.056404
O20   O     O_2   0.233218 0.329652 0.232473 -0.185157
O21   O     O_3   0.223615 0.409880 0.356696 -0.500199
O22   O     O_2   0.823752 0.130079 0.685698 -0.070030
O23   O     O_R   0.061440 0.561350 0.574260 -0.608443
O24   O     O_2   0.722968 0.141443 0.744243 -0.220632
O25   O     O_3   0.737875 0.075230 0.604080 -0.457067
O26   O     O_2   0.830223 0.112223 0.332128 -0.169253
O27   O     O_2   0.837950 0.106558 0.494535 -0.124833
O28   O     O_3   0.742743 0.062638 0.417707 -0.512979
O29   O     O_2   0.744762 0.938725 0.552079 -0.274220
O30   O     O_2   0.835093 0.907244 0.630454 -0.160121
O31   O     O_3   0.838531 0.910974 0.458716 -0.398393
O32   O     O_2   0.817898 0.850095 0.312884 -0.092956
O33   O     O_2   0.726619 0.825681 0.231621 -0.176877
O34   O     O_R   0.061440 0.561350 0.425740 -0.591234
O35   O     O_3   0.720654 0.907275 0.353862 -0.525945
O36   O     O_R   0.561440 0.938650 0.574260 -0.604488
O37   O     O_R   0.561440 0.938650 0.425740 -0.589132
O38   O     O_R   0.561440 0.061350 0.574260 -0.608667
O39   O     O_R   0.561440 0.061350 0.425740 -0.591397
O40   O     O_R   0.938580 0.438650 0.574260 -0.593283
S1    S     S_3+6 0.258098 0.638386 0.661623 0.190095
S2    S     S_3+6 0.296395 0.615684 0.420880 0.171743
S3    S     S_3+6 0.296221 0.395633 0.556079 0.174284
S4    S     S_3+6 0.254996 0.344582 0.324831 0.184587
S5    S     S_3+6 0.759149 0.137330 0.659740 0.189461
S6    S     S_3+6 0.795632 0.116428 0.417984 0.163775
S7    S     S_3+6 0.796974 0.896174 0.549399 0.168913
S8    S     S_3+6 0.751397 0.841769 0.321804 0.173355
Zn1   Zn    Zn3+2 0.000010 0.500000 0.599130 1.086594
Zn2   Zn    Zn3+2 0.000010 0.500000 0.400870 1.092145
Zn3   Zn    Zn3+2 0.500010 1.000000 0.599130 1.085048
Zn4   Zn    Zn3+2 0.500010 0.000000 0.400870 1.101465

loop_
_geom_bond_atom_site_label_1
_geom_bond_atom_site_label_2
_ccdc_geom_bond_type
C6    C32   S    
C72   H4    S    
C11   C18   S    
C28   N2    T    
C40   C60   S    
C50   C64   S    
C22   F19   S    
C60   C73   S    
C37   F12   S    
C39   C51   S    
O24   S5    D    
C4    C8    T    
O4    Zn2   S    
O13   S2    D    
C58   C76   S    
C10   F9    S    
C15   H26   S    
C20   C30   S    
C40   C46   S    
C16   F17   S    
C41   F29   S    
C46   C62   S    
C18   C24   S    
C34   O39   A    
C3    C7    T    
C36   F1    S    
C24   F20   S    
C68   H11   S    
C47   C63   S    
O18   S3    S    
C58   C71   S    
C29   N3    T    
C69   H15   S    
C68   C74   S    
C65   C70   S    
C49   H36   S    
C45   C62   S    
C11   C13   S    
C73   H5    S    
O34   Zn2   S    
C39   C59   S    
C51   C65   S    
C69   C71   S    
C35   O8    A    
H32   O28   S    
C32   O4    A    
O7    Zn3   S    
C1    O12   A    
C16   C17   S    
O32   S8    D    
C66   H9    S    
O40   Zn1   S    
O5    Zn3   S    
H27   O11   S    
C19   C27   S    
C9    C10   S    
C37   C58   S    
C59   C72   S    
C44   H1    S    
C71   H40   S    
O26   S6    D    
C72   H3    S    
C74   H8    S    
C34   C55   S    
C27   N1    T    
C22   F21   S    
O25   S5    S    
C17   H24   S    
C7    C33   S    
C2    C6    T    
C17   F16   S    
C11   H18   S    
H30   O21   S    
O2    Zn2   S    
C50   S5    S    
C33   O5    A    
O1    Zn1   S    
C49   S6    S    
O37   Zn4   S    
C54   C56   T    
C9    H20   S    
C62   C66   S    
O9    S1    D    
C64   C67   S    
C14   C20   S    
C47   S4    S    
C34   O38   A    
C19   C22   S    
C18   C28   S    
O23   Zn1   S    
C37   F32   S    
O17   S3    D    
C13   C19   S    
C2    C59   S    
O19   S4    D    
C48   C63   S    
C43   F31   S    
C51   H38   S    
C44   C62   S    
C25   C26   S    
C66   C73   S    
C21   C29   S    
C4    C61   S    
O16   S3    D    
O31   S7    S    
C73   H6    S    
C47   H23   S    
H33   O31   S    
C8    C35   S    
C39   F3    S    
C1    C54   S    
H31   O25   S    
C24   F18   S    
C9    F10   S    
C40   F28   S    
C32   O3    A    
C37   C49   S    
C11   F13   S    
C25   F24   S    
C30   N4    T    
C42   F8    S    
C15   C21   S    
C10   C19   S    
C16   C20   S    
C41   F5    S    
C13   F11   S    
O21   S4    S    
C56   C63   S    
C46   H12   S    
C52   S7    S    
C42   C48   S    
C64   C69   S    
C1    O1    A    
C42   F30   S    
C42   C61   S    
H29   O18   S    
O12   Zn2   S    
C26   F22   S    
C12   O23   A    
O6    Zn4   S    
C70   H17   S    
C71   H2    S    
O27   S6    D    
C52   H39   S    
C48   S3    S    
C41   C44   S    
C22   C24   S    
O20   S4    D    
O14   S2    D    
O39   Zn4   S    
N2    Zn2   S    
O29   S7    D    
N1    Zn1   S    
C23   O37   A    
C31   O2    A    
C16   H22   S    
C33   O6    A    
C43   C61   S    
C46   S1    S    
C23   C57   S    
C21   C25   S    
C63   C68   S    
O22   S5    D    
H35   O35   S    
C40   F6    S    
O30   S7    D    
C12   C53   S    
C41   C60   S    
N3    Zn3   S    
C38   F23   S    
C68   H13   S    
O8    Zn4   S    
C55   C67   T    
C39   F27   S    
C14   H25   S    
C61   C74   S    
O35   S8    S    
O36   Zn3   S    
C36   C58   S    
C65   C75   S    
C12   O34   A    
C57   C75   T    
C5    C76   T    
C36   C50   S    
C10   H21   S    
C26   F25   S    
C35   O7    A    
C36   F2    S    
C3    C60   S    
C15   F14   S    
C43   F7    S    
C23   O36   A    
C50   H37   S    
C20   C26   S    
C69   H14   S    
C74   H7    S    
C31   O40   A    
O10   S1    D    
C44   S2    S    
O15   S2    S    
O33   S8    D    
C25   F26   S    
C17   C21   S    
C14   F15   S    
H28   O15   S    
O28   S6    S    
C51   S8    S    
C45   C53   T    
C38   C59   S    
C13   H19   S    
C70   H16   S    
C9    C18   S    
C48   H34   S    
C38   C52   S    
C38   F4    S    
O38   Zn3   S    
C66   H10   S    
C49   C64   S    
O11   S1    S    
C14   C15   S    
N4    Zn4   S    
C70   C72   S    
O3    Zn1   S    
C43   C47   S    
C52   C65   S    
C5    C31   S    
