data_mof_unit_22983.cif
_audit_creation_date              2013-03-05T15:59:49-0500
_audit_creation_method            fapswitch 2.2
_symmetry_space_group_name_H-M    P1
_symmetry_Int_Tables_number       1
_space_group_crystal_system       triclinic
_cell_length_a                    8.258281
_cell_length_b                    12.746357
_cell_length_c                    18.882843
_cell_angle_alpha                 96.936879
_cell_angle_beta                  93.124727
_cell_angle_gamma                 98.461798
_cell_volume                      1946.34014677

loop_
_atom_site_label
_atom_site_type_symbol
_atom_site_description
_atom_site_fract_x
_atom_site_fract_y
_atom_site_fract_z
_atom_type_partial_charge
P1    P     P_3+3 0.034960 0.407000 0.339750 0.466537
O1    O     O_2   0.866600 0.438960 0.328790 -0.358674
O2    O     O_3   0.119240 0.440770 0.416170 -0.389956
O3    O     O_3   0.654630 0.636910 0.371550 -0.364714
O4    O     O_2   0.641171 0.491786 0.255090 -0.391907
O5    O     O_3   0.016005 0.269224 0.315711 -0.612627
O6    O     O_3   0.736583 0.687604 0.232436 -0.455195
H1    H     H_    0.757365 0.835928 0.290040 0.182969
C1    C     C_3   0.742207 0.847364 0.176773 -0.833738
H2    H     H_    0.701401 0.926956 0.181720 0.219940
H3    H     H_    0.877079 0.859097 0.174125 0.270655
P2    P     P_3+3 0.674960 0.749840 0.554930 0.486834
P3    P     P_3+3 0.121844 0.829813 0.404372 0.544253
O7    O     O_2   0.849480 0.765610 0.533810 -0.355699
O8    O     O_3   0.077620 0.693060 0.406790 -0.353475
O9    O     O_2   0.995669 0.878797 0.449984 -0.278805
O10   O     O_3   0.701146 0.782638 0.648458 -0.582833
O11   O     O_3   0.065818 0.851601 0.316914 -0.542794
C2    C     C_3   0.204106 0.873133 0.277088 0.789388
H4    H     H_    0.320992 0.862730 0.305163 -0.029171
C3    C     C_3   0.216603 0.988218 0.260243 -0.880995
H5    H     H_    0.112052 0.995938 0.222851 0.213401
H6    H     H_    0.215005 0.044222 0.309829 0.245899
C4    C     C_3   0.105983 0.794248 0.676052 0.761874
H7    H     H_    0.996038 0.754822 0.642839 0.039398
C5    C     C_3   0.063579 0.818913 0.753772 -0.891255
H8    H     H_    0.174661 0.857218 0.788346 0.311468
H9    H     H_    0.972749 0.875179 0.756581 0.248666
H10   H     H_    0.010381 0.745244 0.774943 0.199242
Ba1   Ba    Ba6+2 0.851480 0.550950 0.465800 1.626086
C6    C     C_3   0.897450 0.213257 0.352361 0.234828
H11   H     H_    0.803425 0.261000 0.371443 0.098470
H12   H     H_    0.960421 0.186526 0.398907 0.110450
C7    C     C_3   0.815056 0.117431 0.300100 -0.111457
H13   H     H_    0.728992 0.143942 0.261102 0.132413
H14   H     H_    0.908611 0.081570 0.269554 0.126587
C8    C     C_3   0.682737 0.691033 0.683720 0.367456
H15   H     H_    0.799900 0.660829 0.688259 0.001221
H16   H     H_    0.592491 0.624792 0.656477 0.169297
C9    C     C_3   0.629824 0.720618 0.758363 -0.787908
H17   H     H_    0.726131 0.779257 0.790783 0.223594
H18   H     H_    0.606143 0.647999 0.785605 0.249571
H19   H     H_    0.516700 0.757378 0.754409 0.305011
P4    P     P_3+3 0.154750 0.593090 0.660260 0.515978
O12   O     O_2   0.323100 0.561070 0.671250 -0.344378
O13   O     O_3   0.070470 0.559320 0.583840 -0.381189
O14   O     O_3   0.535090 0.363180 0.628460 -0.407485
O15   O     O_3   0.230680 0.730849 0.670937 -0.553769
P5    P     P_3+3 0.068310 0.169307 0.596537 0.519806
O16   O     O_3   0.609990 0.369010 0.464390 -0.406782
O17   O     O_3   0.112090 0.307030 0.593210 -0.391311
O18   O     O_2   0.203395 0.118565 0.557568 -0.348925
O19   O     O_3   0.099021 0.147888 0.686101 -0.466300
Ba2   Ba    Ba6+2 0.338350 0.449140 0.534210 1.608896
P6    P     P_3+3 0.604442 0.605440 0.279033 0.482076
C10   C     C_3   0.692726 0.790726 0.240559 0.468024
H20   H     H_    0.559016 0.791284 0.243726 0.050449
H21   H     H_    0.683373 0.799375 0.126496 0.261604
O20   O     O_3   0.579720 0.631080 0.535620 -0.407641
C11   C     C_3   0.444657 0.293741 0.319692 0.410069
H22   H     H_    0.338067 0.321727 0.344967 0.115424
H23   H     H_    0.551063 0.358578 0.329213 0.143659
C12   C     C_3   0.401400 0.266493 0.239580 -0.953230
H24   H     H_    0.288950 0.205850 0.229195 0.266063
H25   H     H_    0.377819 0.339160 0.216370 0.228800
H26   H     H_    0.504180 0.234920 0.213010 0.260842
P7    P     P_3+3 0.517468 0.234499 0.440501 0.423992
O21   O     O_2   0.340230 0.234420 0.466230 -0.368707
O22   O     O_3   0.484613 0.203153 0.347640 -0.560914
H27   H     H_    0.331467 0.011246 0.234224 0.275800
C13   C     C_3   0.053190 0.233928 0.730489 0.259217
H28   H     H_    0.135858 0.309328 0.725673 0.086473
H29   H     H_    0.925125 0.244198 0.715548 -0.049261
C14   C     C_3   0.063724 0.215158 0.809256 0.679374
H30   H     H_    0.023349 0.286000 0.839712 -0.128298
P8    P     P_3+3 0.564996 0.370379 0.721130 0.487965
C15   C     C_3   0.561364 0.168253 0.684448 0.492973
H31   H     H_    0.665800 0.201268 0.655048 -0.006833
O23   O     O_2   0.424324 0.423795 0.752774 -0.326887
O24   O     O_3   0.532408 0.239826 0.743554 -0.486756
H32   H     H_    0.449421 0.149519 0.647358 0.167854
H33   H     H_    0.735186 0.072110 0.722679 0.242677
C16   C     C_3   0.601800 0.064898 0.709095 -0.868890
H34   H     H_    0.567331 0.997499 0.665408 0.239610
H35   H     H_    0.535465 0.045877 0.756579 0.311763
N1    N     N_R   0.144692 0.586497 0.967033 -0.000777
N2    N     N_R   0.195148 0.589276 0.035603 -0.020128
C17   C     C_2   0.278903 0.546609 0.302005 -0.366429
C18   C     C_3   0.384674 0.610041 0.255321 0.093067
C19   C     C_2   0.337860 0.580458 0.176143 -0.099480
C20   C     C_2   0.194753 0.517035 0.151821 0.046862
C21   C     C_2   0.096055 0.462632 0.205405 -0.217334
C22   C     C_1   0.147457 0.479329 0.274786 0.330530
N3    N     N_R   0.016220 0.431719 0.042007 -0.083532
N4    N     N_R   0.966556 0.428547 0.972927 -0.088376
C23   C     C_R   0.031494 0.505158 0.933416 0.251122
C24   C     C_R   0.133955 0.511526 0.074668 0.196583
C25   C     C_R   0.088377 0.543657 0.805066 0.252705
C26   C     C_R   0.033806 0.533805 0.731058 0.096839
C27   C     C_R   0.769800 0.440066 0.756501 0.245970
C28   C     C_R   0.821377 0.448990 0.829181 -0.287520
C29   C     C_R   0.981020 0.499485 0.854886 -0.126975
C30   C     C_R   0.877635 0.478519 0.708244 -0.531778
H36   H     H_    0.413898 0.621394 0.139643 0.154464
H37   H     H_    0.979418 0.412587 0.187666 0.153276
H38   H     H_    0.736876 0.415952 0.865606 0.194924
H39   H     H_    0.304321 0.567723 0.359353 0.151148
H40   H     H_    0.836724 0.468682 0.652062 0.181290
C31   C     C_R   0.771878 0.177784 0.521204 -0.507141
C32   C     C_R   0.422993 0.811209 0.473725 -0.357651
C33   C     C_R   0.393457 0.989284 0.450216 -0.096579
C34   C     C_R   0.331102 0.881087 0.444682 0.170300
C35   C     C_R   0.575455 0.848618 0.511003 0.290896
C36   C     C_R   0.641023 0.959805 0.517597 -0.052898
C37   C     C_R   0.549221 0.030128 0.484985 0.030229
C38   C     C_R   0.617259 0.139189 0.486850 0.251102
C39   C     C_R   0.862290 0.111031 0.554122 0.242837
C40   C     C_R   0.796089 0.003038 0.553913 -0.151598
H41   H     H_    0.318349 0.040160 0.426784 0.155598
H42   H     H_    0.867357 0.954385 0.581793 0.190940
H43   H     H_    0.823756 0.260922 0.521421 0.167944
H44   H     H_    0.372030 0.727348 0.469872 0.155488
N5    N     N_R   0.728928 0.036528 0.337812 0.220840
O25   O     O_R   0.810295 0.992016 0.383407 -0.417049
O26   O     O_R   0.577078 0.997055 0.318261 -0.474902
N6    N     N_R   0.233420 0.212020 0.834040 0.251252
O27   O     O_R   0.293835 0.123241 0.823447 -0.315801
O28   O     O_R   0.316230 0.292834 0.876019 -0.388565
O29   O     O_3   0.964998 0.116931 0.817418 -0.653269
C41   C     C_3   0.859269 0.128809 0.873463 0.143959
H45   H     H_    0.764276 0.056242 0.866770 0.164819
H46   H     H_    0.791814 0.197837 0.869926 0.127888
C42   C     C_3   0.952433 0.136785 0.946987 -0.286488
H47   H     H_    0.017237 0.066514 0.948695 0.236879
H48   H     H_    0.045343 0.210374 0.956181 0.219101
C43   C     C_3   0.835967 0.140259 0.006960 -0.934343
H49   H     H_    0.770596 0.210409 0.006443 0.278172
H50   H     H_    0.907056 0.147266 0.059414 0.265394
H51   H     H_    0.744666 0.065872 0.000643 0.276658
N7    N     N_R   0.183336 0.800722 0.209913 0.205724
O30   O     O_R   0.063108 0.721073 0.198520 -0.364882
O31   O     O_R   0.288556 0.813555 0.161622 -0.452191
N8    N     N_R   0.251315 0.595707 0.829143 0.249313
O32   O     O_R   0.288350 0.698433 0.830170 -0.424017
O33   O     O_R   0.350226 0.545935 0.863795 -0.352165
N9    N     N_R   0.163645 0.893824 0.648313 0.226681
O34   O     O_R   0.247155 0.973927 0.690384 -0.352263
O35   O     O_R   0.169590 0.893051 0.579819 -0.412795

loop_
_geom_bond_atom_site_label_1
_geom_bond_atom_site_label_2
_geom_bond_distance
_ccdc_geom_bond_type
C26   C30   1.394322 A    
C12   H25   1.108951 S    
C7    N5    1.446778 S    
C23   C29   1.508545 S    
C25   N8    1.433598 S    
N4    C23   1.365011 A    
P8    O23   1.542840 D    
O6    P6    1.747224 S    
H1    C10   1.102264 S    
C40   H42   1.077327 S    
C36   C37   1.428236 A    
C31   C39   1.389928 A    
N5    O25   1.296851 A    
C15   H31   1.109473 S    
Ba1   Ba2   4.570896 S    
C5    H8    1.109969 S    
O16   Ba2   2.912925 S    
P3    O11   1.756084 S    
C11   C12   1.521267 S    
C33   H41   1.076468 S    
C2    C3    1.528199 S    
N7    O31   1.301511 A    
O14   P8    1.743252 S    
C7    H13   1.111459 S    
C8    C9    1.518896 S    
P3    C34   1.843082 S    
O2    Ba2   2.774843 S    
N5    O26   1.296531 A    
Ba2   O21   2.881783 S    
C15   C16   1.524567 S    
N8    O32   1.297601 A    
C10   H20   1.110099 S    
C11   H23   1.104833 S    
P1    O1    1.515778 D    
C27   C28   1.400782 A    
C31   C38   1.393204 A    
C35   C36   1.428790 A    
P2    O20   1.589982 S    
C9    H19   1.107948 S    
P5    C39   1.850322 S    
C33   C34   1.388658 A    
C2    N7    1.461895 S    
P5    O17   1.748897 S    
P2    O10   1.758965 S    
C42   C43   1.525986 S    
C6    H12   1.110711 S    
C30   H40   1.082418 S    
C1    H2    1.110262 S    
C9    H18   1.110109 S    
O5    C6    1.390673 S    
Ba1   O16   2.823863 S    
C12   H26   1.110096 S    
C3    H5    1.108607 S    
O6    C10   1.407083 S    
O7    Ba1   2.881454 S    
C43   H51   1.110958 S    
P4    O13   1.550592 S    
N9    O35   1.295875 A    
Ba2   O20   2.823282 S    
C14   H30   1.114154 S    
P7    O21   1.567037 D    
C4    O15   1.399896 S    
C28   C29   1.411741 A    
C4    H7    1.094425 S    
C43   H50   1.110627 S    
C20   C21   1.504012 S    
C13   H29   1.110132 S    
C17   H39   1.085056 S    
N1    N2    1.333087 A    
O11   C2    1.412913 S    
N3    C24   1.361072 A    
C25   C29   1.435272 A    
C27   C30   1.389785 A    
C20   C24   1.504870 S    
P1    O5    1.741654 S    
C11   H22   1.107686 S    
P1    O2    1.550589 S    
O2    Ba1   2.926104 S    
C41   H46   1.115029 S    
P7    C38   1.842234 S    
C8    H15   1.095587 S    
C16   H34   1.109424 S    
C15   H32   1.107343 S    
P5    O18   1.546334 D    
Ba1   O20   2.913765 S    
O13   Ba2   2.926941 S    
C6    C7    1.523075 S    
C1    C10   1.521758 S    
O10   C8    1.405843 S    
N7    O30   1.300035 A    
C21   C22   1.336901 D    
C1    H3    1.106481 S    
C32   C35   1.397756 A    
C19   H36   1.085917 S    
C36   C40   1.420954 A    
N1    C23   1.357513 A    
O14   Ba2   2.772602 S    
P1    C22   1.833908 S    
C9    H17   1.107886 S    
C16   H35   1.108969 S    
P2    O7    1.507771 D    
O12   Ba2   2.818543 S    
C25   C26   1.429730 A    
P3    O8    1.734231 S    
O3    P6    1.757136 S    
C42   H47   1.111710 S    
C14   O29   1.419848 S    
C41   C42   1.534995 S    
O19   C13   1.408275 S    
P4    O12   1.516089 D    
O8    Ba1   2.780149 S    
N9    O34   1.298567 A    
O16   P7    1.765493 S    
C15   O24   1.408008 S    
C28   H38   1.083135 S    
N8    O33   1.300900 A    
C17   C22   1.317840 D    
C1    H21   1.110631 S    
N6    O28   1.301330 A    
P2    Ba1   3.421832 S    
O4    P6    1.543091 D    
C6    H11   1.104410 S    
P8    O24   1.752615 S    
C4    C5    1.533691 S    
C43   H49   1.111153 S    
C13   C14   1.534584 S    
P8    C27   1.840401 S    
C5    H9    1.110531 S    
Ba1   O13   2.774246 S    
C3    H27   1.109524 S    
O1    Ba1   2.818180 S    
O17   Ba2   2.780646 S    
C2    H4    1.108725 S    
C3    H6    1.108651 S    
C41   H45   1.111015 S    
O29   C41   1.416409 S    
C13   H28   1.110312 S    
C8    H16   1.095932 S    
P4    O15   1.758913 S    
C4    N9    1.456702 S    
C39   C40   1.403813 A    
C32   H44   1.081897 S    
C31   H43   1.082453 S    
C19   C20   1.353188 D    
C14   N6    1.460847 S    
C11   O22   1.400353 S    
N6    O27   1.300702 A    
P5    O19   1.756216 S    
P1    Ba1   3.388848 S    
P4    C26   1.877040 S    
P2    C35   1.852282 S    
C7    H14   1.107867 S    
N3    N4    1.339938 A    
C32   C34   1.393378 A    
C12   H24   1.109329 S    
P4    Ba2   3.389410 S    
C21   H37   1.085944 S    
C17   C18   1.497348 S    
C5    H10   1.105893 S    
P6    C18   1.856568 S    
H33   C16   1.105135 S    
P3    O9    1.541689 D    
C42   H48   1.110415 S    
C33   C37   1.408907 A    
P7    O22   1.747834 S    
C18   C19   1.511595 S    
O3    Ba1   2.773156 S    
C37   C38   1.416175 A    
N2    C24   1.360693 A    
