data_mof_unit_30046.cif
_audit_creation_date              2012-10-26T19:43:53-0400
_audit_creation_method            fapswitch 2.2
_symmetry_space_group_name_H-M    P1
_symmetry_Int_Tables_number       1
_space_group_crystal_system       triclinic
_cell_length_a                    12.435298
_cell_length_b                    13.180549
_cell_length_c                    13.846805
_cell_angle_alpha                 107.084145
_cell_angle_beta                  73.117137
_cell_angle_gamma                 117.200279
_cell_volume                      1896.68081478

loop_
_atom_site_label
_atom_site_type_symbol
_atom_type_description
_atom_site_fract_x
_atom_site_fract_y
_atom_site_fract_z
_atom_type_partial_charge
C1    C     C_R   0.144145 0.714036 0.510029 0.641931
C2    C     C_R   0.562758 0.022440 0.469932 0.006783
C3    C     C_R   0.604523 0.944685 0.389209 -0.067815
C4    C     C_R   0.983347 0.504297 0.686652 0.588466
C5    C     C_R   0.517555 0.841176 0.344438 -0.097098
C6    C     C_R   0.393063 0.808825 0.382542 0.372379
C7    C     C_R   0.652420 0.125370 0.514225 0.424068
C8    C     C_R   0.816199 0.085099 0.389393 -0.193899
C9    C     C_R   0.225033 0.838578 0.518583 0.008946
C10   C     C_R   0.629258 0.657159 0.680441 0.337797
C11   C     C_R   0.256397 0.349922 0.358827 0.131746
C12   C     C_1   0.973239 0.507381 0.792633 0.013575
C13   C     C_R   0.341847 0.303205 0.343769 -0.125776
C14   C     C_R   0.433177 0.350059 0.401692 -0.006056
C15   C     C_R   0.444424 0.453468 0.476302 -0.039680
C16   C     C_R   0.856137 0.285786 0.486907 0.552705
C17   C     C_R   0.344344 0.490589 0.501922 0.158684
C18   C     C_R   0.547020 0.518688 0.530064 -0.058962
C19   C     C_R   0.536423 0.600211 0.620940 -0.027092
C20   C     C_R   0.435975 0.628166 0.649838 -0.098913
C21   C     C_R   0.346933 0.581425 0.589705 0.366443
C22   C     C_R   0.662771 0.511121 0.496111 0.032717
C23   C     C_R   0.732739 0.973872 0.353400 -0.012036
C24   C     C_R   0.733901 0.634800 0.648149 0.104518
C25   C     C_R   0.016523 0.495449 0.313324 0.549382
C26   C     C_1   0.029343 0.494939 0.207501 -0.017188
C27   C     C_2   0.054221 0.497602 0.012112 0.010393
C28   C     C_2   0.966360 0.511371 0.985849 -0.111911
C29   C     C_1   0.968028 0.509507 0.881128 -0.045137
C30   C     C_1   0.040882 0.495646 0.118514 -0.041505
C31   C     C_3   0.177882 0.306092 0.275944 -0.224471
C32   C     C_3   0.174387 0.194312 0.197535 -0.361245
C33   C     C_3   0.083925 0.157422 0.126306 -0.455318
C34   C     C_R   0.775435 0.162143 0.466182 -0.007001
C35   C     C_3   0.503790 0.275570 0.385185 -0.239191
C36   C     C_3   0.589452 0.276346 0.279213 -0.323278
C37   C     C_3   0.676351 0.220288 0.270052 -0.441373
C38   C     C_3   0.158970 0.476069 0.932036 -0.235579
C39   C     C_3   0.263854 0.488138 0.977935 -0.305487
C40   C     C_3   0.367881 0.470544 0.893497 -0.415380
C41   C     C_3   0.783995 0.890166 0.276827 -0.247561
C42   C     C_3   0.767262 0.792729 0.326753 -0.286839
C43   C     C_3   0.816969 0.707231 0.250178 -0.448642
C44   C     C_R   0.179646 0.918056 0.586878 -0.209143
C45   C     C_R   0.257011 0.034411 0.608404 -0.100141
C46   C     C_R   0.382469 0.072348 0.568886 0.428211
C47   C     C_R   0.433593 0.992616 0.504544 -0.003635
C48   C     C_R   0.350174 0.878324 0.469035 -0.020367
Cu1   Cu    Cu3+1 0.899780 0.525060 0.522890 0.978069
Cu2   Cu    Cu3+1 0.100220 0.474940 0.477110 1.042161
F1    F     F_    0.314760 0.713983 0.327813 -0.637605
F2    F     F_    0.618583 0.733380 0.769476 -0.660064
F3    F     F_    0.268351 0.632809 0.622796 -0.626612
F4    F     F_    0.625603 0.186265 0.608686 -0.555555
F5    F     F_    0.448112 0.188700 0.586633 -0.605587
H1    H     H_    0.890869 0.523955 0.044033 0.116699
H2    H     H_    0.989207 0.139041 0.171076 0.144126
H3    H     H_    0.111030 0.226890 0.083066 0.156522
H4    H     H_    0.084001 0.077340 0.070471 0.162003
H5    H     H_    0.266827 0.209187 0.148806 0.168418
H6    H     H_    0.145151 0.122348 0.238612 0.160195
H7    H     H_    0.081659 0.287083 0.311522 0.192740
H8    H     H_    0.214283 0.375669 0.230631 0.172728
H9    H     H_    0.739435 0.272016 0.325699 0.162824
H10   H     H_    0.623350 0.130209 0.284647 0.162366
H11   H     H_    0.732499 0.217447 0.191417 0.148978
H12   H     H_    0.804378 0.675580 0.694869 0.142880
H13   H     H_    0.533702 0.227302 0.217686 0.165142
H14   H     H_    0.644655 0.366431 0.264938 0.157791
H15   H     H_    0.553040 0.297608 0.448062 0.228269
H16   H     H_    0.436274 0.184349 0.388282 0.163137
H17   H     H_    0.333532 0.382549 0.845036 0.174287
H18   H     H_    0.406880 0.536870 0.844351 0.197070
H19   H     H_    0.442061 0.479322 0.928725 0.168548
H20   H     H_    0.301053 0.576121 0.025985 0.200200
H21   H     H_    0.228724 0.422320 0.027127 0.161702
H22   H     H_    0.120841 0.387192 0.885682 0.150566
H23   H     H_    0.429297 0.693574 0.717698 0.207841
H24   H     H_    0.198340 0.539380 0.879647 0.170146
H25   H     H_    0.767037 0.665686 0.184620 0.151590
H26   H     H_    0.916752 0.752582 0.220804 0.162839
H27   H     H_    0.803809 0.638336 0.288709 0.152711
H28   H     H_    0.817106 0.831359 0.392403 0.179199
H29   H     H_    0.668534 0.744024 0.356974 0.170266
H30   H     H_    0.740649 0.854259 0.207658 0.142728
H31   H     H_    0.884049 0.936662 0.248499 0.140506
H32   H     H_    0.687480 0.466486 0.420839 0.130186
H33   H     H_    0.338437 0.227082 0.285682 0.103622
H34   H     H_    0.913164 0.112246 0.356683 0.122539
H35   H     H_    0.544150 0.783521 0.278538 0.143723
H36   H     H_    0.083976 0.890140 0.624401 0.143179
H37   H     H_    0.219642 0.095875 0.657663 0.146522
N1    N     N_R   0.748810 0.563010 0.557590 -0.273422
N2    N     N_R   0.250540 0.437620 0.443020 -0.214998
O1    O     O_R   0.025040 0.682470 0.528790 -0.529746
O2    O     O_R   0.194310 0.640150 0.490130 -0.357446
O3    O     O_R   0.903380 0.524130 0.659910 -0.499559
O4    O     O_R   0.072660 0.481800 0.621240 -0.430485
O5    O     O_R   0.805690 0.359850 0.509870 -0.446741
O6    O     O_R   0.974960 0.317530 0.471210 -0.546149
O7    O     O_R   0.927340 0.518200 0.378760 -0.523627
O8    O     O_R   0.096620 0.475870 0.340090 -0.498446

loop_
_geom_bond_atom_site_label_1
_geom_bond_atom_site_label_2
_ccdc_geom_bond_type
C15   C18   A    
C33   H3    S    
C4    O4    A    
C12   C29   T    
C41   C42   S    
C3    C23   A    
C2    C7    A    
C10   F2    S    
C28   H1    S    
C45   C46   A    
C44   C45   A    
C41   H31   S    
C6    C48   A    
C36   C37   S    
C32   H6    S    
Cu1   O7    S    
C38   C39   S    
C25   O8    A    
C38   H24   S    
C27   C38   S    
C8    C23   A    
C40   H18   S    
C18   C19   A    
C45   H37   S    
C24   H12   S    
C16   C34   S    
C31   C32   S    
C35   H15   S    
C37   H10   S    
C46   F5    S    
C39   H20   S    
C6    F1    S    
C4    C12   S    
C5    H35   S    
C11   C31   S    
C33   H4    S    
C4    O3    A    
C27   C30   S    
C31   H7    S    
Cu2   O4    S    
C31   H8    S    
C42   H29   S    
C39   C40   S    
C16   O6    A    
C10   C24   A    
C43   H25   S    
C22   H32   S    
Cu1   O3    S    
C17   C21   A    
C35   C36   S    
Cu1   O5    S    
C47   C48   A    
C10   C19   A    
C1    O1    A    
C37   H11   S    
C1    C9    S    
C8    C34   A    
C39   H21   S    
Cu1   O1    S    
C44   H36   S    
C11   N2    A    
Cu2   O8    S    
C43   H26   S    
C22   N1    A    
C42   C43   S    
C32   H5    S    
C14   C35   S    
C37   H9    S    
C36   H14   S    
C15   C17   A    
C46   C47   A    
C28   C29   S    
C9    C44   A    
C33   H2    S    
C40   H17   S    
C18   C22   A    
Cu2   N2    S    
C42   H28   S    
C3    C5    A    
C36   H13   S    
C16   O5    A    
C26   C30   T    
C17   N2    A    
C38   H22   S    
C2    C47   A    
C41   H30   S    
Cu2   O6    S    
C23   C41   S    
C20   H23   S    
C32   C33   S    
C19   C20   A    
C2    C3    A    
C25   C26   S    
C24   N1    A    
C21   F3    S    
C11   C13   A    
C25   O7    A    
C5    C6    A    
C1    O2    A    
C13   H33   S    
C7    C34   A    
C40   H19   S    
C35   H16   S    
C20   C21   A    
C9    C48   A    
Cu1   Cu2   S    
Cu2   O2    S    
C27   C28   D    
C43   H27   S    
C14   C15   A    
C8    H34   S    
C7    F4    S    
Cu1   N1    S    
C13   C14   A    
