data_mof_unit_51230.cif
_audit_creation_date              2012-10-26T20:52:01-0400
_audit_creation_method            fapswitch 2.2
_symmetry_space_group_name_H-M    P1
_symmetry_Int_Tables_number       1
_space_group_crystal_system       triclinic
_cell_length_a                    8.764948
_cell_length_b                    15.982599
_cell_length_c                    14.739839
_cell_angle_alpha                 90.463487
_cell_angle_beta                  98.267289
_cell_angle_gamma                 89.89731
_cell_volume                      2043.3295029

loop_
_atom_site_label
_atom_site_type_symbol
_atom_type_description
_atom_site_fract_x
_atom_site_fract_y
_atom_site_fract_z
_atom_type_partial_charge
C1    C     C_R   0.500078 0.340803 0.499592 0.548094
C2    C     C_R   0.796965 0.499781 0.523636 0.581513
C3    C     C_2   0.037206 0.515199 0.466177 0.221424
C4    C     C_2   0.962762 0.492558 0.536484 0.239479
C5    C     C_R   0.610155 0.956656 0.566671 0.210026
C6    C     C_R   0.419460 0.042687 0.426267 0.203140
C7    C     C_R   0.514301 0.912499 0.498316 0.003467
C8    C     C_R   0.515412 0.086986 0.494680 -0.003110
C9    C     C_R   0.423596 0.954412 0.426210 0.200945
C10   C     C_R   0.616740 0.044716 0.562077 0.215255
C11   C     C_1   0.509184 0.822948 0.501218 0.049311
C12   C     C_R   0.500522 0.659111 0.500428 0.540904
C13   C     C_1   0.508292 0.176698 0.496802 0.044969
C14   C     C_1   0.503644 0.251710 0.498549 0.002472
C15   C     C_1   0.504715 0.748026 0.501525 -0.003789
C16   C     C_R   0.608832 0.546225 0.962272 0.264960
C17   C     C_R   0.381428 0.454276 0.037741 0.277282
C18   C     C_3   0.978549 0.544916 0.309569 0.031661
C19   C     C_3   0.064058 0.612724 0.263919 -0.261056
C20   C     C_3   0.085084 0.588212 0.166379 -0.485114
C21   C     C_3   0.028853 0.485816 0.697036 0.021496
C22   C     C_3   0.069573 0.579917 0.702745 -0.277176
C23   C     C_R   0.498642 0.500482 0.902832 -0.030366
C24   C     C_3   0.076355 0.613351 0.800475 -0.492178
C25   C     C_3   0.844782 0.117485 0.589652 0.004206
C26   C     C_3   0.975921 0.053298 0.605458 -0.279887
C27   C     C_3   0.121796 0.085751 0.572189 -0.455399
C28   C     C_3   0.418063 0.886473 0.289454 0.004617
C29   C     C_3   0.330288 0.819909 0.227691 -0.248977
C30   C     C_3   0.421719 0.790849 0.152477 -0.490057
C31   C     C_3   0.704012 0.674563 0.929588 -0.011922
C32   C     C_3   0.610307 0.703877 0.839543 -0.258566
C33   C     C_3   0.601840 0.799122 0.834939 -0.462507
C34   C     C_R   0.495066 0.499424 0.096500 -0.021058
C35   C     C_3   0.160805 0.364914 0.021568 0.005058
C36   C     C_3   0.027507 0.421186 0.979013 -0.270678
C37   C     C_3   0.914961 0.373255 0.908848 -0.469143
C38   C     C_R   0.385121 0.455892 0.940707 -0.173016
C39   C     C_R   0.607374 0.544388 0.058101 -0.168237
C40   C     C_1   0.499520 0.500049 0.802693 0.139676
C41   C     C_1   0.497979 0.499744 0.197058 0.159200
C42   C     C_R   0.202908 0.503122 0.476805 0.577392
Cu1   Cu    Cu3+1 0.500040 0.500000 0.589220 0.982956
Cu2   Cu    Cu3+1 0.499960 0.500000 0.410780 0.996673
H1    H     H_    0.695046 0.578398 0.102908 0.101135
H2    H     H_    0.113424 0.453051 0.748016 0.148674
H3    H     H_    0.915303 0.474235 0.719354 0.166917
H4    H     H_    0.183348 0.590377 0.680145 0.196280
H5    H     H_    0.981190 0.616316 0.657813 0.158916
H6    H     H_    0.965295 0.601914 0.826145 0.193010
H7    H     H_    0.098483 0.681762 0.801694 0.149316
H8    H     H_    0.171122 0.582605 0.846381 0.139996
H9    H     H_    0.884482 0.176644 0.625503 0.166154
H10   H     H_    0.819314 0.132794 0.515254 0.123147
H11   H     H_    0.001891 0.039198 0.679798 0.173003
H12   H     H_    0.300356 0.423485 0.892733 0.094833
H13   H     H_    0.939997 0.994447 0.567821 0.187737
H14   H     H_    0.099247 0.098850 0.497562 0.184785
H15   H     H_    0.214157 0.037800 0.584506 0.160249
H16   H     H_    0.162481 0.143872 0.609839 0.158835
H17   H     H_    0.532912 0.860067 0.317744 0.132054
H18   H     H_    0.435691 0.942448 0.247693 0.143597
H19   H     H_    0.307656 0.765141 0.269809 0.176388
H20   H     H_    0.217739 0.845839 0.195661 0.167163
H21   H     H_    0.532459 0.761990 0.183109 0.150344
H22   H     H_    0.445693 0.844490 0.109212 0.144554
H23   H     H_    0.860035 0.539436 0.271401 0.152303
H24   H     H_    0.354157 0.743452 0.108227 0.140395
H25   H     H_    0.747723 0.950993 0.683193 0.356470
H26   H     H_    0.258881 0.048292 0.319756 0.357685
H27   H     H_    0.819596 0.704388 0.937061 0.146594
H28   H     H_    0.648914 0.696634 0.989208 0.118901
H29   H     H_    0.664501 0.679880 0.780731 0.195115
H30   H     H_    0.491223 0.678630 0.833622 0.156681
H31   H     H_    0.546708 0.824483 0.892682 0.137156
H32   H     H_    0.532003 0.818059 0.769403 0.187217
H33   H     H_    0.719235 0.826068 0.838044 0.161980
H34   H     H_    0.032986 0.482349 0.303827 0.140861
H35   H     H_    0.111634 0.318142 0.064587 0.161291
H36   H     H_    0.212251 0.326714 0.970366 0.127363
H37   H     H_    0.964527 0.445238 0.034078 0.177346
H38   H     H_    0.071844 0.475847 0.945067 0.167885
H39   H     H_    0.974959 0.349016 0.852590 0.139545
H40   H     H_    0.820812 0.415659 0.878992 0.181996
H41   H     H_    0.863719 0.320139 0.942075 0.154792
H42   H     H_    0.997917 0.672243 0.262271 0.164796
H43   H     H_    0.179184 0.623911 0.304453 0.196698
H44   H     H_    0.150775 0.528902 0.166858 0.208407
H45   H     H_    0.150194 0.637824 0.136272 0.141130
H46   H     H_    0.971551 0.580417 0.123077 0.149319
N1    N     N_1   0.500050 0.499980 0.276720 -0.196241
N2    N     N_1   0.499950 0.500020 0.723280 -0.204272
O1    O     O_R   0.500070 0.380310 0.575330 -0.484098
O2    O     O_3   0.038201 0.447373 0.610544 -0.591973
O3    O     O_3   0.714215 0.089379 0.627508 -0.579034
O4    O     O_3   0.330810 0.908815 0.359547 -0.579391
O5    O     O_3   0.696003 0.911938 0.636160 -0.719040
O6    O     O_3   0.323755 0.087365 0.361068 -0.702585
O7    O     O_3   0.726636 0.586884 0.927302 -0.594534
O8    O     O_3   0.272183 0.411287 0.080306 -0.578448
O9    O     O_R   0.499930 0.619690 0.424670 -0.499771
O10   O     O_R   0.500000 0.380310 0.424640 -0.484599
O11   O     O_R   0.500000 0.619690 0.575360 -0.507675
O12   O     O_R   0.274870 0.500000 0.557960 -0.472444
O13   O     O_R   0.725130 0.500000 0.442040 -0.477268
O14   O     O_R   0.274790 0.500000 0.407270 -0.516994
O15   O     O_R   0.725210 0.500000 0.592730 -0.516302
O16   O     O_3   0.965685 0.570404 0.400314 -0.598288

loop_
_geom_bond_atom_site_label_1
_geom_bond_atom_site_label_2
_ccdc_geom_bond_type
C24   H8    S    
C22   H4    S    
C29   H19   S    
C3    C42   S    
C8    C13   S    
C35   H36   S    
C35   C36   S    
C19   H42   S    
C26   H11   S    
C6    C9    A    
Cu2   O13   S    
C7    C11   S    
C26   C27   S    
C6    O6    S    
C37   H41   S    
C28   C29   S    
C25   H9    S    
C19   H43   S    
C27   H16   S    
C32   H30   S    
C21   O2    S    
C23   C40   S    
C2    O15   A    
C18   C19   S    
Cu1   O12   S    
C11   C15   T    
C33   H31   S    
C19   C20   S    
C36   H38   S    
C37   H40   S    
C31   O7    S    
C39   H1    S    
C28   H17   S    
C24   H7    S    
C31   H27   S    
C29   H20   S    
C13   C14   T    
C34   C41   S    
C26   H13   S    
Cu1   O11   S    
C24   H6    S    
C34   C39   A    
C25   H10   S    
C12   O11   A    
C32   H29   S    
C5    C7    A    
Cu2   O10   S    
C6    C8    A    
C25   C26   S    
C20   H46   S    
C2    C4    S    
Cu1   Cu2   S    
C29   C30   S    
C33   H32   S    
C31   C32   S    
C12   C15   S    
C36   H37   S    
C18   H34   S    
Cu1   O15   S    
C40   N2    T    
C42   O14   A    
C9    O4    S    
C30   H22   S    
Cu2   N1    S    
C22   H5    S    
C4    O2    S    
C8    C10   A    
C31   H28   S    
C41   N1    T    
C5    O5    S    
C25   O3    S    
C16   C23   A    
C22   C24   S    
C17   C34   A    
C35   O8    S    
C21   H2    S    
C7    C9    A    
C36   C37   S    
C27   H14   S    
C42   O12   A    
Cu2   O9    S    
C16   O7    S    
Cu2   O14   S    
C3    O16   S    
C23   C38   A    
C20   H45   S    
C2    O13   A    
Cu1   N2    S    
C28   O4    S    
C32   C33   S    
C18   H23   S    
C12   O9    A    
C27   H15   S    
C33   H33   S    
C10   O3    S    
C20   H44   S    
C35   H35   S    
Cu1   O1    S    
C17   C38   A    
C17   O8    S    
C18   O16   S    
C30   H21   S    
C16   C39   A    
H26   O6    S    
C5    C10   A    
C38   H12   S    
C1    O1    A    
C37   H39   S    
C1    C14   S    
C21   C22   S    
C1    O10   A    
C30   H24   S    
C3    C4    D    
C28   H18   S    
C21   H3    S    
H25   O5    S    
