data_mof_unit_65238.cif
_audit_creation_date              2012-10-26T19:36:46-0400
_audit_creation_method            fapswitch 2.2
_symmetry_space_group_name_H-M    P1
_symmetry_Int_Tables_number       1
_space_group_crystal_system       triclinic
_cell_length_a                    17.725185
_cell_length_b                    16.430851
_cell_length_c                    10.803454
_cell_angle_alpha                 90.049888
_cell_angle_beta                  89.916167
_cell_angle_gamma                 90.180914
_cell_volume                      3146.37634534

loop_
_atom_site_label
_atom_site_type_symbol
_atom_type_description
_atom_site_fract_x
_atom_site_fract_y
_atom_site_fract_z
_atom_type_partial_charge
Br1   Br    Br    0.637425 0.882342 0.350373 -0.408194
Br2   Br    Br    0.105326 0.324200 0.425837 -0.444011
Br3   Br    Br    0.624748 0.116857 0.672441 -0.366859
Br4   Br    Br    0.425035 0.664578 0.121717 -0.458098
Br5   Br    Br    0.333303 0.484794 0.157177 -0.469731
Br6   Br    Br    0.664034 0.464354 0.859472 -0.322154
Br7   Br    Br    0.547722 0.326910 0.898145 -0.368380
Br8   Br    Br    0.727220 0.640697 0.660590 -0.417458
Br9   Br    Br    0.713995 0.363751 0.314667 -0.419841
Br10  Br    Br    0.100909 0.671747 0.528691 -0.424004
C1    C     C_R   0.355310 0.499866 0.497269 0.558165
C2    C     C_1   0.034064 0.497123 0.475338 0.102888
C3    C     C_R   0.153380 0.571223 0.501828 0.148915
C4    C     C_R   0.155204 0.425754 0.458816 0.141811
C5    C     C_R   0.231943 0.571581 0.507965 -0.090192
C6    C     C_R   0.233740 0.426645 0.465696 -0.101612
C7    C     C_R   0.272589 0.499352 0.490781 -0.037934
C8    C     C_R   0.499734 0.500225 0.259691 0.603664
C9    C     C_R   0.114796 0.498118 0.477507 0.047946
C10   C     C_R   0.556617 0.828616 0.435795 0.152860
C11   C     C_R   0.551804 0.171103 0.571254 0.168052
C12   C     C_3   0.564815 0.442905 0.932385 0.295617
C13   C     C_R   0.555683 0.742758 0.439212 0.095227
C14   C     C_R   0.550927 0.257021 0.569942 0.131187
C15   C     C_R   0.443097 0.743243 0.556380 0.035043
C16   C     C_R   0.449126 0.257067 0.429116 0.043727
C17   C     C_R   0.441603 0.829006 0.554841 -0.166566
C18   C     C_R   0.448045 0.171289 0.427397 -0.148614
C19   C     C_R   0.498843 0.873064 0.494535 0.021879
C20   C     C_R   0.499644 0.126931 0.498955 0.032286
C21   C     C_1   0.498447 0.962715 0.495657 0.063514
C22   C     C_1   0.498721 0.037276 0.497009 0.072238
C23   C     C_R   0.849378 0.556913 0.550580 -0.060549
C24   C     C_R   0.644791 0.500101 0.498010 0.610105
C25   C     C_R   0.500365 0.500059 0.740848 0.614529
C26   C     C_3   0.506182 0.590155 0.071699 0.011591
C27   C     C_3   0.427154 0.457699 0.071113 0.056517
C28   C     C_3   0.513012 0.589851 0.928647 0.104438
C29   C     C_3   0.420994 0.472456 0.929866 0.107256
C30   C     C_3   0.569117 0.454138 0.074715 -0.247711
C31   C     C_3   0.498931 0.501226 0.122552 -0.067158
C32   C     C_3   0.500604 0.500263 0.879188 0.036351
C33   C     C_3   0.591878 0.705804 0.909674 0.043718
C34   C     C_R   0.844414 0.441042 0.412712 -0.057795
C35   C     C_3   0.563200 0.755035 0.799418 -0.260531
C36   C     C_3   0.585373 0.844557 0.811738 -0.424246
C37   C     C_3   0.332295 0.412115 0.794375 0.036550
C38   C     C_3   0.258709 0.402137 0.867326 -0.263736
C39   C     C_3   0.190188 0.402286 0.782186 -0.450911
C40   C     C_R   0.770859 0.558529 0.556807 0.157288
C41   C     C_R   0.765729 0.441545 0.417407 0.126954
C42   C     C_R   0.727819 0.500048 0.491070 0.032997
C43   C     C_R   0.885917 0.498293 0.479419 -0.027837
C44   C     C_1   0.966428 0.497086 0.475856 0.058069
Cu1   Cu    Cu3+1 0.499980 0.580420 0.499990 1.023295
Cu2   Cu    Cu3+1 0.499980 0.419580 0.499990 1.038160
H1    H     H_    0.558496 0.616465 0.112441 0.158783
H2    H     H_    0.407090 0.139835 0.370286 0.135844
H3    H     H_    0.467360 0.628217 0.888814 0.141986
H4    H     H_    0.380642 0.523876 0.917046 0.131101
H5    H     H_    0.621161 0.488105 0.100744 0.169936
H6    H     H_    0.573622 0.394019 0.121305 0.198175
H7    H     H_    0.882067 0.601313 0.602109 0.185375
H8    H     H_    0.873209 0.396222 0.356308 0.188744
H9    H     H_    0.653017 0.718460 0.921917 0.205296
H10   H     H_    0.563724 0.727766 0.995297 0.146175
H11   H     H_    0.587116 0.730387 0.712295 0.234461
H12   H     H_    0.433542 0.391216 0.087925 0.199091
H13   H     H_    0.500798 0.750624 0.795117 0.151981
H14   H     H_    0.561903 0.870516 0.898559 0.183021
H15   H     H_    0.562793 0.879587 0.732481 0.177406
H16   H     H_    0.647762 0.851133 0.812285 0.202387
H17   H     H_    0.334118 0.364901 0.720780 0.182711
H18   H     H_    0.333778 0.472036 0.746444 0.095028
H19   H     H_    0.259969 0.343979 0.919745 0.215244
H20   H     H_    0.252731 0.453112 0.933816 0.215223
H21   H     H_    0.186479 0.461246 0.732522 0.158966
H22   H     H_    0.138063 0.394050 0.837948 0.194829
H23   H     H_    0.261027 0.628249 0.527277 0.166850
H24   H     H_    0.193927 0.351753 0.714134 0.180432
H25   H     H_    0.264254 0.370392 0.451447 0.165230
H26   H     H_    0.599824 0.709239 0.392682 0.160249
H27   H     H_    0.591350 0.290477 0.625131 0.196786
H28   H     H_    0.398879 0.710453 0.604294 0.131749
H29   H     H_    0.409110 0.290285 0.373187 0.149106
H30   H     H_    0.396249 0.860693 0.601545 0.133481
N1    N     N_R   0.499970 0.701220 0.499970 -0.246799
N2    N     N_R   0.499970 0.298780 0.499970 -0.251020
O1    O     O_R   0.391240 0.567930 0.499990 -0.495458
O2    O     O_3   0.395479 0.399516 0.872074 -0.525345
O3    O     O_R   0.391240 0.432070 0.499990 -0.527795
O4    O     O_R   0.499970 0.567910 0.317690 -0.457095
O5    O     O_R   0.499970 0.432090 0.317690 -0.498247
O6    O     O_R   0.608730 0.567880 0.500000 -0.487843
O7    O     O_R   0.608730 0.432120 0.500000 -0.467512
O8    O     O_R   0.500000 0.567910 0.682300 -0.506827
O9    O     O_R   0.500000 0.432090 0.682300 -0.450012
O10   O     O_3   0.584172 0.620737 0.889309 -0.510405

loop_
_geom_bond_atom_site_label_1
_geom_bond_atom_site_label_2
_ccdc_geom_bond_type
Cu2   O7    S    
Cu1   Cu2   S    
Br4   C26   S    
C13   H26   S    
Br5   C27   S    
C17   C19   A    
C38   H20   S    
Br9   C41   S    
C33   O10   S    
C28   O10   S    
C25   O8    A    
C34   H8    S    
C14   H27   S    
C28   C32   S    
C16   H29   S    
Cu2   N2    S    
Br6   C12   S    
C27   H12   S    
C15   N1    A    
C30   H6    S    
C39   H22   S    
C25   C32   S    
C34   C43   A    
Cu2   O3    S    
C1    C7    S    
C37   C38   S    
C6    C7    A    
C35   H11   S    
C15   H28   S    
C40   C42   A    
C29   O2    S    
C36   H16   S    
C33   H9    S    
C13   N1    A    
C27   C31   S    
C38   H19   S    
C26   C31   S    
Cu2   O9    S    
Cu1   O6    S    
Br2   C4    S    
C29   C32   S    
C10   C19   A    
C23   C43   A    
Cu2   O5    S    
C27   C29   S    
C5    H23   S    
C3    C9    A    
C35   H13   S    
C41   C42   A    
C24   O7    A    
C37   H17   S    
C26   H1    S    
C8    C31   S    
C23   C40   A    
C35   C36   S    
C30   H5    S    
C17   H30   S    
Cu1   O4    S    
C33   C35   S    
C1    O1    A    
C21   C22   T    
C10   C13   A    
C23   H7    S    
C12   C30   S    
C14   N2    A    
C36   H15   S    
C34   C41   A    
C38   C39   S    
C3    C5    A    
C37   O2    S    
C4    C6    A    
Br3   C11   S    
Br8   C40   S    
C5    C7    A    
C30   C31   S    
Br1   C10   S    
C16   C18   A    
C4    C9    A    
C24   O6    A    
C37   H18   S    
Cu1   O8    S    
Br10  C3    S    
C43   C44   S    
C18   H2    S    
C15   C17   A    
Br7   C12   S    
C11   C20   A    
C24   C42   S    
C39   H24   S    
C8    O4    A    
C26   C28   S    
C19   C21   S    
C20   C22   S    
C12   C32   S    
C33   H10   S    
C29   H4    S    
C2    C9    S    
C18   C20   A    
C6    H25   S    
C39   H21   S    
Cu1   N1    S    
Cu1   O1    S    
C36   H14   S    
C28   H3    S    
C1    O3    A    
C16   N2    A    
C11   C14   A    
C8    O5    A    
C25   O9    A    
C2    C44   T    
