data_mof_unit_21221.cif
_audit_creation_date              2012-12-10T16:37:28-0500
_audit_creation_method            fapswitch 2.2
_symmetry_space_group_name_H-M    P1
_symmetry_Int_Tables_number       1
_space_group_crystal_system       triclinic
_cell_length_a                    16.974293
_cell_length_b                    16.949457
_cell_length_c                    16.705376
_cell_angle_alpha                 64.838658
_cell_angle_beta                  66.074475
_cell_angle_gamma                 66.216365
_cell_volume                      3818.443821

loop_
_atom_site_label
_atom_site_type_symbol
_atom_type_description
_atom_site_fract_x
_atom_site_fract_y
_atom_site_fract_z
_atom_type_partial_charge
C1    C     C_R   0.411507 0.112001 0.616299 0.384074
C2    C     C_R   0.412910 0.643612 0.075348 0.395275
C3    C     C_R   0.974015 0.588712 0.321290 0.401893
C4    C     C_R   0.025984 0.411289 0.678711 0.401893
C5    C     C_R   0.961723 0.179500 0.437883 0.925288
C6    C     C_R   0.038277 0.820500 0.562117 0.925289
C7    C     C_R   0.175074 0.429998 0.982650 0.925311
C8    C     C_R   0.824926 0.570002 0.017350 0.925311
C9    C     C_R   0.438271 0.960803 0.179867 0.915612
C10   C     C_R   0.561729 0.039197 0.820133 0.915611
C11   C     C_R   0.564280 0.821522 0.031901 0.912488
C12   C     C_R   0.588493 0.887999 0.383701 0.384074
C13   C     C_R   0.435720 0.178478 0.968099 0.912487
C14   C     C_R   0.039746 0.561466 0.820462 0.918759
C15   C     C_R   0.960254 0.438534 0.179538 0.918760
C16   C     C_R   0.824743 0.016695 0.570984 0.933695
C17   C     C_R   0.175257 0.983305 0.429016 0.933696
C18   C     C_R   0.454395 0.110378 0.674090 0.331724
C19   C     C_R   0.545605 0.889622 0.325910 0.331723
C20   C     C_R   0.054893 0.712672 0.445127 0.361021
C21   C     C_R   0.945106 0.287328 0.554873 0.361021
C22   C     C_R   0.735856 0.503583 0.942164 0.339598
C23   C     C_R   0.012210 0.681394 0.413714 0.400742
C24   C     C_R   0.264144 0.496417 0.057836 0.339599
C25   C     C_R   0.267383 0.057861 0.491070 0.337595
C26   C     C_R   0.732617 0.942139 0.508930 0.337595
C27   C     C_R   0.543971 0.289690 0.958869 0.321495
C28   C     C_R   0.456030 0.710310 0.041128 0.321495
C29   C     C_R   0.932181 0.554483 0.292098 0.357427
C30   C     C_R   0.067817 0.445517 0.707902 0.357428
C31   C     C_R   0.545975 0.010201 0.547789 -0.054657
C32   C     C_R   0.454025 0.989799 0.452211 -0.054657
C33   C     C_R   0.028461 0.540451 0.539320 -0.048303
C34   C     C_R   0.987788 0.318606 0.586286 0.400742
C35   C     C_R   0.971538 0.459549 0.460680 -0.048303
C36   C     C_R   0.548659 0.548922 0.002480 -0.051417
C37   C     C_R   0.451342 0.451079 0.997518 -0.051418
C38   C     C_R   0.594728 0.966415 0.478624 -0.030750
C39   C     C_R   0.405272 0.033585 0.521375 -0.030750
C40   C     C_R   0.015958 0.452143 0.588271 -0.022759
C41   C     C_R   0.984041 0.547857 0.411729 -0.022759
C42   C     C_R   0.453357 0.574014 0.034864 0.008889
C43   C     C_R   0.546644 0.425987 0.965133 0.008887
C44   C     C_R   0.547831 0.950416 0.435167 -0.031949
C45   C     C_R   0.691893 0.447483 0.945856 0.368406
C46   C     C_R   0.452169 0.049585 0.564832 -0.031948
C47   C     C_R   0.403572 0.526903 0.029935 -0.043937
C48   C     C_R   0.596428 0.473098 0.970063 -0.043936
C49   C     C_R   0.991001 0.410085 0.546949 -0.025208
C50   C     C_R   0.008998 0.589915 0.453051 -0.025208
C51   C     C_R   0.545201 0.060535 0.666804 -0.039873
C52   C     C_R   0.454798 0.939465 0.333196 -0.039874
C53   C     C_R   0.058167 0.673433 0.537350 -0.018222
C54   C     C_R   0.941832 0.326567 0.462650 -0.018222
C55   C     C_R   0.689851 0.569096 0.988140 -0.055292
C56   C     C_R   0.308108 0.552516 0.054144 0.368401
C57   C     C_R   0.310149 0.430904 0.011859 -0.055292
C58   C     C_R   0.313100 0.008729 0.427928 -0.054333
C59   C     C_R   0.686900 0.991271 0.572072 -0.054333
C60   C     C_R   0.450765 0.320773 0.969181 -0.022335
C61   C     C_R   0.549235 0.679227 0.030817 -0.022329
C62   C     C_R   0.936038 0.461735 0.329672 -0.023344
C63   C     C_R   0.063961 0.538265 0.670328 -0.023344
C64   C     C_R   0.594487 0.057261 0.720600 -0.051990
C65   C     C_R   0.405512 0.942739 0.279400 -0.051990
C66   C     C_R   0.063032 0.721093 0.588647 -0.060991
C67   C     C_R   0.310635 0.055451 0.547576 0.388252
C68   C     C_R   0.936967 0.278907 0.411353 -0.060991
C69   C     C_R   0.733097 0.609300 0.012327 -0.078292
C70   C     C_R   0.266904 0.390700 0.987672 -0.078293
C71   C     C_R   0.268517 0.983441 0.389972 -0.079375
C72   C     C_R   0.731483 0.016559 0.610028 -0.079375
C73   C     C_R   0.401413 0.272704 0.963809 -0.075707
C74   C     C_R   0.598587 0.727296 0.036190 -0.075707
C75   C     C_R   0.933641 0.411188 0.280355 -0.058982
C76   C     C_R   0.066359 0.588812 0.719645 -0.058982
C77   C     C_R   0.684748 0.047905 0.684325 -0.250816
C78   C     C_R   0.689365 0.944549 0.452424 0.388252
C79   C     C_R   0.315251 0.952096 0.315675 -0.250817
C80   C     C_R   0.073600 0.675858 0.675462 -0.273933
C81   C     C_R   0.926399 0.324142 0.324538 -0.273932
C82   C     C_R   0.686620 0.687132 0.036365 -0.232338
C83   C     C_R   0.313380 0.312868 0.963634 -0.232338
C84   C     C_R   0.592537 0.021031 0.595123 -0.035651
C85   C     C_R   0.407462 0.978969 0.404877 -0.035651
C86   C     C_R   0.050299 0.584003 0.582219 -0.030792
C87   C     C_R   0.949700 0.415997 0.417781 -0.030792
C88   C     C_R   0.596031 0.597322 0.009670 -0.014355
C89   C     C_R   0.587090 0.356388 0.924650 0.395272
C90   C     C_R   0.403969 0.402678 0.990328 -0.014356
Cl1   Cl    Cl    0.322342 0.209992 0.588152 -0.383468
Cl2   Cl    Cl    0.352485 0.617599 0.193085 -0.446270
Cl3   Cl    Cl    0.042538 0.655793 0.229998 -0.329135
Cl4   Cl    Cl    0.957460 0.344207 0.770002 -0.329134
Cl5   Cl    Cl    0.399983 0.187007 0.739164 -0.474347
Cl6   Cl    Cl    0.600017 0.812993 0.260836 -0.474346
Cl7   Cl    Cl    0.126568 0.779367 0.359116 -0.447046
Cl8   Cl    Cl    0.873431 0.220633 0.640883 -0.447046
Cl9   Cl    Cl    0.835722 0.513563 0.852484 -0.511611
Cl10  Cl    Cl    0.164278 0.486436 0.147516 -0.511609
Cl11  Cl    Cl    0.168460 0.146226 0.479068 -0.518883
Cl12  Cl    Cl    0.677657 0.790007 0.411849 -0.383469
Cl13  Cl    Cl    0.831540 0.853775 0.520932 -0.518884
Cl14  Cl    Cl    0.578048 0.204712 0.055648 -0.484808
Cl15  Cl    Cl    0.421955 0.795288 0.944349 -0.484814
Cl16  Cl    Cl    0.858926 0.634449 0.224546 -0.423353
Cl17  Cl    Cl    0.141073 0.365551 0.775454 -0.423352
Cl18  Cl    Cl    0.935669 0.768385 0.353687 -0.321328
Cl19  Cl    Cl    0.064330 0.231616 0.646313 -0.321328
Cl20  Cl    Cl    0.760991 0.338611 0.938433 -0.369557
Cl21  Cl    Cl    0.239008 0.661386 0.061575 -0.369558
Cl22  Cl    Cl    0.246154 0.047454 0.663177 -0.387067
Cl23  Cl    Cl    0.753846 0.952546 0.336823 -0.387066
Cl24  Cl    Cl    0.647524 0.382396 0.806916 -0.446263
H1    H     H_    0.720100 0.058783 0.718543 0.213566
H2    H     H_    0.279900 0.941217 0.281457 0.213566
H3    H     H_    0.075942 0.712831 0.713513 0.191731
H4    H     H_    0.924058 0.287168 0.286486 0.191731
H5    H     H_    0.720872 0.719778 0.050325 0.222386
H6    H     H_    0.279128 0.280222 0.949674 0.222386
O1    O     O_R   0.982940 0.138950 0.510160 -0.552373
O2    O     O_R   0.982940 0.510160 0.138950 -0.550372
O3    O     O_R   0.861050 0.017060 0.489840 -0.592320
O4    O     O_R   0.138950 0.982940 0.510160 -0.592320
O5    O     O_R   0.867700 0.025880 0.612340 -0.613609
O6    O     O_R   0.132300 0.974120 0.387660 -0.613609
O7    O     O_R   0.025880 0.612340 0.867700 -0.636982
O8    O     O_R   0.974120 0.387660 0.132300 -0.636981
O9    O     O_R   0.612340 0.867700 0.025880 -0.603967
O10   O     O_R   0.387660 0.132300 0.974120 -0.603967
O11   O     O_R   0.387660 0.974120 0.132300 -0.630192
O12   O     O_R   0.017060 0.861050 0.489840 -0.552373
O13   O     O_R   0.612340 0.025880 0.867700 -0.630192
O14   O     O_R   0.132300 0.387660 0.974120 -0.605160
O15   O     O_R   0.867700 0.612340 0.025880 -0.605160
O16   O     O_R   0.974120 0.132300 0.387660 -0.637380
O17   O     O_R   0.025880 0.867700 0.612340 -0.637380
O18   O     O_R   0.138950 0.510160 0.982940 -0.595137
O19   O     O_R   0.861050 0.489840 0.017060 -0.595136
O20   O     O_R   0.510160 0.982940 0.138950 -0.568848
O21   O     O_R   0.489840 0.017060 0.861050 -0.568848
O22   O     O_R   0.489840 0.861050 0.017060 -0.587255
O23   O     O_R   0.510160 0.138950 0.982940 -0.587254
O24   O     O_R   0.017060 0.489840 0.861050 -0.550372
Zn1   Zn    Zn3+2 0.004880 0.004880 0.583590 1.159198
Zn2   Zn    Zn3+2 0.995120 0.995120 0.416410 1.159198
Zn3   Zn    Zn3+2 0.004880 0.583590 0.004880 1.160415
Zn4   Zn    Zn3+2 0.995120 0.416410 0.995120 1.160417
Zn5   Zn    Zn3+2 0.583590 0.004880 0.004880 1.161229
Zn6   Zn    Zn3+2 0.416410 0.995120 0.995120 1.161228

loop_
_geom_bond_atom_site_label_1
_geom_bond_atom_site_label_2
_ccdc_geom_bond_type
C5    O16   A    
C15   C75   S    
C65   C79   A    
C15   O2    A    
C30   Cl17  S    
C64   C77   A    
C27   Cl14  S    
C36   C42   A    
C16   C72   S    
C10   O13   A    
O24   Zn4   S    
C7    C70   S    
C71   C79   A    
O6    Zn2   S    
C36   C88   A    
C12   Cl12  S    
C1    C18   A    
C26   C78   A    
C37   C90   A    
C8    O19   A    
C68   C81   A    
O17   Zn1   S    
C52   C85   A    
C16   O3    A    
C27   C60   A    
C54   C87   A    
C9    O20   A    
C17   O6    A    
C54   C68   A    
C63   C76   A    
C23   Cl18  S    
C77   H1    S    
C40   C49   A    
C5    O1    A    
C60   C73   A    
C32   C39   A    
C55   C88   A    
C3    C29   A    
C69   C82   A    
C29   C62   A    
C35   C87   A    
C19   C52   A    
O10   Zn6   S    
C4    C40   A    
C24   C57   A    
C31   C46   A    
C25   C67   A    
C35   C49   A    
C13   O10   A    
O3    Zn2   S    
C36   C48   A    
C53   C86   A    
C57   C70   A    
C37   C47   A    
C43   C48   A    
O18   Zn3   S    
C56   Cl21  S    
C59   C72   A    
C28   C61   A    
C1    Cl1   S    
C79   H2    S    
C8    O15   A    
C18   Cl5   S    
C82   H5    S    
C74   C82   A    
C5    C68   S    
C35   C41   A    
C11   O9    A    
O21   Zn6   S    
C9    O11   A    
C32   C44   A    
C14   O24   A    
O19   Zn4   S    
C33   C40   A    
C57   C90   A    
C20   Cl7   S    
O13   Zn5   S    
C59   C84   A    
C7    O14   A    
C6    O12   A    
O4    Zn1   S    
C45   Cl20  S    
O8    Zn4   S    
C23   C50   A    
C21   C34   A    
C38   C78   A    
C33   C50   A    
C81   H4    S    
C4    C30   A    
C14   O7    A    
C10   O21   A    
C14   C76   S    
C83   H6    S    
C37   C43   A    
C33   C86   A    
C38   C44   A    
C72   C77   A    
C70   C83   A    
C61   C88   A    
C26   Cl13  S    
C17   O4    A    
C20   C23   A    
O23   Zn5   S    
C28   Cl15  S    
C8    C69   S    
C3    Cl3   S    
C43   C89   A    
O2    Zn3   S    
C2    Cl2   S    
C53   C66   A    
C55   C69   A    
C39   C46   A    
C4    Cl4   S    
C16   O5    A    
C13   C73   S    
C17   C71   S    
O15   Zn3   S    
C15   O8    A    
C63   C86   A    
C61   C74   A    
O1    Zn1   S    
C29   Cl16  S    
C78   Cl23  S    
C25   C58   A    
C62   C75   A    
C58   C85   A    
C41   C50   A    
C66   C80   A    
C26   C59   A    
C45   C48   A    
C80   H3    S    
C3    C41   A    
C34   C49   A    
C22   Cl9   S    
C24   Cl10  S    
C39   C67   A    
C75   C81   A    
C51   C64   A    
C76   C80   A    
C20   C53   A    
C11   C74   S    
C7    O18   A    
C22   C55   A    
C60   C90   A    
C18   C51   A    
C24   C56   A    
O14   Zn4   S    
C62   C87   A    
C10   C64   S    
C31   C38   A    
O12   Zn2   S    
O22   Zn6   S    
C6    O17   A    
C89   Cl24  S    
C12   C44   A    
O5    Zn1   S    
C21   Cl8   S    
C25   Cl11  S    
C21   C54   A    
C2    C42   A    
C32   C85   A    
C51   C84   A    
C12   C19   A    
C27   C89   A    
C42   C47   A    
C13   O23   A    
C1    C46   A    
C11   O22   A    
C9    C65   S    
C58   C71   A    
C31   C84   A    
C19   Cl6   S    
C67   Cl22  S    
C6    C66   S    
C22   C45   A    
C34   Cl19  S    
O11   Zn6   S    
C2    C28   A    
O9    Zn5   S    
C30   C63   A    
O20   Zn5   S    
C73   C83   A    
O16   Zn2   S    
C52   C65   A    
O7    Zn3   S    
C47   C56   A    
