data_mof_unit_30126.cif
_audit_creation_date              2012-12-11T14:54:24-0500
_audit_creation_method            fapswitch 2.2
_symmetry_space_group_name_H-M    P1
_symmetry_Int_Tables_number       1
_space_group_crystal_system       triclinic
_cell_length_a                    19.0221
_cell_length_b                    10.902313
_cell_length_c                    18.882252
_cell_angle_alpha                 90.018355
_cell_angle_beta                  90.373395
_cell_angle_gamma                 89.731077
_cell_volume                      3915.76726631

loop_
_atom_site_label
_atom_site_type_symbol
_atom_type_description
_atom_site_fract_x
_atom_site_fract_y
_atom_site_fract_z
_atom_type_partial_charge
C1    C     C_R   0.730220 0.378824 0.646428 0.523291
C2    C     C_R   0.270562 0.375320 0.354534 0.525054
C3    C     C_R   0.229779 0.877947 0.646049 0.529731
C4    C     C_R   0.769665 0.877874 0.353545 0.524130
C5    C     C_3   0.481889 0.380267 0.463359 -0.048006
C6    C     C_3   0.504726 0.379103 0.541171 -0.004682
C7    C     C_3   0.970286 0.872569 0.467776 -0.034864
C8    C     C_3   0.994762 0.872510 0.545018 -0.000169
C9    C     C_R   0.757925 0.860721 0.549721 0.090229
C10   C     C_R   0.303351 0.864200 0.463640 0.107108
C11   C     C_R   0.268768 0.327247 0.549501 0.061281
C12   C     C_R   0.804647 0.367375 0.464467 0.094777
C13   C     C_R   0.764277 0.828459 0.478521 -0.152179
C14   C     C_R   0.299629 0.855963 0.537443 -0.154751
C15   C     C_R   0.272665 0.306528 0.476632 -0.143751
C16   C     C_R   0.801303 0.359331 0.538332 -0.162656
C17   C     C_R   0.751076 0.914713 0.424920 -0.006398
C18   C     C_R   0.246530 0.918052 0.574682 -0.018305
C19   C     C_R   0.255959 0.400513 0.428170 -0.009615
C20   C     C_R   0.748464 0.421615 0.575784 -0.020395
C21   C     C_R   0.729542 0.035159 0.442133 0.213714
C22   C     C_R   0.198481 0.994588 0.537648 0.200705
C23   C     C_R   0.234461 0.516993 0.452146 0.193739
C24   C     C_R   0.701376 0.500159 0.539091 0.196967
C25   C     C_R   0.722645 0.066490 0.513348 -0.111058
C26   C     C_R   0.199543 0.995599 0.465321 -0.101667
C27   C     C_R   0.230449 0.536532 0.524676 -0.085943
C28   C     C_R   0.701060 0.499445 0.466561 -0.084795
C29   C     C_R   0.735912 0.980113 0.566719 0.018334
C30   C     C_R   0.251960 0.934133 0.427300 0.030521
C31   C     C_R   0.246381 0.442179 0.572810 0.025481
C32   C     C_R   0.752856 0.436711 0.428183 0.032634
C33   C     C_R   0.465252 0.071572 0.951057 0.221810
C34   C     C_R   0.455423 0.063057 0.024230 0.199752
C35   C     C_R   0.965248 0.571572 0.951055 0.221901
C36   C     C_R   0.955416 0.563059 0.024228 0.199738
C37   C     C_R   0.477998 0.160301 0.068656 0.030248
C38   C     C_R   0.500557 0.172737 0.923226 0.046724
C39   C     C_R   0.977992 0.660302 0.068654 0.030288
C40   C     C_R   0.000555 0.672736 0.923225 0.047031
C41   C     C_R   0.507756 0.265814 0.040308 0.070466
C42   C     C_R   0.518055 0.273766 0.967740 0.056099
C43   C     C_R   0.007751 0.765815 0.040306 0.070485
C44   C     C_R   0.018052 0.773766 0.967738 0.056162
C45   C     C_R   0.564909 0.150051 0.639205 0.574454
C46   C     C_R   0.470108 0.154563 0.352726 0.560149
C47   C     C_R   0.065141 0.650094 0.639273 0.591492
C48   C     C_R   0.969777 0.654648 0.352909 0.560296
C49   C     C_R   0.812543 0.902106 0.956587 0.041871
C50   C     C_R   0.209850 0.021222 0.024673 0.030581
C51   C     C_R   0.312545 0.402097 0.956584 0.042347
C52   C     C_R   0.709851 0.521219 0.024675 0.030354
C53   C     C_R   0.818897 0.889118 0.028796 -0.124368
C54   C     C_R   0.214983 0.008241 0.953046 -0.142323
C55   C     C_R   0.318899 0.389109 0.028792 -0.124587
C56   C     C_R   0.714983 0.508235 0.953048 -0.142117
C57   C     C_R   0.760465 0.902918 0.073097 0.008759
C58   C     C_R   0.249603 0.908696 0.924488 0.015062
C59   C     C_R   0.260467 0.402907 0.073094 0.008230
C60   C     C_R   0.749598 0.408683 0.924492 0.014890
C61   C     C_R   0.693495 0.923128 0.045526 0.254332
C62   C     C_R   0.286426 0.824127 0.968364 0.284242
C63   C     C_R   0.193496 0.423111 0.045523 0.253954
C64   C     C_R   0.786413 0.324107 0.968369 0.284023
C65   C     C_R   0.685498 0.929681 0.971853 0.202108
C66   C     C_R   0.283042 0.837338 0.042315 0.218841
C67   C     C_R   0.185499 0.429664 0.971850 0.202864
C68   C     C_R   0.783030 0.337321 0.042321 0.218862
C69   C     C_R   0.746065 0.927294 0.927448 0.016981
C70   C     C_R   0.247454 0.939647 0.070661 0.010708
C71   C     C_R   0.246066 0.427285 0.927446 0.018571
C72   C     C_R   0.747450 0.439641 0.070664 0.010599
C73   C     C_R   0.728179 0.018044 0.639943 0.543919
C74   C     C_R   0.259284 0.970556 0.353475 0.553869
C75   C     C_R   0.241053 0.471081 0.647039 0.556137
C76   C     C_R   0.759477 0.471253 0.353833 0.564000
C77   C     C_R   0.730158 0.376813 0.852647 0.566954
C78   C     C_R   0.271406 0.376811 0.147027 0.587253
C79   C     C_R   0.230160 0.876818 0.852645 0.565469
C80   C     C_R   0.771403 0.876818 0.147030 0.585860
C81   C     C_R   0.531960 0.158635 0.853227 0.616365
C82   C     C_R   0.461742 0.155463 0.143598 0.610683
C83   C     C_R   0.031960 0.658635 0.853227 0.616105
C84   C     C_R   0.961737 0.655463 0.143596 0.609800
C85   C     C_R   0.740304 0.972201 0.855041 0.578529
C86   C     C_R   0.258675 0.974907 0.144291 0.545259
C87   C     C_R   0.240304 0.472203 0.855043 0.571196
C88   C     C_R   0.758674 0.474904 0.144293 0.546239
C89   C     C_R   0.514996 0.158898 0.416671 0.034117
C90   C     C_R   0.554105 0.153590 0.561786 0.003363
C91   C     C_R   0.013960 0.660074 0.417168 0.034690
C92   C     C_R   0.054149 0.654465 0.561946 0.018932
C93   C     C_R   0.525789 0.267310 0.454620 0.023267
C94   C     C_R   0.546242 0.264910 0.525216 0.004070
C95   C     C_R   0.020598 0.768222 0.456285 -0.032494
C96   C     C_R   0.041671 0.765900 0.526770 0.003591
C97   C     C_R   0.556063 0.044127 0.520953 0.054316
C98   C     C_R   0.540128 0.048111 0.447647 0.105827
C99   C     C_R   0.058617 0.546256 0.520325 0.062935
C100  C     C_R   0.041909 0.550592 0.447166 0.112513
Cr1   Cr    Cr6+3 0.771950 0.169480 0.750100 1.061373
Cr2   Cr    Cr6+3 0.228050 0.169480 0.249900 1.042149
Cr3   Cr    Cr6+3 0.271950 0.669480 0.750100 1.062682
Cr4   Cr    Cr6+3 0.728050 0.669480 0.249900 1.046226
Cr5   Cr    Cr6+3 0.614930 0.323340 0.749170 1.027330
Cr6   Cr    Cr6+3 0.385070 0.323340 0.250830 1.031783
Cr7   Cr    Cr6+3 0.114930 0.823340 0.749170 1.030752
Cr8   Cr    Cr6+3 0.885070 0.823340 0.250830 1.032778
Cr9   Cr    Cr6+3 0.616590 0.010620 0.750610 1.054865
Cr10  Cr    Cr6+3 0.383410 0.010620 0.249390 1.103120
Cr11  Cr    Cr6+3 0.116590 0.510620 0.750610 1.055455
Cr12  Cr    Cr6+3 0.883410 0.510620 0.249390 1.105686
H1    H     H_    0.870225 0.867002 0.050522 0.174127
H2    H     H_    0.186130 0.071748 0.919275 0.167875
H3    H     H_    0.370228 0.366995 0.050519 0.174047
H4    H     H_    0.686134 0.571746 0.919276 0.168317
H5    H     H_    0.914263 0.847531 0.459226 0.165939
H6    H     H_    0.024520 0.955095 0.561892 0.225071
H7    H     H_    0.424746 0.366233 0.453296 0.150523
H8    H     H_    0.538098 0.457362 0.557743 0.236104
H9    H     H_    0.783134 0.737562 0.464700 0.111836
H10   H     H_    0.336402 0.796867 0.565393 0.139663
H11   H     H_    0.292100 0.219027 0.457440 0.117455
H12   H     H_    0.837793 0.299457 0.566099 0.142935
H13   H     H_    0.705831 0.158437 0.527168 0.120595
H14   H     H_    0.161442 0.054801 0.439454 0.164897
H15   H     H_    0.213817 0.625772 0.543842 0.135082
H16   H     H_    0.662213 0.557404 0.440713 0.192833
O1    O     O_R   0.787510 0.042610 0.670410 -0.499192
O2    O     O_R   0.212490 0.042610 0.329590 -0.538444
O3    O     O_R   0.287510 0.542610 0.670410 -0.520423
O4    O     O_R   0.712490 0.542610 0.329590 -0.531005
O5    O     O_R   0.556450 0.252890 0.823790 -0.526440
O6    O     O_R   0.443550 0.252890 0.176210 -0.490999
O7    O     O_R   0.056450 0.752890 0.823790 -0.527612
O8    O     O_R   0.943550 0.752890 0.176210 -0.491699
O9    O     O_R   0.545750 0.051070 0.830560 -0.446192
O10   O     O_R   0.454250 0.051070 0.169440 -0.443111
O11   O     O_R   0.045750 0.551070 0.830560 -0.446538
O12   O     O_R   0.954250 0.551070 0.169440 -0.443211
O13   O     O_R   0.681210 0.959150 0.825320 -0.495644
O14   O     O_R   0.318790 0.959150 0.174680 -0.453957
O15   O     O_R   0.181210 0.459150 0.825320 -0.499726
O16   O     O_R   0.818790 0.459150 0.174680 -0.453670
O17   O     O_3   0.667820 0.167810 0.749960 -0.311835
O18   O     O_3   0.332180 0.167810 0.250040 -0.285960
O19   O     O_3   0.167820 0.667810 0.749960 -0.296289
O20   O     O_3   0.832180 0.667810 0.250040 -0.287266
O21   O     O_R   0.765670 0.292090 0.675090 -0.528228
O22   O     O_R   0.234330 0.292090 0.324910 -0.498060
O23   O     O_R   0.265670 0.792090 0.675090 -0.515512
O24   O     O_R   0.734330 0.792090 0.324910 -0.499715
O25   O     O_R   0.670220 0.409020 0.668560 -0.506700
O26   O     O_R   0.329780 0.409020 0.331440 -0.520802
O27   O     O_R   0.170220 0.909020 0.668560 -0.506766
O28   O     O_R   0.829780 0.909020 0.331440 -0.514349
O29   O     O_R   0.556580 0.251590 0.674980 -0.465071
O30   O     O_R   0.443420 0.251590 0.325020 -0.520334
O31   O     O_R   0.056580 0.751590 0.674980 -0.467426
O32   O     O_R   0.943420 0.751590 0.325020 -0.521271
O33   O     O_R   0.545890 0.049670 0.670030 -0.472240
O34   O     O_R   0.454110 0.049670 0.329970 -0.463230
O35   O     O_R   0.045890 0.549670 0.670030 -0.473477
O36   O     O_R   0.954110 0.549670 0.329970 -0.463360
O37   O     O_R   0.681340 0.957860 0.676500 -0.499771
O38   O     O_R   0.318660 0.957860 0.323500 -0.472203
O39   O     O_R   0.181340 0.457860 0.676500 -0.506832
O40   O     O_R   0.818660 0.457860 0.323500 -0.471981
O41   O     O_R   0.787380 0.044010 0.830940 -0.479215
O42   O     O_R   0.212620 0.044010 0.169060 -0.536875
O43   O     O_R   0.287380 0.544010 0.830940 -0.482253
O44   O     O_R   0.712620 0.544010 0.169060 -0.536100
O45   O     O_R   0.765540 0.293390 0.823910 -0.420056
O46   O     O_R   0.234460 0.293390 0.176090 -0.477976
O47   O     O_R   0.265540 0.793390 0.823910 -0.419929
O48   O     O_R   0.734460 0.793390 0.176090 -0.478984
O49   O     O_R   0.670090 0.410410 0.829090 -0.557744
O50   O     O_R   0.329910 0.410410 0.170910 -0.518668
O51   O     O_R   0.170090 0.910410 0.829090 -0.559401
O52   O     O_R   0.829910 0.910410 0.170910 -0.519050
N1    N     N_3   0.569207 0.927936 0.554581 -0.584420
H17   H     H_    0.523531 0.875306 0.550967 0.237239
H18   H     H_    0.609181 0.881524 0.527949 0.239438
N2    N     N_3   0.545472 0.938354 0.405787 -0.572671
H19   H     H_    0.513010 0.870985 0.427187 0.239285
H20   H     H_    0.597436 0.907056 0.407066 0.236046
N3    N     N_3   0.073748 0.430279 0.553376 -0.584931
H21   H     H_    0.028585 0.376212 0.550421 0.239008
H22   H     H_    0.113535 0.385178 0.525758 0.237148
N4    N     N_3   0.048843 0.442006 0.404552 -0.574704
H23   H     H_    0.017993 0.372352 0.425967 0.242623
H24   H     H_    0.101379 0.413791 0.404980 0.238061
N5    N     N_3   0.874139 0.886545 0.914159 -0.631393
H25   H     H_    0.889711 0.971661 0.894585 0.271796
H26   H     H_    0.862578 0.827803 0.871918 0.243137
N6    N     N_3   0.164298 0.117918 0.047757 -0.607217
H27   H     H_    0.193968 0.182970 0.074266 0.284034
H28   H     H_    0.124796 0.082754 0.079983 0.268747
N7    N     N_3   0.374139 0.386537 0.914153 -0.631705
H29   H     H_    0.389712 0.471654 0.894581 0.271804
H30   H     H_    0.362575 0.327801 0.871909 0.241285
N8    N     N_3   0.664304 0.617924 0.047757 -0.607179
H31   H     H_    0.693977 0.682974 0.074264 0.283942
H32   H     H_    0.624799 0.582767 0.079984 0.268821
O53   O     O_3   0.637424 0.932012 0.091654 -0.677391
H33   H     H_    0.593455 0.948429 0.064971 0.372730
O54   O     O_3   0.322435 0.727139 0.937874 -0.661899
H34   H     H_    0.348054 0.679313 0.974416 0.363370
O55   O     O_3   0.137424 0.431991 0.091651 -0.677423
H35   H     H_    0.093455 0.448407 0.064967 0.372685
O56   O     O_3   0.822416 0.227110 0.937881 -0.662355
H36   H     H_    0.848032 0.179283 0.974424 0.363366
O57   O     O_3   0.618654 0.941056 0.944660 -0.710232
H37   H     H_    0.611080 0.867656 0.914564 0.339715
O58   O     O_3   0.314132 0.748992 0.084930 -0.697004
H38   H     H_    0.290713 0.748744 0.131621 0.334669
O59   O     O_3   0.118654 0.441031 0.944658 -0.709909
H39   H     H_    0.111084 0.367634 0.914558 0.339581
O60   O     O_3   0.814112 0.248970 0.084937 -0.696755
H40   H     H_    0.790695 0.248735 0.131630 0.335350
N9    N     N_3   0.511390 0.483928 0.424984 -0.618054
H41   H     H_    0.500650 0.471089 0.371132 0.259939
H42   H     H_    0.483626 0.562479 0.440279 0.225938
N10   N     N_3   0.446617 0.357309 0.589764 -0.594272
H43   H     H_    0.420018 0.278170 0.574073 0.260900
H44   H     H_    0.411545 0.431083 0.585398 0.248744
N11   N     N_3   0.990163 0.984455 0.430217 -0.625718
H45   H     H_    0.044533 0.996698 0.433249 0.245324
H46   H     H_    0.977548 0.972884 0.376696 0.264854
N12   N     N_3   0.939192 0.839976 0.594645 -0.588796
H47   H     H_    0.913862 0.760462 0.577215 0.244202
H48   H     H_    0.902356 0.911396 0.594444 0.271110
N13   N     N_3   0.778716 0.776594 0.604709 -0.607169
H49   H     H_    0.735797 0.761614 0.637522 0.258092
H50   H     H_    0.792754 0.691697 0.583185 0.218845
N14   N     N_3   0.358741 0.802567 0.426036 -0.587125
H51   H     H_    0.393110 0.758583 0.461349 0.202728
H52   H     H_    0.335856 0.733848 0.395102 0.268477
N15   N     N_3   0.293501 0.237492 0.599600 -0.634739
H53   H     H_    0.253664 0.219587 0.635746 0.234897
H54   H     H_    0.306171 0.155492 0.573969 0.229289
N16   N     N_3   0.859811 0.305398 0.426710 -0.579652
H55   H     H_    0.894802 0.262741 0.461954 0.223412
H56   H     H_    0.836830 0.235643 0.396657 0.275213
O61   O     O_3   0.713957 0.123632 0.392020 -0.712179
H57   H     H_    0.716211 0.087242 0.344076 0.332915
O62   O     O_3   0.148055 0.067476 0.569234 -0.712397
H58   H     H_    0.166230 0.096561 0.615309 0.342087
O63   O     O_3   0.216145 0.612535 0.407564 -0.718773
H59   H     H_    0.216566 0.584010 0.357826 0.331403
O64   O     O_3   0.653155 0.576435 0.571425 -0.713806
H60   H     H_    0.671341 0.599462 0.618641 0.339925
O65   O     O_3   0.439649 0.982893 0.905766 -0.675817
H61   H     H_    0.464969 0.905689 0.917346 0.338571
O66   O     O_3   0.421986 0.963163 0.053688 -0.650184
H62   H     H_    0.421209 0.893745 0.020207 0.354053
O67   O     O_3   0.939650 0.482890 0.905764 -0.675714
H63   H     H_    0.964966 0.405685 0.917349 0.338479
O68   O     O_3   0.921975 0.463169 0.053686 -0.650217
H64   H     H_    0.921186 0.393756 0.020202 0.354061
N17   N     N_3   0.530930 0.362927 0.086145 -0.589657
H65   H     H_    0.585212 0.372625 0.080243 0.247507
H66   H     H_    0.506241 0.444517 0.070490 0.264867
N18   N     N_3   0.550431 0.383054 0.942260 -0.617337
H67   H     H_    0.521593 0.419204 0.899814 0.267055
H68   H     H_    0.601363 0.360022 0.927913 0.269401
N19   N     N_3   0.030923 0.862929 0.086143 -0.590456
H69   H     H_    0.085206 0.872626 0.080242 0.247192
H70   H     H_    0.006235 0.944519 0.070486 0.265015
N20   N     N_3   0.050430 0.883053 0.942259 -0.617356
H71   H     H_    0.021593 0.919205 0.899813 0.266994
H72   H     H_    0.101362 0.860020 0.927914 0.269429

loop_
_geom_bond_atom_site_label_1
_geom_bond_atom_site_label_2
_ccdc_geom_bond_type
C2    O22   A    
Cr5   O25   S    
C88   O16   A    
C58   C62   A    
C93   C94   A    
C88   O44   A    
C55   C59   A    
N7    H30   S    
C34   C37   A    
C76   O4    A    
C41   C42   A    
C7    H5    S    
Cr1   O45   S    
C35   C36   A    
C8    C96   S    
C43   C44   A    
N10   H43   S    
C83   O11   A    
C97   C98   A    
Cr10  O34   S    
C8    H6    S    
C7    C8    S    
Cr4   O48   S    
C46   C89   S    
C47   O31   A    
O53   H33   S    
N14   H51   S    
C15   C19   A    
C48   O32   A    
C97   N1    S    
Cr1   O17   S    
O63   H59   S    
C50   C54   A    
C57   C61   A    
C15   H11   S    
C5    H7    S    
C37   C41   A    
C14   H10   S    
C87   O43   A    
C64   C68   A    
C44   N20   S    
Cr3   O3    S    
C39   C84   S    
Cr8   O8    S    
C26   H14   S    
C5    C6    S    
C30   C74   S    
C49   C53   A    
C42   N18   S    
C29   C73   S    
C11   N15   S    
Cr1   O1    S    
Cr12  O40   S    
C75   O39   A    
O66   H62   S    
C92   C96   A    
Cr7   O19   S    
N2    H19   S    
Cr8   O52   S    
C3    C18   S    
Cr9   O9    S    
O67   H63   S    
C47   C92   S    
C36   O68   S    
C6    H8    S    
C66   O58   S    
Cr10  O14   S    
Cr12  O12   S    
C1    O25   A    
Cr9   O37   S    
C9    C13   A    
Cr7   O27   S    
C52   C56   A    
C50   N6    S    
Cr7   O51   S    
Cr5   O29   S    
N15   H53   S    
C53   H1    S    
N18   H67   S    
Cr6   O26   S    
C48   C91   S    
N16   H56   S    
C64   O56   S    
Cr1   O41   S    
O65   H61   S    
C23   C27   A    
C91   C100  A    
C17   C21   A    
C5    N9    S    
N13   H49   S    
C90   C97   A    
C83   O7    A    
C51   N7    S    
C16   C20   A    
C63   C67   A    
Cr4   O44   S    
C47   O35   A    
C48   O36   A    
C11   C31   A    
N7    H29   S    
C2    O26   A    
N9    H42   S    
C49   C69   A    
O61   H57   S    
C12   C32   A    
C12   N16   S    
C89   C93   A    
C40   C83   S    
N12   H47   S    
C8    N12   S    
C63   O55   S    
Cr12  O36   S    
C59   C78   S    
C99   N3    S    
C72   C88   S    
C52   N8    S    
C75   O3    A    
C90   C94   A    
C6    N10   S    
N1    H18   S    
C25   C29   A    
C4    O24   A    
Cr9   O17   S    
Cr11  O15   S    
C59   C63   A    
N8    H31   S    
C62   C66   A    
Cr11  O11   S    
O54   H34   S    
O57   H37   S    
C12   C16   A    
C28   C32   A    
C68   O60   S    
Cr11  O35   S    
N17   H65   S    
C80   O48   A    
O55   H35   S    
C10   C14   A    
C85   O13   A    
O60   H40   S    
N17   H66   S    
C53   C57   A    
C19   C23   A    
C21   O61   S    
Cr2   O42   S    
C6    C94   S    
O59   H39   S    
N1    H17   S    
C9    N13   S    
C27   H15   S    
C36   C39   A    
C85   O41   A    
Cr12  O20   S    
C34   O66   S    
C49   N5    S    
N5    H26   S    
C82   O6    A    
C81   O9    A    
O58   H38   S    
N4    H23   S    
C65   O57   S    
N9    H41   S    
C52   C72   A    
Cr11  O19   S    
C13   H9    S    
C10   C30   A    
Cr6   O6    S    
Cr7   O31   S    
N11   H45   S    
Cr8   O28   S    
C7    N11   S    
C67   O59   S    
C68   C72   A    
Cr5   O17   S    
Cr3   O23   S    
Cr3   O47   S    
C33   C34   A    
C56   H4    S    
C45   O29   A    
N15   H54   S    
N12   H48   S    
C45   C90   S    
N13   H50   S    
C84   O12   A    
C43   N19   S    
Cr2   O2    S    
N8    H32   S    
C58   C79   S    
Cr2   O22   S    
C71   C87   S    
C4    C17   S    
Cr10  O10   S    
C73   O37   A    
C4    O28   A    
C57   C80   S    
C26   C30   A    
C11   C15   A    
C35   O67   S    
C74   O2    A    
C27   C31   A    
Cr4   O4    S    
C77   O45   A    
N20   H72   S    
C37   C82   S    
Cr11  O39   S    
C3    O27   A    
O68   H64   S    
C70   C86   S    
C33   C38   A    
C80   O52   A    
C62   O54   S    
C74   O38   A    
C69   C85   S    
C10   N14   S    
C86   O14   A    
Cr5   O5    S    
C54   C58   A    
C21   C25   A    
C84   O8    A    
C79   O47   A    
N4    H24   S    
N16   H55   S    
C2    C19   S    
C78   O50   A    
Cr7   O7    S    
C14   C18   A    
C24   O64   S    
C100  N4    S    
C24   C28   A    
Cr5   O49   S    
N6    H27   S    
C1    C20   S    
N10   H44   S    
C32   C76   S    
C5    C93   S    
N19   H69   S    
C51   C71   A    
C92   C99   A    
C81   O5    A    
Cr2   O46   S    
Cr8   O32   S    
C45   O33   A    
C9    C29   A    
O64   H60   S    
C38   C81   S    
Cr6   O18   S    
C7    C95   S    
C66   C70   A    
C3    O23   A    
C41   N17   S    
N2    H20   S    
C99   C100  A    
C13   C17   A    
C89   C98   A    
C60   C64   A    
C60   C77   S    
Cr4   O24   S    
C18   C22   A    
C35   C40   A    
C16   H12   S    
Cr4   O20   S    
C23   O63   S    
N11   H46   S    
Cr9   O33   S    
Cr2   O18   S    
Cr6   O30   S    
Cr10  O38   S    
Cr3   O43   S    
Cr12  O16   S    
C22   O62   S    
C55   H3    S    
C86   O42   A    
C73   O1    A    
C65   C69   A    
C54   H2    S    
Cr1   O21   S    
N14   H52   S    
C82   O10   A    
C76   O40   A    
C67   C71   A    
C98   N2    S    
C25   H13   S    
C20   C24   A    
C77   O49   A    
C50   C70   A    
N3    H22   S    
N6    H28   S    
C91   C95   A    
O56   H36   S    
C38   C42   A    
C61   C65   A    
C40   C44   A    
C79   O51   A    
C56   C60   A    
N3    H21   S    
N18   H68   S    
N5    H25   S    
C22   C26   A    
C39   C43   A    
C33   O65   S    
C51   C55   A    
C78   O46   A    
N20   H71   S    
N19   H70   S    
C1    O21   A    
Cr9   O13   S    
C31   C75   S    
C87   O15   A    
Cr10  O18   S    
C46   O34   A    
Cr6   O50   S    
C95   C96   A    
C28   H16   S    
O62   H58   S    
C61   O53   S    
Cr3   O19   S    
Cr8   O20   S    
C46   O30   A    
