data_mof_unit_60365.cif
_audit_creation_date              2012-12-10T17:01:23-0500
_audit_creation_method            fapswitch 2.2
_symmetry_space_group_name_H-M    P1
_symmetry_Int_Tables_number       1
_space_group_crystal_system       triclinic
_cell_length_a                    20.084576
_cell_length_b                    22.564118
_cell_length_c                    15.090472
_cell_angle_alpha                 89.842405
_cell_angle_beta                  90.577293
_cell_angle_gamma                 89.962003
_cell_volume                      6838.48758051

loop_
_atom_site_label
_atom_site_type_symbol
_atom_type_description
_atom_site_fract_x
_atom_site_fract_y
_atom_site_fract_z
_atom_type_partial_charge
C1    C     C_R   0.373098 0.885576 0.484772 0.796729
C2    C     C_R   0.373038 0.114348 0.484747 0.798325
C3    C     C_R   0.873099 0.385576 0.484772 0.796729
C4    C     C_R   0.873038 0.614348 0.484747 0.798328
C5    C     C_R   0.735707 0.757309 0.453154 0.115188
C6    C     C_R   0.737358 0.241720 0.452609 0.115051
C7    C     C_R   0.235713 0.257313 0.453152 0.115184
C8    C     C_R   0.237358 0.741720 0.452609 0.115051
C9    C     C_R   0.266668 0.246047 0.536539 0.145552
C10   C     C_R   0.266228 0.754159 0.536819 0.147394
C11   C     C_R   0.766671 0.746050 0.536537 0.145549
C12   C     C_R   0.766228 0.254159 0.536819 0.147394
C13   C     C_R   0.311346 0.199154 0.546102 -0.252283
C14   C     C_R   0.310461 0.801309 0.546563 -0.253966
C15   C     C_R   0.811352 0.699158 0.546099 -0.252285
C16   C     C_R   0.810461 0.301309 0.546563 -0.253966
C17   C     C_R   0.292370 0.171535 0.392906 -0.194411
C18   C     C_R   0.294863 0.827047 0.391794 -0.196755
C19   C     C_R   0.792360 0.671528 0.392912 -0.194411
C20   C     C_R   0.794863 0.327047 0.391795 -0.196756
C21   C     C_R   0.248823 0.219038 0.381913 -0.224874
C22   C     C_R   0.251943 0.779184 0.380634 -0.225787
C23   C     C_R   0.748810 0.719029 0.381919 -0.224875
C24   C     C_R   0.751943 0.279184 0.380635 -0.225787
C25   C     C_R   0.519413 0.004880 0.163969 -0.016317
C26   C     C_R   0.019413 0.504880 0.163969 -0.016319
C27   C     C_R   0.478509 0.998619 0.834883 0.008858
C28   C     C_R   0.978509 0.498619 0.834883 0.008859
C29   C     C_R   0.422146 0.961953 0.964821 -0.218655
C30   C     C_R   0.922144 0.461956 0.964821 -0.218655
C31   C     C_R   0.426320 0.966720 0.873115 -0.197959
C32   C     C_R   0.926319 0.466722 0.873115 -0.197960
C33   C     C_R   0.527217 0.025363 0.888015 -0.280832
C34   C     C_R   0.027218 0.525361 0.888015 -0.280831
C35   C     C_R   0.627130 0.113729 0.514995 0.827050
C36   C     C_R   0.627120 0.886242 0.515106 0.830753
C37   C     C_R   0.127130 0.613729 0.514995 0.827050
C38   C     C_R   0.127120 0.386242 0.515106 0.830747
C39   C     C_R   0.524870 0.018886 0.979978 0.185806
C40   C     C_R   0.024871 0.518884 0.979978 0.185806
C41   C     C_R   0.471459 0.987467 0.018659 0.178379
C42   C     C_R   0.971458 0.487467 0.018659 0.178378
C43   C     C_R   0.468648 0.981458 0.110488 -0.277479
C44   C     C_R   0.968647 0.481460 0.110488 -0.277481
C45   C     C_R   0.573213 0.034662 0.125430 -0.198797
C46   C     C_R   0.073215 0.534659 0.125430 -0.198796
C47   C     C_R   0.575588 0.042194 0.033832 -0.224373
C48   C     C_R   0.075591 0.542191 0.033832 -0.224374
C49   C     C_R   0.514342 0.000523 0.260116 0.805624
C50   C     C_R   0.014342 0.500523 0.260116 0.805623
C51   C     C_R   0.484940 0.999819 0.739300 0.787013
C52   C     C_R   0.984940 0.499819 0.739300 0.787013
C53   C     C_R   0.324337 0.161920 0.474589 -0.016122
C54   C     C_R   0.324845 0.837761 0.474378 -0.013323
C55   C     C_R   0.824335 0.661920 0.474590 -0.016128
C56   C     C_R   0.824845 0.337761 0.474378 -0.013323
C57   C     C_R   0.676554 0.839477 0.519916 -0.029009
C58   C     C_R   0.676701 0.160389 0.519879 -0.028658
C59   C     C_R   0.176554 0.339477 0.519917 -0.029018
C60   C     C_R   0.176701 0.660389 0.519879 -0.028659
C61   C     C_R   0.752083 0.781229 0.609913 -0.211424
C62   C     C_R   0.749955 0.219928 0.610797 -0.214171
C63   C     C_R   0.252072 0.281220 0.609919 -0.211426
C64   C     C_R   0.249955 0.719928 0.610797 -0.214172
C65   C     C_R   0.706405 0.827040 0.601893 -0.257030
C66   C     C_R   0.704525 0.174017 0.602580 -0.257545
C67   C     C_R   0.206396 0.327032 0.601898 -0.257024
C68   C     C_R   0.204525 0.674017 0.602580 -0.257545
C69   C     C_R   0.691179 0.805501 0.444545 0.129055
C70   C     C_R   0.693273 0.193267 0.443861 0.130414
C71   C     C_R   0.191187 0.305507 0.444541 0.129054
C72   C     C_R   0.193273 0.693267 0.443861 0.130414
H1    H     H_    0.335482 0.191158 0.609665 0.155762
H2    H     H_    0.333095 0.810178 0.610750 0.152056
H3    H     H_    0.835494 0.691168 0.609658 0.155768
H4    H     H_    0.833095 0.310178 0.610750 0.152057
H5    H     H_    0.617025 0.065981 0.005171 0.140701
H6    H     H_    0.117029 0.565976 0.005170 0.140701
H7    H     H_    0.388892 0.945560 0.831816 0.140751
H8    H     H_    0.888889 0.445563 0.831816 0.140750
H9    H     H_    0.568111 0.048983 0.857544 0.134547
H10   H     H_    0.068113 0.548980 0.857544 0.134545
H11   H     H_    0.302094 0.142975 0.336908 0.162280
H12   H     H_    0.305746 0.854989 0.335275 0.157621
H13   H     H_    0.802077 0.642964 0.336917 0.162285
H14   H     H_    0.805745 0.354990 0.335275 0.157622
H15   H     H_    0.275150 0.272632 0.673916 0.149957
H16   H     H_    0.271425 0.729407 0.675401 0.147795
H17   H     H_    0.775169 0.772646 0.673908 0.149958
H18   H     H_    0.771426 0.229406 0.675401 0.147795
H19   H     H_    0.725324 0.724777 0.317707 0.148727
H20   H     H_    0.730040 0.272549 0.315701 0.147134
H21   H     H_    0.225344 0.224791 0.317697 0.148726
H22   H     H_    0.230041 0.772548 0.315700 0.147134
H23   H     H_    0.694508 0.853230 0.659720 0.153606
H24   H     H_    0.691210 0.148681 0.660889 0.151752
H25   H     H_    0.194493 0.353217 0.659727 0.153612
H26   H     H_    0.191210 0.648682 0.660889 0.151752
H27   H     H_    0.427382 0.958016 0.140374 0.151170
H28   H     H_    0.927380 0.458020 0.140374 0.151172
H29   H     H_    0.612480 0.053389 0.166339 0.162791
H30   H     H_    0.112483 0.553385 0.166338 0.162792
H31   H     H_    0.381233 0.937456 0.993499 0.140028
H32   H     H_    0.881230 0.437461 0.993499 0.140028
O1    O     O_3   0.500000 0.000000 0.500000 -0.484446
O2    O     O_3   0.000000 0.500000 0.500000 -0.484446
O3    O     O_R   0.419410 0.880950 0.543120 -0.643382
O4    O     O_R   0.419410 0.119050 0.543120 -0.641876
O5    O     O_R   0.919410 0.380950 0.543120 -0.643382
O6    O     O_R   0.919410 0.619050 0.543120 -0.641878
O7    O     O_R   0.635640 0.069590 0.463140 -0.626033
O8    O     O_R   0.635640 0.930410 0.463140 -0.625064
O9    O     O_R   0.135640 0.569590 0.463140 -0.626032
O10   O     O_R   0.135640 0.430410 0.463140 -0.625058
O11   O     O_R   0.456890 0.000000 0.295720 -0.648542
O12   O     O_R   0.956890 0.500000 0.295720 -0.648542
O13   O     O_R   0.488070 0.049450 0.698020 -0.641036
O14   O     O_R   0.488070 0.950550 0.698020 -0.642201
O15   O     O_R   0.988070 0.549450 0.698020 -0.641035
O16   O     O_R   0.988070 0.450550 0.698020 -0.642201
O17   O     O_R   0.370630 0.069610 0.433010 -0.645900
O18   O     O_R   0.370630 0.930390 0.433010 -0.646771
O19   O     O_R   0.870630 0.569610 0.433010 -0.645902
O20   O     O_R   0.870630 0.430390 0.433010 -0.646772
O21   O     O_R   0.574320 0.880940 0.560740 -0.646887
O22   O     O_R   0.574320 0.119060 0.560740 -0.648147
O23   O     O_R   0.074320 0.380940 0.560740 -0.646887
O24   O     O_R   0.074320 0.619060 0.560740 -0.648147
O25   O     O_R   0.566990 0.000000 0.308240 -0.633542
O26   O     O_R   0.066990 0.500000 0.308240 -0.633542
Zn1   Zn    Zn3+2 0.583120 1.000000 0.434770 0.986107
Zn2   Zn    Zn3+2 0.083120 0.500000 0.434770 0.986107
Zn3   Zn    Zn3+2 0.425830 0.000000 0.416880 0.964305
Zn4   Zn    Zn3+2 0.925830 0.500000 0.416880 0.964303
Zn5   Zn    Zn3+2 0.495530 0.070660 0.574170 0.963407
Zn6   Zn    Zn3+2 0.495530 0.929340 0.574170 0.964000
Zn7   Zn    Zn3+2 0.995530 0.570660 0.574170 0.963407
Zn8   Zn    Zn3+2 0.995530 0.429340 0.574170 0.964000
N1    N     N_2   0.660190 0.820030 0.361827 -0.302228
H33   H     H_    0.691134 0.818558 0.307810 0.224165
C73   C     C_3   0.596342 0.792024 0.346578 -0.792430
H34   H     H_    0.602327 0.743183 0.341958 0.237849
H35   H     H_    0.574346 0.808727 0.283494 0.236063
H36   H     H_    0.561518 0.802643 0.401019 0.245193
N2    N     N_2   0.664702 0.177394 0.360319 -0.303621
H37   H     H_    0.697115 0.178314 0.307819 0.220233
C74   C     C_3   0.601021 0.204702 0.340811 -0.794921
H38   H     H_    0.606656 0.253498 0.334422 0.238273
H39   H     H_    0.564808 0.194654 0.393928 0.244630
H40   H     H_    0.580943 0.186889 0.277448 0.234706
N3    N     N_2   0.160208 0.320043 0.361820 -0.302217
H41   H     H_    0.191159 0.318574 0.307808 0.224163
C75   C     C_3   0.096361 0.292039 0.346552 -0.792418
H42   H     H_    0.102345 0.243198 0.341927 0.237845
H43   H     H_    0.074373 0.308748 0.283466 0.236064
H44   H     H_    0.061530 0.302655 0.400987 0.245182
N4    N     N_2   0.164703 0.677394 0.360318 -0.303621
H45   H     H_    0.197116 0.678313 0.307818 0.220232
C76   C     C_3   0.101022 0.704701 0.340809 -0.794918
H46   H     H_    0.106657 0.753497 0.334420 0.238272
H47   H     H_    0.064808 0.694654 0.393927 0.244629
H48   H     H_    0.080945 0.686888 0.277447 0.234706

loop_
_geom_bond_atom_site_label_1
_geom_bond_atom_site_label_2
_ccdc_geom_bond_type
C69   N1    S    
C15   H3    S    
N4    H45   S    
O9    Zn2   S    
C25   C45   A    
C22   H22   S    
O26   Zn2   S    
C36   O21   A    
C20   C56   A    
C25   C43   A    
C9    C63   A    
N2    H37   S    
C26   C44   A    
C39   C41   A    
C27   C33   A    
O2    Zn2   S    
C46   H30   S    
C33   C39   A    
C35   C58   S    
C34   C40   A    
C14   H2    S    
C39   C47   A    
C74   H39   S    
C43   H27   S    
C5    C11   A    
C18   C54   A    
C73   H35   S    
C6    C12   A    
C38   O10   A    
O2    Zn8   S    
O12   Zn4   S    
C60   C72   A    
C51   O14   A    
C29   H31   S    
C6    C70   A    
C48   H6    S    
C9    C13   A    
C1    O18   A    
C5    C69   A    
C50   O26   A    
C74   H38   S    
C59   C67   A    
C11   C15   A    
C58   C66   A    
C71   N3    S    
C20   C24   A    
C27   C51   S    
C25   C49   S    
C20   H14   S    
C36   O8    A    
C18   H12   S    
N3    H41   S    
C76   H47   S    
O23   Zn8   S    
C75   H43   S    
O1    Zn5   S    
C37   O24   A    
C63   H15   S    
C40   C42   A    
C17   C53   A    
C28   C34   A    
N4    C76   S    
C16   H4    S    
C52   O15   A    
C41   C43   A    
C42   C44   A    
C24   H20   S    
N2    C74   S    
C61   H17   S    
C38   O23   A    
C13   C53   A    
C45   C47   A    
C63   C67   A    
C8    C72   A    
C62   C66   A    
O19   Zn4   S    
C27   C31   A    
O15   Zn7   S    
C12   C16   A    
C28   C32   A    
C74   H40   S    
O4    Zn5   S    
O1    Zn1   S    
C36   C57   S    
C10   C14   A    
C73   H36   S    
C26   C46   A    
C66   H24   S    
C58   C70   A    
O2    Zn7   S    
O11   Zn3   S    
C11   C61   A    
C7    C21   A    
C49   O25   A    
C17   C21   A    
C72   N4    S    
C4    O19   A    
O5    Zn8   S    
C17   H11   S    
C15   C55   A    
C35   O22   A    
C19   C23   A    
O24   Zn7   S    
C16   C56   A    
O18   Zn3   S    
O3    Zn6   S    
C30   C32   A    
C32   H8    S    
C12   C62   A    
C3    C56   S    
C8    C22   A    
C76   H46   S    
C5    C23   A    
O2    Zn4   S    
C6    C24   A    
C76   H48   S    
C70   N2    S    
N1    C73   S    
C75   H44   S    
C45   H29   S    
C1    O3    A    
O1    Zn6   S    
C52   O16   A    
O21   Zn6   S    
O7    Zn1   S    
C49   O11   A    
C13   H1    S    
O22   Zn5   S    
C4    C55   S    
C23   H19   S    
O16   Zn8   S    
C47   H5    S    
C14   C54   A    
C64   C68   A    
C35   O7    A    
C3    O20   A    
O1    Zn3   S    
C2    O17   A    
C19   C55   A    
C7    C9    A    
O14   Zn6   S    
C4    O6    A    
C40   C48   A    
C29   C41   A    
C18   C22   A    
O10   Zn2   S    
O6    Zn7   S    
C10   C64   A    
C57   C65   A    
C19   H13   S    
C2    C53   S    
N1    H33   S    
C31   H7    S    
C28   C52   S    
O20   Zn4   S    
C57   C69   A    
C26   C50   S    
C29   C31   A    
C73   H34   S    
C7    C71   A    
C44   H28   S    
C21   H21   S    
C3    O5    A    
C62   H18   S    
C2    O4    A    
C51   O13   A    
C50   O12   A    
N3    C75   S    
O8    Zn1   S    
C68   H26   S    
C37   C60   S    
C67   H25   S    
C38   C59   S    
C46   C48   A    
C61   C65   A    
C65   H23   S    
C37   O9    A    
C60   C68   A    
C8    C10   A    
C30   H32   S    
C30   C42   A    
C34   H10   S    
O17   Zn3   S    
C75   H42   S    
C33   H9    S    
C1    C54   S    
C64   H16   S    
C59   C71   A    
O25   Zn1   S    
O13   Zn5   S    
