data_mof_unit_9317.cif
_audit_creation_date              2012-12-10T16:51:27-0500
_audit_creation_method            fapswitch 2.2
_symmetry_space_group_name_H-M    P1
_symmetry_Int_Tables_number       1
_space_group_crystal_system       triclinic
_cell_length_a                    7.846294
_cell_length_b                    8.565441
_cell_length_c                    12.079438
_cell_angle_alpha                 92.48866
_cell_angle_beta                  101.012692
_cell_angle_gamma                 94.196443
_cell_volume                      793.368890601

loop_
_atom_site_label
_atom_site_type_symbol
_atom_type_description
_atom_site_fract_x
_atom_site_fract_y
_atom_site_fract_z
_atom_type_partial_charge
C1    C     C_R   0.044838 0.794706 0.497857 0.961353
C2    C     C_R   0.159682 0.505557 0.832423 -0.126765
C3    C     C_2   0.068380 0.958565 0.497254 -0.387351
C4    C     C_R   0.105872 0.503953 0.710389 0.840621
C5    C     C_2   0.933027 0.041690 0.505981 -0.393407
C6    C     C_R   0.955676 0.205373 0.503312 0.951510
C7    C     C_R   0.892827 0.488918 0.289592 0.859017
C8    C     C_R   0.812405 0.293541 0.000500 -0.188556
C9    C     C_R   0.831448 0.460022 0.169367 -0.065127
C10   C     C_R   0.075261 0.597824 0.900414 -0.186886
C11   C     C_R   0.148153 0.630455 0.013679 -0.122480
C12   C     C_R   0.399132 0.489208 0.989408 0.078928
C13   C     C_R   0.310248 0.579713 0.057892 -0.199555
C14   C     C_3   0.637551 0.688103 0.691338 0.228292
C15   C     C_3   0.565800 0.795767 0.771586 -0.919103
C16   C     C_R   0.312107 0.436556 0.879949 0.076460
C17   C     C_R   0.571461 0.449243 0.025737 0.081856
C18   C     C_R   0.644174 0.338721 0.960961 0.164548
C19   C     C_R   0.546211 0.272094 0.859485 -0.261021
C20   C     C_R   0.381675 0.319754 0.819499 -0.196953
C21   C     C_R   0.674272 0.517702 0.124722 -0.269955
C22   C     C_R   0.904412 0.351121 0.106391 -0.181388
H1    H     H_    0.027366 0.305517 0.141001 0.156547
H2    H     H_    0.308802 0.263279 0.741083 0.166663
H3    H     H_    0.195908 0.010140 0.489051 0.183828
H4    H     H_    0.759318 0.748196 0.674889 0.163137
H5    H     H_    0.663883 0.576889 0.733618 0.149308
H6    H     H_    0.445155 0.738729 0.792371 0.273309
H7    H     H_    0.663668 0.821801 0.850960 0.208473
H8    H     H_    0.535369 0.907388 0.731672 0.251754
H9    H     H_    0.805639 0.990131 0.514522 0.188149
H10   H     H_    0.470014 0.370131 0.419947 0.142804
H11   H     H_    0.597644 0.184678 0.810301 0.148472
H12   H     H_    0.868701 0.208433 0.952243 0.136747
H13   H     H_    0.630908 0.611063 0.172613 0.149728
H14   H     H_    0.956463 0.649521 0.865234 0.137030
H15   H     H_    0.360681 0.609854 0.146292 0.140451
H16   H     H_    0.081986 0.700307 0.066438 0.143170
N1    N     N_2   0.434800 0.456690 0.470850 -0.091576
N2    N     N_2   0.565200 0.543310 0.529150 0.098466
O1    O     O_R   0.893060 0.738880 0.507150 -0.628157
O2    O     O_R   0.172250 0.711130 0.488470 -0.559849
O3    O     O_R   0.944700 0.520730 0.667600 -0.662306
O4    O     O_R   0.223890 0.492980 0.648920 -0.567808
O5    O     O_R   0.827750 0.288870 0.511530 -0.638465
O6    O     O_R   0.106940 0.261120 0.492850 -0.626147
O7    O     O_R   0.776110 0.507020 0.351080 -0.625153
O8    O     O_R   0.055300 0.479270 0.332400 -0.625362
O9    O     O_3   0.514113 0.659776 0.590591 -0.490533
Zn1   Zn    Zn3+2 0.813580 0.518530 0.512470 0.944995
Zn2   Zn    Zn3+2 0.186420 0.481470 0.487530 0.988286

loop_
_geom_bond_atom_site_label_1
_geom_bond_atom_site_label_2
_ccdc_geom_bond_type
C12   C17   A    
C11   H16   S    
C2    C4    S    
O3    Zn1   S    
C21   H13   S    
C6    O5    A    
C14   H5    S    
C2    C16   A    
O1    Zn1   S    
C8    C22   A    
C19   C20   A    
O2    Zn2   S    
C16   C20   A    
C7    O8    A    
C17   C18   A    
C8    H12   S    
C14   H4    S    
C11   C13   A    
C9    C21   A    
C15   H6    S    
O5    Zn1   S    
N2    Zn1   S    
O4    Zn2   S    
C1    O1    A    
C4    O3    A    
C15   H7    S    
O7    Zn1   S    
C6    O6    A    
C5    C6    S    
C17   C21   A    
C9    C22   A    
C5    H9    S    
C14   O9    S    
C10   C11   A    
N2    O9    S    
C2    C10   A    
C12   C16   A    
C1    O2    A    
C3    H3    S    
C12   C13   A    
C15   H8    S    
C18   C19   A    
C19   H11   S    
H10   N1    S    
N1    N2    D    
C7    C9    S    
C14   C15   S    
C10   H14   S    
C4    O4    A    
C3    C5    D    
N1    Zn2   S    
C22   H1    S    
C13   H15   S    
O6    Zn2   S    
O8    Zn2   S    
C8    C18   A    
C20   H2    S    
C1    C3    S    
C7    O7    A    
