data_mof_unit_22562.cif
_audit_creation_date              2013-03-05T16:08:30-0500
_audit_creation_method            fapswitch 2.2
_symmetry_space_group_name_H-M    P1
_symmetry_Int_Tables_number       1
_space_group_crystal_system       triclinic
_cell_length_a                    14.814552
_cell_length_b                    6.914929
_cell_length_c                    13.516127
_cell_angle_alpha                 90.001039
_cell_angle_beta                  99.841699
_cell_angle_gamma                 89.999601
_cell_volume                      1364.2370409

loop_
_atom_site_label
_atom_site_type_symbol
_atom_site_description
_atom_site_fract_x
_atom_site_fract_y
_atom_site_fract_z
_atom_type_partial_charge
O1    O     O_R   0.586930 0.505770 0.416350 -0.586680
O2    O     O_R   0.413070 0.005770 0.583650 -0.586692
O3    O     O_R   0.397900 0.173100 0.389630 -0.590736
O4    O     O_R   0.602100 0.673100 0.610370 -0.590729
C1    C     C_R   0.364236 0.345437 0.362796 0.958215
C2    C     C_R   0.635764 0.845438 0.637204 0.958203
O5    O     O_R   0.585280 0.175870 0.404330 -0.600258
O6    O     O_R   0.414720 0.675870 0.595670 -0.600229
O7    O     O_R   0.601790 0.008380 0.598460 -0.584652
O8    O     O_R   0.398210 0.508380 0.401540 -0.584656
C3    C     C_R   0.612769 0.345017 0.380656 0.975193
C4    C     C_R   0.387233 0.845022 0.619346 0.975177
O9    O     O_3   0.505200 0.340120 0.563670 -0.263747
O10   O     O_3   0.494800 0.840120 0.436330 -0.263758
V1    V     V_3+5 0.499040 0.064180 0.488190 1.195883
V2    V     V_3+5 0.500960 0.564180 0.511810 1.195898
C5    C     C_R   0.244428 0.973838 0.669291 0.129744
C6    C     C_R   0.755597 0.473793 0.330744 0.129774
C7    C     C_R   0.320985 0.853025 0.690115 -0.416762
C8    C     C_R   0.679032 0.353001 0.309902 -0.416761
C9    C     C_R   0.327463 0.729442 0.775735 0.425724
C10   C     C_R   0.672573 0.229400 0.224287 0.425673
C11   C     C_R   0.260618 0.740297 0.839883 0.290345
C12   C     C_R   0.739423 0.240282 0.160152 0.290524
C13   C     C_R   0.187338 0.875946 0.819999 -0.428131
C14   C     C_R   0.812690 0.375944 0.180033 -0.428122
C15   C     C_R   0.179571 0.984358 0.731745 0.100943
C16   C     C_R   0.820462 0.484315 0.268303 0.100995
C17   C     C_3   0.165074 0.195863 0.713540 -0.416960
C18   C     C_3   0.835005 0.695791 0.286570 -0.416988
C19   C     C_3   0.236913 0.184760 0.645561 -0.407999
C20   C     C_3   0.763148 0.684689 0.354531 -0.408028
H1    H     H_    0.186817 0.284199 0.782057 0.237885
H2    H     H_    0.813295 0.784204 0.218078 0.237974
H3    H     H_    0.095252 0.228198 0.672116 0.164030
H4    H     H_    0.904829 0.728028 0.328017 0.164009
H5    H     H_    0.300641 0.265831 0.675305 0.234184
H6    H     H_    0.699439 0.765829 0.324795 0.234165
H7    H     H_    0.208456 0.211983 0.565230 0.159728
H8    H     H_    0.791597 0.711828 0.434872 0.159726
C21   C     C_1   0.783421 0.877108 0.782913 -0.186382
C22   C     C_1   0.216578 0.377109 0.217088 -0.186354
C23   C     C_1   0.716170 0.860151 0.716867 -0.210532
C24   C     C_1   0.283829 0.360149 0.283134 -0.210559
O11   O     O_R   0.101720 0.231700 0.098560 -0.596292
O12   O     O_R   0.898280 0.731700 0.901440 -0.596257
O13   O     O_R   0.914700 0.558980 0.095690 -0.596745
O14   O     O_R   0.085300 0.058980 0.904310 -0.596839
C25   C     C_R   0.883719 0.389872 0.115177 1.052556
C26   C     C_R   0.116291 0.889870 0.884836 1.052719
O15   O     O_R   0.102080 0.561590 0.110390 -0.576825
O16   O     O_R   0.897920 0.061590 0.889610 -0.576910
O17   O     O_R   0.086950 0.728940 0.916330 -0.590874
O18   O     O_R   0.913050 0.228940 0.083670 -0.590934
C27   C     C_R   0.136141 0.391898 0.137474 1.018258
C28   C     C_R   0.863858 0.891898 0.862527 1.018275
O19   O     O_3   0.994770 0.394510 0.936380 -0.281815
O20   O     O_3   0.005230 0.894510 0.063620 -0.281771
V3    V     V_3+5 0.000970 0.670520 0.011800 1.223728
V4    V     V_3+5 0.999030 0.170520 0.988200 1.223644
O21   O     O_3   0.401524 0.608270 0.804368 -0.673719
H9    H     H_    0.454946 0.657964 0.777220 0.325913
O22   O     O_3   0.598533 0.108181 0.195639 -0.673783
H10   H     H_    0.545103 0.157820 0.222793 0.325929
N1    N     N_R   0.273969 0.628545 0.931056 0.255876
O23   O     O_R   0.271449 0.712532 0.016710 -0.387239
O24   O     O_R   0.298889 0.448164 0.930471 -0.351882
N2    N     N_R   0.726082 0.128559 0.068976 0.255944
O25   O     O_R   0.728295 0.212721 0.983288 -0.387033
O26   O     O_R   0.701467 0.947975 0.069619 -0.352201

loop_
_geom_bond_atom_site_label_1
_geom_bond_atom_site_label_2
_geom_bond_distance
_ccdc_geom_bond_type
O11   V4    1.985591 S    
O12   V3    1.985599 S    
C15   C17   1.492532 S    
O1    C3    1.295392 A    
O2    C4    1.295378 A    
C2    O7    1.306516 A    
O17   V3    2.003158 S    
O13   C25   1.299534 A    
O18   V4    2.003144 S    
O5    C3    1.296481 A    
C7    C9    1.428556 A    
C12   C14   1.425003 A    
O19   V3    2.158291 S    
O20   V4    2.158323 S    
C25   O18   1.292976 A    
C17   H1    1.110190 S    
C13   C26   1.483376 S    
O16   V4    1.975960 S    
C10   O22   1.382197 S    
N2    O25   1.301587 A    
N1    O24   1.301212 A    
O10   V2    2.158295 S    
C20   H6    1.112415 S    
C9    O21   1.382197 S    
O14   C26   1.299544 A    
O6    V2    2.002127 S    
C21   C23   1.224419 T    
C22   C24   1.224420 T    
O14   V4    2.002327 S    
C9    C11   1.425329 A    
C3    C8    1.483966 S    
C26   O17   1.292980 A    
C18   H2    1.110167 S    
C5    C15   1.385013 A    
C6    C16   1.385001 A    
O4    C2    1.318554 A    
C14   C25   1.483356 S    
O19   V4    1.696612 S    
O15   C27   1.304749 A    
O20   V3    1.696590 S    
C19   H5    1.112413 S    
O4    V2    1.975998 S    
C21   C28   1.466301 S    
C22   C27   1.466301 S    
O6    C4    1.296493 A    
O1    V2    2.002919 S    
O2    V1    2.002932 S    
C1    C24   1.466346 S    
C8    C10   1.428581 A    
C2    C23   1.466344 S    
O9    V1    2.158264 S    
C5    C19   1.493424 S    
C10   C12   1.425267 A    
C6    C20   1.493419 S    
C20   H8    1.111567 S    
O3    V1    1.976009 S    
O3    C1    1.318555 A    
C13   C15   1.396869 A    
C17   H3    1.111500 S    
C14   C16   1.396867 A    
C18   H4    1.111504 S    
C11   N1    1.439295 S    
C16   C18   1.492526 S    
O7    V1    1.977817 S    
C1    O8    1.306510 A    
C17   C19   1.522184 S    
O8    V2    1.977812 S    
C18   C20   1.522217 S    
C4    C7    1.483965 S    
O5    V1    2.002149 S    
C5    C7    1.397970 A    
C19   H7    1.111565 S    
C6    C8    1.397991 A    
C11   C13   1.425083 A    
O21   H9    0.989128 S    
C12   N2    1.439191 S    
O13   V3    2.002349 S    
O22   H10   0.989127 S    
O15   V3    1.975970 S    
O11   C27   1.293098 A    
N2    O26   1.301336 A    
N1    O23   1.301434 A    
O9    V2    1.697283 S    
O12   C28   1.293103 A    
O10   V1    1.697260 S    
O16   C28   1.304747 A    
