data_mof_unit_21774.cif
_audit_creation_date              2012-12-11T15:33:33-0500
_audit_creation_method            fapswitch 2.2
_symmetry_space_group_name_H-M    P1
_symmetry_Int_Tables_number       1
_space_group_crystal_system       triclinic
_cell_length_a                    27.094416
_cell_length_b                    7.268733
_cell_length_c                    22.730846
_cell_angle_alpha                 89.885429
_cell_angle_beta                  101.051878
_cell_angle_gamma                 89.882373
_cell_volume                      4393.6136018

loop_
_atom_site_label
_atom_site_type_symbol
_atom_type_description
_atom_site_fract_x
_atom_site_fract_y
_atom_site_fract_z
_atom_type_partial_charge
O1    O     O_R   0.207310 0.594030 0.676830 -0.530443
O2    O     O_R   0.792690 0.405970 0.323170 -0.539658
O3    O     O_R   0.292690 0.094030 0.823170 -0.532166
O4    O     O_R   0.707310 0.905970 0.176830 -0.532773
O5    O     O_R   0.197320 0.262370 0.795700 -0.538791
O6    O     O_R   0.802680 0.737630 0.204300 -0.536954
O7    O     O_R   0.302680 0.762370 0.704300 -0.539267
O8    O     O_R   0.697320 0.237630 0.295700 -0.538455
C1    C     C_R   0.184722 0.432152 0.811743 0.683183
C2    C     C_R   0.815359 0.567845 0.188361 0.676751
C3    C     C_R   0.315244 0.932126 0.688188 0.677383
C4    C     C_R   0.684758 0.067935 0.311800 0.676191
O9    O     O_R   0.201410 0.264250 0.675590 -0.543291
O10   O     O_R   0.798590 0.735750 0.324410 -0.533165
O11   O     O_R   0.298590 0.764250 0.824410 -0.534411
O12   O     O_R   0.701410 0.235750 0.175590 -0.535987
O13   O     O_R   0.296810 0.094940 0.702210 -0.536790
O14   O     O_R   0.703190 0.905060 0.297790 -0.538763
O15   O     O_R   0.203190 0.594940 0.797790 -0.534108
O16   O     O_R   0.796810 0.405060 0.202210 -0.537817
C5    C     C_R   0.190434 0.432630 0.653270 0.706451
C6    C     C_R   0.809548 0.567001 0.346676 0.705782
C7    C     C_R   0.309765 0.932009 0.846642 0.694821
C8    C     C_R   0.690146 0.067592 0.153571 0.703731
O17   O     O_3   0.281300 0.427390 0.758870 -0.374115
O18   O     O_3   0.718700 0.572610 0.241130 -0.373887
O19   O     O_3   0.218700 0.927390 0.741130 -0.374900
O20   O     O_3   0.781300 0.072610 0.258870 -0.374659
V1    V     V_3+5 0.244190 0.152150 0.748350 1.369025
V2    V     V_3+5 0.755810 0.847850 0.251650 1.384515
V3    V     V_3+5 0.255810 0.652150 0.751650 1.374794
V4    V     V_3+5 0.744190 0.347850 0.248350 1.380651
C9    C     C_R   0.655263 0.059028 0.095043 -0.123523
C10   C     C_R   0.344263 0.933856 0.905721 -0.135057
C11   C     C_R   0.844117 0.554999 0.405436 -0.117817
C12   C     C_R   0.155631 0.438257 0.594477 -0.119237
C13   C     C_R   0.641664 0.049305 0.986621 -0.191549
C14   C     C_R   0.362430 0.840445 0.010135 -0.193232
C15   C     C_R   0.857048 0.509815 0.512949 -0.195568
C16   C     C_R   0.139252 0.377489 0.487697 -0.198289
C17   C     C_R   0.674770 0.057133 0.041791 0.097881
C18   C     C_R   0.328528 0.853229 0.955671 0.094600
C19   C     C_R   0.824233 0.525516 0.457716 0.099203
C20   C     C_R   0.172716 0.378748 0.542700 0.095113
C21   C     C_R   0.602407 0.052242 0.092226 0.186877
C22   C     C_R   0.394265 0.001069 0.911514 0.180455
C23   C     C_R   0.897054 0.564910 0.409228 0.181731
C24   C     C_R   0.104773 0.495190 0.590185 0.177700
C25   C     C_R   0.569065 0.023491 0.035802 0.045497
C26   C     C_R   0.430553 0.964660 0.965206 0.044536
C27   C     C_R   0.930433 0.523913 0.464794 0.043687
C28   C     C_R   0.069269 0.470276 0.535168 0.043150
C29   C     C_R   0.589724 0.033620 0.983155 0.061421
C30   C     C_R   0.412647 0.893308 0.015219 0.061049
C31   C     C_R   0.909237 0.508555 0.516921 0.062759
C32   C     C_R   0.088409 0.421572 0.483519 0.063895
C33   C     C_R   0.516209 0.983590 0.029215 0.061487
C34   C     C_R   0.483965 0.992231 0.971227 0.060064
C35   C     C_R   0.983799 0.494545 0.470873 0.061078
C36   C     C_R   0.015535 0.488457 0.529211 0.060172
C37   C     C_R   0.506946 0.005967 0.920790 -0.152132
C38   C     C_R   0.495672 0.914734 0.077258 -0.151904
C39   C     C_R   0.992010 0.478500 0.579299 -0.153626
C40   C     C_R   0.005546 0.449086 0.421236 -0.154529
C41   C     C_R   0.558616 0.023860 0.926747 -0.195440
C42   C     C_R   0.445227 0.869195 0.070154 -0.200700
C43   C     C_R   0.940115 0.486221 0.573098 -0.195239
C44   C     C_R   0.056495 0.411583 0.427640 -0.197631
H1    H     H_    0.574490 0.028366 0.886453 0.127217
H2    H     H_    0.431703 0.811437 0.108128 0.127318
H3    H     H_    0.923892 0.471668 0.612916 0.127520
H4    H     H_    0.070980 0.371451 0.388252 0.127772
H5    H     H_    0.656814 0.052502 0.945769 0.128014
H6    H     H_    0.349661 0.783512 0.048762 0.129465
H7    H     H_    0.841620 0.494064 0.553325 0.125758
H8    H     H_    0.152842 0.337747 0.447647 0.125100
H9    H     H_    0.486386 0.986896 0.875762 0.167292
H10   H     H_    0.518654 0.878816 0.119833 0.168883
H11   H     H_    0.012510 0.447770 0.623671 0.168345
H12   H     H_    0.983293 0.425013 0.377350 0.168458
C45   C     C_R   0.623564 0.889208 0.359903 -0.170806
C46   C     C_R   0.375822 0.111737 0.639296 -0.164307
C47   C     C_R   0.876344 0.388408 0.139922 -0.165120
C48   C     C_R   0.123751 0.611570 0.860136 -0.163779
H13   H     H_    0.634578 0.763456 0.340377 0.138787
H14   H     H_    0.364437 0.237693 0.658364 0.138798
H15   H     H_    0.864888 0.262222 0.158818 0.135071
H16   H     H_    0.134841 0.737410 0.840690 0.136186
C49   C     C_R   0.587060 0.878920 0.395630 -0.224983
C50   C     C_R   0.412364 0.122191 0.603609 -0.223744
C51   C     C_R   0.913051 0.378266 0.104440 -0.221473
C52   C     C_R   0.087306 0.622071 0.895957 -0.222457
H17   H     H_    0.571199 0.747708 0.402477 0.147846
H18   H     H_    0.427948 0.253595 0.596399 0.147187
H19   H     H_    0.928694 0.246871 0.097202 0.147159
H20   H     H_    0.071538 0.753505 0.902931 0.147512
C53   C     C_R   0.571426 0.035308 0.422936 0.002691
C54   C     C_R   0.428380 0.965641 0.576753 0.001749
C55   C     C_R   0.929100 0.535128 0.077736 0.002858
C56   C     C_R   0.071610 0.465562 0.923200 0.000552
C57   C     C_R   0.591669 0.207334 0.411154 0.310321
C58   C     C_R   0.408520 0.793412 0.588964 0.310983
C59   C     C_R   0.909249 0.707348 0.090095 0.307007
C60   C     C_R   0.091659 0.293288 0.911180 0.309159
C61   C     C_R   0.628825 0.217710 0.375411 -0.225756
C62   C     C_R   0.371618 0.782627 0.625035 -0.225628
C63   C     C_R   0.872250 0.717863 0.126031 -0.231192
C64   C     C_R   0.128684 0.282621 0.875264 -0.228426
H21   H     H_    0.644133 0.350950 0.367343 0.123955
H22   H     H_    0.356918 0.649019 0.633802 0.125361
H23   H     H_    0.857473 0.851504 0.134802 0.128974
H24   H     H_    0.143820 0.149132 0.867002 0.123136
C65   C     C_R   0.645377 0.058560 0.349568 -0.072544
C66   C     C_R   0.354576 0.941853 0.650329 -0.076249
C67   C     C_R   0.854987 0.558285 0.150913 -0.073495
C68   C     C_R   0.145345 0.441814 0.849527 -0.080070
N1    N     N_R   0.534797 0.133479 0.510129 -0.245671
N2    N     N_R   0.465011 0.867446 0.489581 -0.245125
N3    N     N_R   0.965727 0.634997 0.990678 -0.245382
N4    N     N_R   0.035091 0.366106 0.010402 -0.245194
N5    N     N_R   0.501232 0.117681 0.545777 -0.322097
N6    N     N_R   0.498569 0.883270 0.453926 -0.321816
N7    N     N_R   0.999138 0.619136 0.954833 -0.322050
N8    N     N_R   0.001671 0.381929 0.046237 -0.322063
C69   C     C_R   0.465603 0.984216 0.536372 0.527297
C70   C     C_R   0.534201 0.016733 0.463328 0.526195
C71   C     C_R   0.034549 0.484212 0.963808 0.527123
C72   C     C_R   0.966257 0.516837 0.037253 0.527082
N9    N     N_2   0.406565 0.116635 0.865671 -0.544860
H25   H     H_    0.389603 0.083930 0.822422 0.247972
C73   C     C_3   0.405112 0.311353 0.878288 -0.483349
H26   H     H_    0.417728 0.390367 0.842031 0.185346
H27   H     H_    0.430655 0.343932 0.921344 0.200473
H28   H     H_    0.366171 0.354515 0.880675 0.199281
N10   N     N_2   0.583075 0.092579 0.144897 -0.542857
H29   H     H_    0.604346 0.045377 0.184601 0.242016
C74   C     C_3   0.566356 0.280565 0.148564 -0.522823
H30   H     H_    0.549431 0.296986 0.189040 0.192367
H31   H     H_    0.537389 0.316296 0.108566 0.207688
H32   H     H_    0.598682 0.376362 0.151839 0.199118
N11   N     N_2   0.090772 0.590625 0.639278 -0.543732
H33   H     H_    0.108456 0.548230 0.681374 0.243738
C75   C     C_3   0.088883 0.788624 0.632656 -0.492248
H34   H     H_    0.075209 0.850783 0.671166 0.185204
H35   H     H_    0.062608 0.828633 0.590809 0.201035
H36   H     H_    0.126967 0.843430 0.631584 0.203234
N12   N     N_2   0.916131 0.631413 0.358901 -0.542295
H37   H     H_    0.895840 0.595378 0.317421 0.241635
C76   C     C_3   0.930252 0.823431 0.362599 -0.510107
H38   H     H_    0.947160 0.860765 0.323413 0.188957
H39   H     H_    0.958520 0.849838 0.404017 0.206247
H40   H     H_    0.896604 0.911297 0.362439 0.199347
C77   C     C_3   0.275258 0.785299 0.953457 -0.338536
C78   C     C_3   0.273054 0.575381 0.951949 -0.712950
H41   H     H_    0.285776 0.522341 0.911552 0.229910
H42   H     H_    0.297221 0.516135 0.992603 0.215891
H43   H     H_    0.233767 0.529713 0.950547 0.210769
H44   H     H_    0.261479 0.835317 0.993612 0.172521
H45   H     H_    0.248588 0.840492 0.914130 0.167880
C79   C     C_3   0.730675 0.067829 0.041896 -0.354246
C80   C     C_3   0.752455 0.876796 0.035578 -0.734475
H46   H     H_    0.748499 0.789243 0.074503 0.230152
H47   H     H_    0.732853 0.810172 0.993645 0.226786
H48   H     H_    0.792974 0.888731 0.033774 0.213497
H49   H     H_    0.737267 0.155904 0.004113 0.179152
H50   H     H_    0.751675 0.133175 0.083293 0.170900
C81   C     C_3   0.226815 0.320620 0.544245 -0.353058
C82   C     C_3   0.261734 0.486600 0.548122 -0.745235
H51   H     H_    0.249432 0.579483 0.509185 0.230930
H52   H     H_    0.262101 0.564474 0.590089 0.226601
H53   H     H_    0.300639 0.439063 0.547663 0.209466
H54   H     H_    0.240030 0.225750 0.582339 0.186875
H55   H     H_    0.229903 0.242445 0.503098 0.178520
C83   C     C_3   0.768093 0.514626 0.456295 -0.365721
C84   C     C_3   0.744577 0.705928 0.455094 -0.737630
H56   H     H_    0.762305 0.784966 0.495378 0.228316
H57   H     H_    0.749328 0.782619 0.414342 0.234027
H58   H     H_    0.703725 0.693042 0.454982 0.215115
H59   H     H_    0.749013 0.434002 0.417056 0.178184
H60   H     H_    0.760672 0.440564 0.496553 0.180506
N13   N     N_2   0.573107 0.371091 0.433013 -0.513027
H61   H     H_    0.598950 0.476285 0.440518 0.246823
C85   C     C_3   0.524158 0.427345 0.400173 -0.506831
H62   H     H_    0.527260 0.477567 0.354814 0.175168
H63   H     H_    0.509035 0.538341 0.424964 0.241590
H64   H     H_    0.496897 0.312000 0.395380 0.203515
N14   N     N_2   0.427148 0.629908 0.567065 -0.512946
H65   H     H_    0.401246 0.525012 0.559253 0.245837
C86   C     C_3   0.475989 0.573267 0.600076 -0.507482
H66   H     H_    0.472697 0.522622 0.645326 0.176459
H67   H     H_    0.503265 0.688614 0.605077 0.203154
H68   H     H_    0.491172 0.462401 0.575290 0.241769
N15   N     N_2   0.927931 0.871039 0.068411 -0.513556
H69   H     H_    0.902008 0.976354 0.060574 0.246309
C87   C     C_3   0.976709 0.926341 0.101647 -0.505274
H70   H     H_    0.973277 0.976226 0.146879 0.175533
H71   H     H_    0.991998 0.037424 0.077017 0.241124
H72   H     H_    0.003972 0.810458 0.106686 0.203138
N16   N     N_2   0.073044 0.129631 0.933017 -0.512688
H73   H     H_    0.098881 0.023967 0.940595 0.246999
C88   C     C_3   0.024111 0.074621 0.900120 -0.506037
H74   H     H_    0.027254 0.024811 0.854787 0.175784
H75   H     H_    0.996882 0.190562 0.895294 0.203037
H76   H     H_    0.008941 0.963602 0.924887 0.241602

loop_
_geom_bond_atom_site_label_1
_geom_bond_atom_site_label_2
_ccdc_geom_bond_type
O17   V3    S    
C75   H36   S    
C55   C59   A    
O1    C5    A    
O19   V1    S    
C56   C71   S    
C9    C21   A    
C88   H74   S    
O3    C7    A    
N12   H37   S    
C10   C18   A    
C56   C60   A    
C73   H28   S    
C11   C23   A    
C22   N9    S    
C80   H46   S    
C88   H75   S    
N4    C71   A    
C25   C33   A    
C33   C38   A    
C84   H57   S    
C5    C12   S    
C39   H11   S    
N13   H61   S    
O7    C3    A    
C6    C11   S    
C74   H31   S    
C35   C40   A    
C26   C30   A    
C62   C66   A    
C36   C39   A    
C40   C44   A    
C61   C65   A    
N12   C76   S    
C14   C18   A    
C76   H39   S    
C62   H22   S    
O4    C8    A    
C19   C83   S    
C25   C29   A    
C43   H3    S    
C75   H34   S    
O1    V3    S    
O13   V1    S    
C31   C43   A    
O2    V4    S    
N2    N6    A    
C77   H44   S    
O3    V1    S    
C3    C66   S    
N1    N5    A    
C83   C84   S    
C13   H5    S    
C28   C36   A    
N5    C69   A    
N4    N8    A    
C1    O15   A    
C82   H53   S    
C15   C31   A    
C77   C78   S    
C58   N14   S    
C37   H9    S    
O20   V2    S    
C16   C32   A    
O2    C6    A    
C58   C62   A    
C10   C22   A    
N2    C69   A    
C79   H50   S    
C11   C19   A    
N1    C70   A    
C16   C20   A    
C27   C31   A    
C44   H4    S    
C81   H55   S    
C87   H72   S    
C13   C29   A    
N3    C72   A    
C34   C37   A    
C82   H52   S    
O15   V3    S    
C35   C36   A    
C48   C68   A    
N10   C74   S    
C13   C17   A    
C40   H12   S    
C63   H23   S    
O10   V2    S    
C80   H47   S    
C50   H18   S    
C84   H58   S    
O5    V1    S    
C54   C69   S    
C52   H20   S    
C57   C61   A    
C74   H32   S    
C39   C43   A    
C21   N10   S    
O7    V3    S    
C38   C42   A    
C26   C34   A    
C47   C67   A    
N10   H29   S    
C18   C77   S    
C46   C66   A    
C78   H43   S    
N13   C85   S    
C2    O16   A    
C81   C82   S    
O18   V4    S    
C15   C19   A    
N15   C87   S    
C32   C44   A    
O4    V2    S    
C16   H8    S    
C49   C53   A    
C20   C81   S    
O8    V4    S    
N6    C70   A    
C86   H68   S    
C85   H62   S    
O5    C1    A    
C37   C41   A    
C17   C79   S    
N7    C71   A    
C84   H56   S    
C14   C30   A    
C21   C25   A    
O8    C4    A    
C7    C10   S    
O9    C5    A    
C79   H49   S    
N9    C73   S    
C63   C67   A    
C78   H41   S    
C55   C72   S    
O14   V2    S    
C82   H51   S    
O6    V2    S    
C15   H7    S    
C60   N16   S    
C76   H40   S    
C27   C35   A    
C4    O14   A    
C73   H26   S    
C83   H60   S    
C60   C64   A    
C80   H48   S    
C29   C41   A    
C77   H45   S    
C52   C56   A    
C4    C65   S    
O16   V4    S    
O9    V1    S    
C75   H35   S    
C61   H21   S    
C3    O13   A    
C1    C68   S    
C78   H42   S    
C38   H10   S    
C48   H16   S    
C53   C70   S    
C73   H27   S    
C47   H15   S    
O6    C2    A    
C23   C27   A    
O11   V3    S    
C81   H54   S    
C30   C42   A    
N3    N7    A    
O12   V4    S    
C47   C51   A    
C74   H30   S    
C22   C26   A    
C8    C9    S    
C46   C50   A    
N8    C72   A    
C85   H64   S    
C9    C17   A    
C79   C80   S    
O10   C6    A    
N11   C75   S    
N9    H25   S    
C45   C49   A    
N14   H65   S    
C23   N12   S    
C54   C58   A    
N11   H33   S    
C46   H14   S    
C64   C68   A    
C33   C34   A    
C42   H2    S    
C41   H1    S    
O11   C7    A    
C88   H76   S    
C14   H6    S    
C24   N11   S    
C12   C24   A    
N16   H73   S    
C49   H17   S    
C86   H66   S    
C57   N13   S    
C45   H13   S    
N14   C86   S    
C12   C20   A    
C51   H19   S    
C87   H70   S    
C64   H24   S    
C24   C28   A    
C85   H63   S    
O12   C8    A    
N15   H69   S    
C45   C65   A    
N16   C88   S    
C59   C63   A    
C48   C52   A    
C86   H67   S    
C51   C55   A    
C76   H38   S    
C83   H59   S    
C50   C54   A    
C53   C57   A    
C2    C67   S    
C28   C32   A    
C59   N15   S    
C87   H71   S    
