data_mof_unit_54175.cif
_audit_creation_date              2013-03-05T16:41:46-0500
_audit_creation_method            fapswitch 2.2
_symmetry_space_group_name_H-M    P1
_symmetry_Int_Tables_number       1
_space_group_crystal_system       triclinic
_cell_length_a                    10.617615
_cell_length_b                    10.673522
_cell_length_c                    9.898185
_cell_angle_alpha                 89.718769
_cell_angle_beta                  90.581117
_cell_angle_gamma                 90.409742
_cell_volume                      1121.63555458

loop_
_atom_site_label
_atom_site_type_symbol
_atom_site_description
_atom_site_fract_x
_atom_site_fract_y
_atom_site_fract_z
_atom_type_partial_charge
O1    O     O_R   0.500020 0.316790 0.614690 -0.632985
O2    O     O_R   0.500000 0.316760 0.385350 -0.621494
C1    C     C_R   0.504332 0.260005 0.500281 0.842261
O3    O     O_R   0.316770 0.500020 0.614690 -0.610662
O4    O     O_R   0.316760 0.499980 0.385350 -0.615410
C2    C     C_R   0.260599 0.496589 0.499449 0.868436
Zn1   Zn    Zn3+2 0.500010 0.500020 0.653130 1.001062
Zn2   Zn    Zn3+2 0.499990 0.499980 0.346870 0.943438
O5    O     O_R   0.500000 0.683240 0.614650 -0.563573
O6    O     O_R   0.499980 0.683210 0.385310 -0.632856
O7    O     O_R   0.683240 0.500020 0.614650 -0.564821
O8    O     O_R   0.683230 0.499980 0.385310 -0.631346
C3    C     C_R   0.504694 0.739883 0.499709 0.903930
C4    C     C_R   0.739400 0.497107 0.500585 0.872776
H1    H     H_    0.114357 0.661982 0.386409 0.152388
C5    C     C_R   0.130958 0.282494 0.615867 -0.209919
H2    H     H_    0.232456 0.276689 0.612834 0.140225
C6    C     C_R   0.065243 0.183151 0.675014 -0.149088
H3    H     H_    0.116006 0.104505 0.717598 0.140018
C7    C     C_R   0.934238 0.184404 0.677940 -0.109033
H4    H     H_    0.883276 0.106715 0.722786 0.146720
C8    C     C_R   0.868530 0.284885 0.621521 -0.152985
H5    H     H_    0.766838 0.280694 0.623251 0.139591
C9    C     C_R   0.933884 0.387022 0.562381 0.106491
C10   C     C_R   0.065806 0.386001 0.560046 0.104050
C11   C     C_R   0.128288 0.487836 0.498118 -0.096697
C12   C     C_R   0.064314 0.585168 0.434588 -0.204186
H6    H     H_    0.885737 0.662852 0.388406 0.152234
C13   C     C_R   0.935683 0.585840 0.436117 -0.180156
C14   C     C_R   0.871644 0.489344 0.501450 -0.071643
C15   C     C_R   0.533547 0.063217 0.622357 0.067166
C16   C     C_R   0.526231 0.128786 0.500622 -0.087216
C17   C     C_R   0.544826 0.065667 0.378365 -0.215181
H7    H     H_    0.549785 0.115081 0.282678 0.172807
C18   C     C_R   0.545004 0.936087 0.377931 -0.230460
H8    H     H_    0.550238 0.887892 0.282103 0.176504
C19   C     C_R   0.526230 0.871245 0.499690 -0.113446
C20   C     C_R   0.532469 0.935387 0.621714 0.117338
C21   C     C_3   0.452978 0.927050 0.745776 0.047005
C22   C     C_3   0.454116 0.069550 0.746066 -0.562453
H9    H     H_    0.503552 0.882911 0.832608 0.179589
H10   H     H_    0.360776 0.112414 0.725595 0.196830
H11   H     H_    0.507177 0.109230 0.833451 0.194918
C23   C     C_R   0.391966 0.475522 0.070048 0.207210
N1    N     N_R   0.499160 0.499140 0.142800 -0.130695
C24   C     C_R   0.602864 0.537761 0.073770 -0.209875
H12   H     H_    0.685735 0.568048 0.129428 0.190243
C25   C     C_R   0.602889 0.540149 0.930218 0.319823
N2    N     N_R   0.499160 0.499180 0.857150 -0.164852
C26   C     C_R   0.391818 0.475740 0.927985 0.165078
C27   C     C_3   0.312869 0.359951 0.922446 -0.497239
C28   C     C_3   0.313756 0.359296 0.076015 -0.477889
H13   H     H_    0.218113 0.377914 0.878024 0.230629
H14   H     H_    0.363708 0.280007 0.878513 0.205335
H15   H     H_    0.219503 0.376645 0.119815 0.216327
H16   H     H_    0.365533 0.278751 0.120986 0.207745
N3    N     N_R   0.711299 0.589548 0.863861 0.224380
O9    O     O_R   0.701943 0.693318 0.795264 -0.406111
O10   O     O_R   0.822619 0.549145 0.897703 -0.413148
N4    N     N_2   0.328859 0.873793 0.718772 -0.279825
H17   H     H_    0.280545 0.912954 0.638136 0.226721
C29   C     C_3   0.252243 0.853850 0.836845 -0.748329
H18   H     H_    0.162826 0.806538 0.806911 0.253111
H19   H     H_    0.230045 0.944950 0.884619 0.230111
H20   H     H_    0.302236 0.792827 0.910861 0.241078

loop_
_geom_bond_atom_site_label_1
_geom_bond_atom_site_label_2
_geom_bond_distance
_ccdc_geom_bond_type
O1    C1    1.288437 A    
O4    Zn2   1.986187 S    
C28   H15   1.111734 S    
C13   C14   1.390565 A    
C12   C13   1.366057 A    
C1    C16   1.421355 S    
C3    C19   1.419000 S    
C18   H8    1.083359 S    
C15   C20   1.364415 A    
Zn2   O8    1.978636 S    
C27   H14   1.106141 S    
C16   C17   1.404286 A    
C23   C28   1.489144 S    
C22   H10   1.110880 S    
C17   H7    1.083375 S    
C11   C12   1.389631 A    
C25   N3    1.427444 S    
C21   H9    1.113233 S    
C5    C6    1.394818 A    
C2    C11   1.407200 S    
N1    C24   1.362050 A    
C23   N1    1.363279 A    
Zn1   O7    1.986186 S    
N3    O9    1.300185 A    
C29   H18   1.110431 S    
C4    C14   1.407092 S    
O3    Zn1   1.978637 S    
C25   N2    1.381067 A    
C21   N4    1.454271 S    
Zn2   O6    1.994211 S    
H6    C13   1.085017 S    
C18   C19   1.402115 A    
C19   C20   1.392039 A    
O8    C4    1.282440 A    
O2    C1    1.286781 A    
C6    C7    1.391719 A    
O1    Zn1   1.994211 S    
O4    C2    1.282696 A    
C17   C18   1.383115 A    
O7    C4    1.282769 A    
C8    C9    1.415551 A    
N3    O10   1.301161 A    
C9    C14   1.410310 A    
C15   C22   1.495935 S    
Zn2   N1    2.019916 S    
O3    C2    1.282370 A    
C27   C28   1.519966 S    
C15   C16   1.392241 A    
C24   C25   1.421007 A    
C21   C22   1.520947 S    
C20   C21   1.499032 S    
C9    C10   1.401246 A    
Zn1   N2    2.019515 S    
N4    C29   1.444752 S    
N2    C26   1.365116 A    
C23   C26   1.406147 A    
C5    C10   1.414757 A    
Zn1   O5    1.990512 S    
O5    C3    1.286990 A    
C8    H5    1.080633 S    
C6    H3    1.082217 S    
C29   H19   1.111172 S    
C29   H20   1.111350 S    
C26   C27   1.489287 S    
C10   C11   1.410207 A    
C24   H12   1.081701 S    
H1    C12   1.084910 S    
C7    H4    1.082713 S    
C22   H11   1.111402 S    
O2    Zn2   1.990512 S    
C28   H16   1.112429 S    
C5    H2    1.080617 S    
C7    C8    1.394900 A    
N4    H17   1.032665 S    
C27   H13   1.111416 S    
O6    C3    1.286760 A    
