data_mof_unit_7850.cif
_audit_creation_date              2012-10-26T19:03:45-0400
_audit_creation_method            fapswitch 2.2
_symmetry_space_group_name_H-M    P1
_symmetry_Int_Tables_number       1
_space_group_crystal_system       triclinic
_cell_length_a                    15.905955
_cell_length_b                    13.017187
_cell_length_c                    11.77603
_cell_angle_alpha                 100.629552
_cell_angle_beta                  93.868669
_cell_angle_gamma                 92.616255
_cell_volume                      2386.73722465

loop_
_atom_site_label
_atom_site_type_symbol
_atom_type_description
_atom_site_fract_x
_atom_site_fract_y
_atom_site_fract_z
_atom_type_partial_charge
C1    C     C_R   0.495417 0.299063 0.477673 0.580372
C2    C     C_R   0.481192 0.185262 0.465210 0.020742
C3    C     C_R   0.396846 0.022151 0.390069 0.043880
C4    C     C_R   0.340461 0.499578 0.500050 0.529520
C5    C     C_R   0.415934 0.128840 0.386919 -0.039427
C6    C     C_R   0.523639 0.136940 0.547382 0.204618
C7    C     C_R   0.498052 0.034756 0.556998 -0.014957
C8    C     C_R   0.447822 0.972267 0.464640 0.009743
C9    C     C_R   0.453291 0.862636 0.448002 0.177571
C10   C     C_R   0.515492 0.883587 0.647462 0.205181
C11   C     C_R   0.520204 0.992792 0.656113 0.033782
C12   C     C_3   0.954623 0.461617 0.611334 -0.092708
C13   C     C_R   0.416996 0.402868 0.024314 -0.152254
C14   C     C_R   0.425748 0.412046 0.144633 0.063412
C15   C     C_R   0.533349 0.545467 0.159014 0.089886
C16   C     C_R   0.498178 0.701720 0.522584 0.595478
C17   C     C_R   0.525000 0.542050 0.036838 0.010596
C18   C     C_R   0.467854 0.466966 0.967396 0.013260
C19   C     C_R   0.461637 0.458593 0.843863 0.156159
C20   C     C_R   0.575366 0.588408 0.859668 0.186544
C21   C     C_R   0.573281 0.609899 0.982791 -0.023321
C22   C     C_R   0.659548 0.500146 0.499920 0.571925
C23   C     C_3   0.916338 0.496958 0.497883 0.059500
C24   C     C_3   0.051640 0.445359 0.601281 -0.143113
C25   C     C_3   0.041280 0.428382 0.379382 0.221152
C26   C     C_3   0.940891 0.416387 0.387558 0.182965
C27   C     C_1   0.748792 0.499390 0.499649 0.036185
C28   C     C_3   0.083310 0.496154 0.498416 0.060053
C29   C     C_3   0.107179 0.475965 0.717188 -0.417427
C30   C     C_3   0.933183 0.532266 0.725504 -0.368604
C31   C     C_3   0.313786 0.969210 0.332640 -0.334408
C32   C     C_3   0.537396 0.063013 0.774388 -0.295679
C33   C     C_3   0.368093 0.182428 0.300690 -0.379872
C34   C     C_3   0.955779 0.608438 0.491704 0.094065
C35   C     C_3   0.396114 0.377586 0.776539 -0.322218
C36   C     C_3   0.652397 0.629229 0.809066 -0.273568
C37   C     C_3   0.620934 0.705981 0.055616 -0.390063
C38   C     C_3   0.080564 0.320316 0.346998 -0.286959
C39   C     C_3   0.890595 0.429423 0.273464 -0.290130
C40   C     C_3   0.098676 0.692900 0.459483 -0.359094
C41   C     C_3   0.052802 0.611948 0.518665 -0.074281
C42   C     C_1   0.824043 0.498435 0.499012 0.033221
C43   C     C_1   0.175839 0.497660 0.499708 -0.018978
C44   C     C_1   0.251199 0.498658 0.500076 -0.014610
C45   C     C_R   0.490326 0.817052 0.538908 0.011805
Cl1   Cl    Cl    0.425974 0.787548 0.306829 -0.605538
Cl2   Cl    Cl    0.542080 0.835373 0.775696 -0.643157
Cl3   Cl    Cl    0.620549 0.196343 0.619539 -0.561359
Cl4   Cl    Cl    0.068678 0.491238 0.260817 -0.688350
Cl5   Cl    Cl    0.905780 0.284946 0.402480 -0.638958
Cl6   Cl    Cl    0.910278 0.715314 0.581965 -0.638359
Cu1   Cu    Cu3+1 0.506190 0.507730 0.615930 0.998252
Cu2   Cu    Cu3+1 0.493810 0.492270 0.384070 1.002369
H1    H     H_    0.923748 0.384399 0.616400 0.205818
H2    H     H_    0.171929 0.449119 0.706592 0.137867
H3    H     H_    0.971039 0.607722 0.744019 0.196811
H4    H     H_    0.865274 0.548427 0.723210 0.170515
H5    H     H_    0.945445 0.491886 0.799640 0.133338
H6    H     H_    0.261743 0.022384 0.351315 0.109041
H7    H     H_    0.317561 0.947165 0.237517 0.185187
H8    H     H_    0.295097 0.899101 0.368269 0.177918
H9    H     H_    0.497615 0.035403 0.837963 0.163695
H10   H     H_    0.604967 0.062710 0.804833 0.211058
H11   H     H_    0.519969 0.144533 0.774508 0.147282
H12   H     H_    0.942330 0.624109 0.403314 0.166780
H13   H     H_    0.317844 0.132272 0.244696 0.124883
H14   H     H_    0.338298 0.252005 0.346950 0.123513
H15   H     H_    0.412768 0.205909 0.240546 0.157708
H16   H     H_    0.410400 0.298946 0.793920 0.092200
H17   H     H_    0.332498 0.397212 0.804346 0.097374
H18   H     H_    0.390337 0.367892 0.683002 0.183828
H19   H     H_    0.694014 0.687403 0.870290 0.113674
H20   H     H_    0.693256 0.563302 0.784027 0.133890
H21   H     H_    0.635718 0.666779 0.734882 0.222946
H22   H     H_    0.624244 0.771472 0.007354 0.193612
H23   H     H_    0.057363 0.359711 0.579075 0.159074
H24   H     H_    0.587161 0.737903 0.132627 0.178291
H25   H     H_    0.685400 0.686540 0.083527 0.126568
H26   H     H_    0.075535 0.270447 0.413015 0.136760
H27   H     H_    0.048805 0.275902 0.264397 0.193788
H28   H     H_    0.148629 0.329939 0.333010 0.139723
H29   H     H_    0.898621 0.508858 0.253405 0.136257
H30   H     H_    0.911025 0.372873 0.199205 0.196719
H31   H     H_    0.821865 0.412292 0.276926 0.155939
H32   H     H_    0.168237 0.689828 0.470360 0.154737
H33   H     H_    0.078442 0.684698 0.366441 0.211069
H34   H     H_    0.369668 0.345345 0.978113 0.097790
H35   H     H_    0.083427 0.772958 0.500936 0.165116
H36   H     H_    0.384805 0.364464 0.186162 0.117064
H37   H     H_    0.579593 0.598423 0.214557 0.135905
H38   H     H_    0.066351 0.645227 0.612161 0.172768
H39   H     H_    0.112202 0.561515 0.750390 0.151670
H40   H     H_    0.081297 0.435945 0.783847 0.157016
N1    N     N_R   0.515490 0.519350 0.790130 -0.206632
N2    N     N_R   0.484510 0.480650 0.209890 -0.226119
O1    O     O_R   0.504390 0.354460 0.582000 -0.481812
O2    O     O_R   0.493940 0.341410 0.386200 -0.513688
O3    O     O_R   0.384660 0.506540 0.597940 -0.524751
O4    O     O_R   0.374210 0.493480 0.402140 -0.484028
O5    O     O_R   0.506060 0.658590 0.613800 -0.462335
O6    O     O_R   0.495610 0.645540 0.418000 -0.445204
O7    O     O_R   0.625790 0.506520 0.597860 -0.509728
O8    O     O_R   0.615340 0.493460 0.402060 -0.505739

loop_
_geom_bond_atom_site_label_1
_geom_bond_atom_site_label_2
_ccdc_geom_bond_type
C40   H32   S    
C9    C45   A    
C4    O3    A    
Cu2   N2    S    
C31   H8    S    
C7    C8    A    
Cu2   O4    S    
C25   C28   S    
C7    C11   A    
C12   C23   S    
Cu1   O7    S    
C34   Cl6   S    
C23   C42   S    
C6    Cl3   S    
C13   C18   A    
C39   H31   S    
C18   C19   A    
C26   Cl5   S    
C15   N2    A    
C26   C39   S    
C38   H26   S    
C31   H6    S    
C30   H4    S    
C28   C41   S    
C1    C2    S    
C23   C26   S    
C40   H33   S    
C24   C29   S    
C35   H17   S    
Cu2   O6    S    
C8    C9    A    
C5    C33   S    
Cu1   N1    S    
C37   H22   S    
C35   H18   S    
C9    Cl1   S    
C13   C14   A    
C2    C6    A    
C34   C41   S    
C34   H12   S    
C33   H13   S    
C32   H11   S    
C3    C8    A    
C10   C11   A    
C1    O2    A    
C24   H23   S    
C29   H2    S    
Cu2   O2    S    
C25   C26   S    
C30   H3    S    
Cu1   O5    S    
C17   C21   A    
C22   O8    A    
C31   H7    S    
C43   C44   T    
C14   H36   S    
C25   C38   S    
C23   C34   S    
C13   H34   S    
C10   C45   A    
C17   C18   A    
C3    C31   S    
C19   N1    A    
C36   H21   S    
C40   C41   S    
C41   H38   S    
C11   C32   S    
C22   C27   S    
C38   H28   S    
C2    C5    A    
C14   N2    A    
Cu1   Cu2   S    
C33   H14   S    
C15   C17   A    
C20   N1    A    
C39   H29   S    
C12   C30   S    
C16   O5    A    
C24   C28   S    
C32   H10   S    
C3    C5    A    
C16   C45   S    
C6    C7    A    
C4    C44   S    
C37   H25   S    
C12   C24   S    
C28   C43   S    
C22   O7    A    
C40   H35   S    
C32   H9    S    
C19   C35   S    
C15   H37   S    
C29   H40   S    
C27   C42   T    
C38   H27   S    
Cu2   O8    S    
C1    O1    A    
C30   H5    S    
Cu1   O3    S    
Cu1   O1    S    
C25   Cl4   S    
C36   H20   S    
C39   H30   S    
C20   C36   S    
C16   O6    A    
C21   C37   S    
C20   C21   A    
C35   H16   S    
C4    O4    A    
C10   Cl2   S    
C29   H39   S    
C12   H1    S    
C36   H19   S    
C33   H15   S    
C37   H24   S    
