data_mof_unit_60993.cif
_audit_creation_date              2013-03-05T15:43:18-0500
_audit_creation_method            fapswitch 2.2
_symmetry_space_group_name_H-M    P1
_symmetry_Int_Tables_number       1
_space_group_crystal_system       triclinic
_cell_length_a                    14.345325
_cell_length_b                    10.938009
_cell_length_c                    9.728461
_cell_angle_alpha                 89.32587
_cell_angle_beta                  89.388982
_cell_angle_gamma                 90.281412
_cell_volume                      1526.27412789

loop_
_atom_site_label
_atom_site_type_symbol
_atom_site_description
_atom_site_fract_x
_atom_site_fract_y
_atom_site_fract_z
_atom_type_partial_charge
O1    O     O_R   0.500010 0.321960 0.617040 -0.488832
O2    O     O_R   0.499990 0.321920 0.382900 -0.574375
C1    C     C_R   0.496077 0.265220 0.500994 0.757996
O3    O     O_R   0.376070 0.500020 0.617100 -0.519176
O4    O     O_R   0.376040 0.499980 0.382950 -0.588275
C2    C     C_R   0.331155 0.499948 0.500630 0.818881
Cu1   Cu    Cu3+1 0.500020 0.500020 0.638630 1.058473
Cu2   Cu    Cu3+1 0.499980 0.499980 0.361370 1.046659
O5    O     O_R   0.500010 0.678080 0.617100 -0.574350
O6    O     O_R   0.499990 0.678040 0.382960 -0.568515
O7    O     O_R   0.623960 0.500020 0.617050 -0.554396
O8    O     O_R   0.623930 0.499980 0.382900 -0.494247
C3    C     C_R   0.502626 0.734440 0.499193 0.818194
C4    C     C_R   0.668849 0.499979 0.499365 0.796091
C5    C     C_1   0.228804 0.499824 0.501648 -0.134217
C6    C     C_1   0.143383 0.499763 0.501427 0.031236
C7    C     C_1   0.042720 0.499753 0.500483 0.038731
C8    C     C_1   0.957302 0.499783 0.499522 0.036735
C9    C     C_1   0.856638 0.499847 0.498574 0.028069
C10   C     C_1   0.771212 0.499910 0.498347 -0.137426
C11   C     C_2   0.487933 0.933751 0.389063 -0.103420
C12   C     C_2   0.511789 0.865961 0.498387 -0.234599
H1    H     H_    0.466454 0.891004 0.294189 0.183976
H2    H     H_    0.539131 0.907291 0.590487 0.185863
C13   C     C_2   0.494864 0.067395 0.391072 -0.258301
C14   C     C_2   0.479070 0.133755 0.504878 0.176353
H3    H     H_    0.516394 0.111895 0.295392 0.187083
C15   C     C_2   0.438631 0.442071 0.925462 0.485882
N1    N     N_2   0.499070 0.498660 0.846910 -0.272392
H4    H     H_    0.532178 0.572931 0.888752 0.218526
C16   C     C_2   0.429953 0.466048 0.076973 -0.009850
N2    N     N_2   0.499040 0.498630 0.153040 -0.023427
H5    H     H_    0.362225 0.451375 0.125101 0.134988
N3    N     N_R   0.436309 0.081150 0.626680 0.140643
O9    O     O_R   0.471563 0.101177 0.747078 -0.293748
O10   O     O_R   0.358879 0.019312 0.618049 -0.316465
Cl1   Cl    Cl    0.359369 0.337089 0.856381 -0.503279
Cl2   Cl    Cl    0.611460 0.469405 0.092449 -0.495088

loop_
_geom_bond_atom_site_label_1
_geom_bond_atom_site_label_2
_geom_bond_distance
_ccdc_geom_bond_type
O4    Cu2   1.788087 S    
C16   H5    1.084395 S    
N1    H4    1.029245 S    
Cu1   N1    2.026023 S    
N2    Cl2   1.743468 S    
C13   H3    1.086495 S    
C1    C14   1.457326 S    
C9    C10   1.225478 T    
Cu2   O8    1.792615 S    
O2    C1    1.299694 A    
C2    C5    1.468189 S    
Cu1   Cu2   2.697323 S    
C11   C12   1.337820 D    
Cu1   O7    1.788087 S    
C15   Cl1   1.756336 S    
O3    Cu1   1.792612 S    
Cu2   O6    1.961368 S    
C15   N1    1.299347 D    
O8    C4    1.309409 A    
C3    C12   1.443849 S    
C7    C8    1.225473 T    
N3    O10   1.301638 A    
C11   H1    1.086395 S    
O4    C2    1.307493 A    
O7    C4    1.307569 A    
C12   H2    1.084576 S    
C5    C6    1.225415 T    
Cu2   N2    2.027147 S    
C4    C10   1.468368 S    
O3    C2    1.309420 A    
N3    O9    1.301245 A    
Cu1   O5    1.956401 S    
C11   C13   1.465067 S    
C8    C9    1.444203 S    
O5    C3    1.295911 A    
C13   C14   1.348753 D    
O1    Cu1   1.961370 S    
C14   N3    1.440987 S    
C15   C16   1.504115 S    
O2    Cu2   1.956402 S    
C16   N2    1.294313 D    
C6    C7    1.444169 S    
O1    C1    1.296290 A    
O6    C3    1.295276 A    
