data_mof_unit_66468.cif
_audit_creation_date              2012-10-26T21:17:11-0400
_audit_creation_method            fapswitch 2.2
_symmetry_space_group_name_H-M    P1
_symmetry_Int_Tables_number       1
_space_group_crystal_system       triclinic
_cell_length_a                    14.350054
_cell_length_b                    10.96851
_cell_length_c                    9.681062
_cell_angle_alpha                 91.048335
_cell_angle_beta                  90.001997
_cell_angle_gamma                 90.127624
_cell_volume                      1523.52783722

loop_
_atom_site_label
_atom_site_type_symbol
_atom_type_description
_atom_site_fract_x
_atom_site_fract_y
_atom_site_fract_z
_atom_type_partial_charge
C1    C     C_R   0.499337 0.265267 0.498217 0.550223
C2    C     C_R   0.505171 0.734449 0.501403 0.567670
C3    C     C_R   0.668964 0.499995 0.499964 0.542814
C4    C     C_1   0.228724 0.499958 0.500038 -0.042173
C5    C     C_1   0.143330 0.499944 0.500023 -0.042198
C6    C     C_1   0.042697 0.499949 0.499995 -0.001318
C7    C     C_1   0.957304 0.499962 0.499972 -0.001549
C8    C     C_1   0.856672 0.499982 0.499951 -0.042814
C9    C     C_3   0.579731 0.913998 0.629004 -0.393163
C10   C     C_3   0.562456 0.110421 0.256127 -0.358374
C11   C     C_1   0.771279 0.499993 0.499947 -0.042549
C12   C     C_2   0.504813 0.930591 0.393904 -0.123127
C13   C     C_2   0.525654 0.864430 0.505485 -0.020823
C14   C     C_2   0.519282 0.062359 0.386664 -0.034703
C15   C     C_2   0.491021 0.133517 0.493941 -0.103794
C16   C     C_2   0.448252 0.427151 0.920622 -0.013708
C17   C     C_2   0.449843 0.425231 0.076357 -0.022222
C18   C     C_R   0.331041 0.499997 0.500032 0.545252
Cu1   Cu    Cu3+1 0.500020 0.500020 0.638630 0.927611
Cu2   Cu    Cu3+1 0.499980 0.499980 0.361370 0.921299
H1    H     H_    0.474960 0.886632 0.302515 0.138293
H2    H     H_    0.587061 0.034396 0.188130 0.116167
H3    H     H_    0.510298 0.162804 0.197020 0.148845
H4    H     H_    0.623691 0.168681 0.281699 0.152300
H5    H     H_    0.458892 0.092764 0.583595 0.096410
H6    H     H_    0.401675 0.363740 0.867846 0.136973
H7    H     H_    0.544904 0.557269 0.895132 0.203484
H8    H     H_    0.406253 0.358312 0.126472 0.132936
H9    H     H_    0.538953 0.564222 0.107378 0.206062
H10   H     H_    0.630019 0.844586 0.665052 0.137980
H11   H     H_    0.621856 0.995498 0.603580 0.137995
H12   H     H_    0.531116 0.935929 0.715049 0.128642
N1    N     N_2   0.499070 0.498660 0.846910 -0.338504
N2    N     N_2   0.499040 0.498630 0.153040 -0.340772
O1    O     O_R   0.500010 0.321960 0.617040 -0.493768
O2    O     O_R   0.499990 0.321920 0.382900 -0.491185
O3    O     O_R   0.376070 0.500020 0.617100 -0.472898
O4    O     O_R   0.376040 0.499980 0.382950 -0.471675
O5    O     O_R   0.500010 0.678080 0.617100 -0.487501
O6    O     O_R   0.499990 0.678040 0.382960 -0.499170
O7    O     O_R   0.623960 0.500020 0.617050 -0.477025
O8    O     O_R   0.623930 0.499980 0.382900 -0.475944

loop_
_geom_bond_atom_site_label_1
_geom_bond_atom_site_label_2
_ccdc_geom_bond_type
Cu2   O8    S    
C3    O8    A    
C6    C7    T    
C1    C15   S    
C10   H3    S    
Cu2   O4    S    
C2    O5    A    
Cu1   Cu2   S    
Cu2   N2    S    
C18   O4    A    
C4    C18   S    
C7    C8    S    
C16   N1    D    
Cu1   O1    S    
H7    N1    S    
C16   C17   S    
Cu1   O5    S    
C9    H10   S    
C8    C11   T    
C12   H1    S    
C18   O3    A    
C12   C14   S    
C16   H6    S    
C5    C6    S    
Cu2   O6    S    
C15   H5    S    
C3    C11   S    
C17   N2    D    
C9    H11   S    
Cu2   O2    S    
C2    O6    A    
C12   C13   D    
C1    O1    A    
C10   C14   S    
C2    C13   S    
C9    C13   S    
C14   C15   D    
C3    O7    A    
Cu1   O3    S    
C9    H12   S    
C10   H4    S    
C17   H8    S    
H9    N2    S    
C10   H2    S    
Cu1   O7    S    
C1    O2    A    
Cu1   N1    S    
C4    C5    T    
