data_mof_unit_7384.cif
_audit_creation_date              2012-12-11T14:33:54-0500
_audit_creation_method            fapswitch 2.2
_symmetry_space_group_name_H-M    P1
_symmetry_Int_Tables_number       1
_space_group_crystal_system       triclinic
_cell_length_a                    13.845064
_cell_length_b                    13.976876
_cell_length_c                    27.357615
_cell_angle_alpha                 89.898549
_cell_angle_beta                  90.144014
_cell_angle_gamma                 119.660229
_cell_volume                      4600.33283311

loop_
_atom_site_label
_atom_site_type_symbol
_atom_type_description
_atom_site_fract_x
_atom_site_fract_y
_atom_site_fract_z
_atom_type_partial_charge
C1    C     C_R   0.234002 0.787042 0.568810 0.538721
C2    C     C_R   0.212661 0.446694 0.568817 0.541049
C3    C     C_R   0.552766 0.765228 0.569028 0.538331
C4    C     C_3   0.651796 0.732126 0.790665 0.215743
C5    C     C_3   0.249556 0.942665 0.784904 0.212022
C6    C     C_3   0.058324 0.317932 0.786122 0.213743
C7    C     C_3   0.633298 0.720326 0.734525 -0.279324
C8    C     C_3   0.264470 0.929376 0.729693 -0.281193
C9    C     C_3   0.074310 0.349594 0.731109 -0.279801
C10   C     C_1   0.706133 0.862357 0.860368 0.039779
C11   C     C_1   0.115100 0.876850 0.853315 0.100967
C12   C     C_1   0.116506 0.235760 0.852896 0.098109
C13   C     C_1   0.628546 0.814528 0.658970 0.050437
C14   C     C_1   0.177601 0.816785 0.656676 0.056280
C15   C     C_1   0.179916 0.361113 0.656707 0.054074
C16   C     C_1   0.601042 0.796020 0.616716 0.049532
C17   C     C_1   0.199664 0.805211 0.615406 0.050363
C18   C     C_1   0.193634 0.394676 0.615427 0.049455
C19   C     C_R   0.066181 0.151510 0.096258 0.578465
C20   C     C_R   0.776724 0.883882 0.088064 0.584560
C21   C     C_R   0.116652 0.893141 0.087875 0.596742
C22   C     C_R   0.069812 0.161339 0.943162 0.517073
C23   C     C_R   0.779632 0.887116 0.950780 0.548389
C24   C     C_R   0.091137 0.928897 0.943227 0.513030
C25   C     C_R   0.612814 0.893431 0.360814 -0.126961
C26   C     C_R   0.099495 0.728818 0.362074 -0.127226
C27   C     C_R   0.267335 0.361929 0.364257 -0.127598
C28   C     C_R   0.636400 0.908337 0.310981 -0.019149
C29   C     C_R   0.084001 0.737646 0.312111 -0.017682
C30   C     C_R   0.246547 0.312642 0.318115 -0.018953
C31   C     C_R   0.670711 0.927964 0.208811 0.046555
C32   C     C_R   0.063462 0.748862 0.209685 0.056575
C33   C     C_R   0.211522 0.236666 0.220501 0.056936
C34   C     C_R   0.232686 0.788057 0.431653 0.546267
C35   C     C_R   0.211609 0.444369 0.431575 0.548500
C36   C     C_R   0.555168 0.767094 0.431731 0.547049
C37   C     C_R   0.634610 0.994114 0.233418 0.229380
C38   C     C_R   0.980059 0.659110 0.236732 0.247099
C39   C     C_R   0.314720 0.268830 0.244146 0.245932
C40   C     C_R   0.620058 0.984744 0.284451 -0.135715
C41   C     C_R   0.992429 0.654165 0.287635 -0.131190
C42   C     C_R   0.331043 0.307503 0.292587 -0.130891
C43   C     C_R   0.697044 0.939062 0.158025 0.233926
C44   C     C_R   0.055321 0.761447 0.158522 0.231751
C45   C     C_R   0.193397 0.208122 0.170163 0.239961
C46   C     C_R   0.723178 0.863901 0.135906 0.016876
C47   C     C_R   0.136397 0.857681 0.135223 0.005404
C48   C     C_R   0.088512 0.176161 0.148750 0.002111
C49   C     C_R   0.656343 0.745120 0.362951 -0.127451
C50   C     C_R   0.267464 0.907468 0.360501 -0.124468
C51   C     C_R   0.076585 0.324264 0.368680 -0.126310
C52   C     C_R   0.678709 0.758013 0.313256 0.025783
C53   C     C_R   0.256167 0.914796 0.310613 0.023381
C54   C     C_R   0.054818 0.275180 0.322657 0.025143
C55   C     C_R   0.666875 0.838800 0.286791 0.054999
C56   C     C_R   0.164882 0.828705 0.285917 0.052001
C57   C     C_R   0.141228 0.272514 0.296447 0.052316
C58   C     C_R   0.703909 0.685238 0.289091 -0.126830
C59   C     C_R   0.339151 0.003626 0.284771 -0.125955
C60   C     C_R   0.949714 0.234492 0.301363 -0.122082
C61   C     C_R   0.713980 0.689949 0.238711 -0.104558
C62   C     C_R   0.332849 0.006640 0.234369 -0.070631
C63   C     C_R   0.931676 0.196423 0.253440 -0.111140
C64   C     C_R   0.703099 0.769995 0.212305 -0.004384
C65   C     C_R   0.241788 0.923011 0.209606 0.005128
C66   C     C_R   0.018254 0.198251 0.226307 0.003897
C67   C     C_3   0.564583 0.855616 0.737041 0.343237
C68   C     C_3   0.137005 0.726300 0.738622 0.297517
C69   C     C_3   0.273956 0.398683 0.737716 0.302159
C70   C     C_R   0.681203 0.846556 0.235982 -0.015180
C71   C     C_R   0.156400 0.833152 0.235028 -0.023006
C72   C     C_R   0.123474 0.234492 0.247878 -0.015317
C73   C     C_R   0.717142 0.775556 0.162499 -0.159551
C74   C     C_R   0.232769 0.932183 0.159955 -0.142180
C75   C     C_R   0.001659 0.168091 0.177393 -0.178837
C76   C     C_R   0.616142 0.807368 0.386034 0.001708
C77   C     C_R   0.194652 0.810993 0.385590 0.001732
C78   C     C_R   0.184095 0.372682 0.388571 0.000807
C79   C     C_3   0.771257 0.920791 0.723392 0.104362
C80   C     C_3   0.060768 0.854051 0.714709 0.105131
C81   C     C_3   0.124307 0.203258 0.713790 0.107077
C82   C     C_3   0.789790 0.933854 0.779747 -0.218862
C83   C     C_3   0.043658 0.868519 0.769838 -0.232387
C84   C     C_3   0.107715 0.170573 0.768725 -0.238056
C85   C     C_1   0.733961 0.873001 0.902634 0.040328
C86   C     C_1   0.103996 0.898937 0.894685 0.058553
C87   C     C_1   0.097424 0.202963 0.894382 0.050571
C88   C     C_3   0.649895 0.829432 0.711932 -0.035428
C89   C     C_3   0.158422 0.829858 0.708428 -0.029692
C90   C     C_3   0.164628 0.328258 0.708330 -0.029533
C91   C     C_3   0.586800 0.873021 0.793232 0.550303
C92   C     C_3   0.113357 0.739035 0.793534 0.554960
C93   C     C_3   0.258829 0.361102 0.792389 0.558085
C94   C     C_3   0.683058 0.850350 0.807462 0.020712
C95   C     C_3   0.130121 0.856772 0.801818 0.042488
C96   C     C_3   0.135332 0.271307 0.801454 0.046029
Cr1   Cr    Cr6+3 0.164410 0.584450 0.499910 1.050801
Cr2   Cr    Cr6+3 0.415550 0.579960 0.499910 1.051228
Cr3   Cr    Cr6+3 0.420040 0.835590 0.499910 1.049291
Cr4   Cr    Cr6+3 0.155170 0.075460 0.019960 1.111180
Cr5   Cr    Cr6+3 0.924540 0.079710 0.019960 1.088157
Cr6   Cr    Cr6+3 0.920290 0.844830 0.019960 1.101123
H1    H     H_    0.479514 0.784852 0.730731 0.113733
H2    H     H_    0.212529 0.717432 0.736300 0.104420
H3    H     H_    0.294863 0.486511 0.735853 0.094037
H4    H     H_    0.582203 0.942348 0.378718 0.131615
H5    H     H_    0.041968 0.654841 0.381660 0.128463
H6    H     H_    0.350113 0.397658 0.379810 0.130103
H7    H     H_    0.592403 0.035011 0.303336 0.087362
H8    H     H_    0.930188 0.584694 0.308241 0.089795
H9    H     H_    0.411029 0.335936 0.310077 0.090778
H10   H     H_    0.734390 0.715840 0.145146 0.179280
H11   H     H_    0.297339 0.003838 0.141247 0.190357
H12   H     H_    0.921466 0.141719 0.160798 0.127580
H13   H     H_    0.730537 0.631103 0.220297 0.168991
H14   H     H_    0.398394 0.075242 0.214689 0.177489
H15   H     H_    0.851093 0.169236 0.236980 0.127883
H16   H     H_    0.712070 0.622384 0.308927 0.101319
H17   H     H_    0.410158 0.069344 0.303393 0.091595
H18   H     H_    0.882537 0.235501 0.321181 0.105480
H19   H     H_    0.660222 0.679531 0.382530 0.129687
H20   H     H_    0.339950 0.972600 0.378628 0.132182
H21   H     H_    0.011132 0.330135 0.387739 0.131079
H22   H     H_    0.828689 0.893901 0.708373 0.190448
H23   H     H_    0.083924 0.933319 0.695985 0.198149
H24   H     H_    0.041985 0.156527 0.695410 0.202744
H25   H     H_    0.815054 0.019150 0.791566 0.224950
H26   H     H_    0.957969 0.807914 0.781687 0.224208
H27   H     H_    0.160811 0.135603 0.779669 0.230358
H28   H     H_    0.859702 0.919894 0.789775 0.118145
H29   H     H_    0.051803 0.950434 0.775586 0.100082
H30   H     H_    0.020257 0.105294 0.774741 0.121708
H31   H     H_    0.547797 0.651946 0.726676 0.131316
H32   H     H_    0.337684 0.917614 0.724486 0.166172
H33   H     H_    0.098593 0.438010 0.727177 0.144860
H34   H     H_    0.692016 0.697432 0.717512 0.216348
H35   H     H_    0.282553 0.005986 0.709764 0.211760
H36   H     H_    0.994194 0.301238 0.711213 0.216894
H37   H     H_    0.574226 0.670894 0.809319 0.181670
H38   H     H_    0.311533 0.930313 0.805863 0.221005
H39   H     H_    0.078588 0.392268 0.808268 0.198185
O1    O     O_R   0.137150 0.468200 0.553200 -0.499159
O2    O     O_R   0.531800 0.668950 0.553200 -0.498453
O3    O     O_R   0.331050 0.862850 0.553200 -0.495349
O4    O     O_R   0.179100 0.982980 0.967000 -0.475531
O5    O     O_R   0.017020 0.196120 0.967000 -0.455245
O6    O     O_R   0.803880 0.820900 0.967000 -0.489558
O7    O     O_R   0.173970 0.688730 0.549930 -0.486849
O8    O     O_R   0.311270 0.485240 0.549930 -0.486413
O9    O     O_R   0.514760 0.826030 0.549930 -0.484235
O10   O     O_R   0.140110 0.470540 0.446010 -0.519779
O11   O     O_R   0.529460 0.669570 0.446010 -0.519526
O12   O     O_R   0.330430 0.859890 0.446010 -0.522482
O13   O     O_R   0.176710 0.690910 0.450560 -0.503301
O14   O     O_R   0.309090 0.485800 0.450560 -0.503013
O15   O     O_R   0.514200 0.823290 0.450560 -0.505423
O16   O     O_3   0.333333 0.666667 0.499990 -0.279985
O17   O     O_R   0.176750 0.985260 0.074180 -0.508245
O18   O     O_R   0.014740 0.191490 0.074180 -0.484495
O19   O     O_R   0.808510 0.823250 0.074180 -0.510734
O20   O     O_R   0.146100 0.172630 0.068980 -0.420301
O21   O     O_R   0.827370 0.973470 0.068980 -0.479374
O22   O     O_R   0.026530 0.853900 0.068980 -0.439969
O23   O     O_3   0.000000 0.000000 0.020040 -0.333029
O24   O     O_R   0.148270 0.170520 0.969620 -0.474924
O25   O     O_R   0.829480 0.977750 0.969620 -0.515970
O26   O     O_R   0.022250 0.851730 0.969620 -0.466872
F1    F     F_    0.616679 0.980963 0.805160 -0.539050
F2    F     F_    0.004597 0.661156 0.805296 -0.531962
F3    F     F_    0.327523 0.317427 0.803085 -0.515818
O27   O     O_3   0.488577 0.800652 0.818283 -0.720262
H40   H     H_    0.495328 0.829312 0.852018 0.371562
O28   O     O_3   0.186027 0.722791 0.823991 -0.690202
H41   H     H_    0.164200 0.643756 0.821492 0.370319
O29   O     O_3   0.287500 0.451751 0.823237 -0.708819
H42   H     H_    0.369129 0.500611 0.820453 0.365571
F4    F     F_    0.734762 0.708516 0.803524 -0.599519
F5    F     F_    0.271776 0.048971 0.794284 -0.603683
F6    F     F_    0.947900 0.241116 0.794884 -0.605205
O30   O     O_3   0.700970 0.022324 0.129472 -0.637053
H43   H     H_    0.739207 0.091543 0.148395 0.355181
O31   O     O_3   0.968224 0.684370 0.131032 -0.637919
H44   H     H_    0.969055 0.614280 0.135017 0.367449
O32   O     O_3   0.277450 0.214804 0.141067 -0.632127
H45   H     H_    0.338127 0.292493 0.142488 0.364700
O33   O     O_3   0.608942 0.063416 0.207383 -0.689052
H46   H     H_    0.589302 0.105810 0.230398 0.312353
O34   O     O_3   0.886937 0.577679 0.213486 -0.698199
H47   H     H_    0.837944 0.522057 0.237751 0.313918
O35   O     O_3   0.398886 0.262905 0.219780 -0.698611
H48   H     H_    0.464019 0.287409 0.241737 0.312119
F7    F     F_    0.565984 0.946448 0.715793 -0.572651
F8    F     F_    0.050555 0.631013 0.718790 -0.578924
F9    F     F_    0.362628 0.393937 0.716816 -0.567458
O36   O     O_3   0.798761 0.021292 0.700321 -0.662044
H49   H     H_    0.764735 0.057762 0.718974 0.424019
O37   O     O_3   0.962271 0.773379 0.692237 -0.659721
H50   H     H_    0.928480 0.706919 0.713267 0.419432
O38   O     O_3   0.195739 0.173013 0.690344 -0.669000
H51   H     H_    0.262698 0.196686 0.710980 0.422787

loop_
_geom_bond_atom_site_label_1
_geom_bond_atom_site_label_2
_ccdc_geom_bond_type
C15   C18   T    
O27   H40   S    
C10   C85   T    
Cr6   O26   S    
C21   O22   A    
C81   H24   S    
C2    C18   S    
C51   H21   S    
C21   O17   A    
C50   H20   S    
C83   H26   S    
C27   C78   A    
C6    C9    S    
C53   C59   A    
C67   H1    S    
Cr2   O11   S    
O28   H41   S    
C25   C28   A    
C62   H14   S    
C67   C88   S    
C33   C39   A    
C31   C43   A    
C5    H38   S    
C60   C63   A    
C82   C94   S    
C27   H6    S    
Cr5   O21   S    
C35   O14   A    
C7    H31   S    
C37   C40   A    
C69   C93   S    
C24   O4    A    
C80   C83   S    
C34   C77   S    
C19   O20   A    
Cr2   O2    S    
C45   C48   A    
C80   H23   S    
C28   C40   A    
C11   C86   T    
C30   C57   A    
C84   H27   S    
C58   H16   S    
C79   O36   S    
O32   H45   S    
C84   C96   S    
C80   C89   S    
C7    C88   S    
C39   C42   A    
C63   H15   S    
C36   C76   S    
C33   C72   A    
O31   H44   S    
C22   O24   A    
C31   C70   A    
C66   C72   A    
C22   O5    A    
Cr6   O22   S    
C59   C62   A    
C61   H13   S    
C64   C73   A    
Cr4   O20   S    
C32   C38   A    
C82   H28   S    
C4    F4    S    
C62   C65   A    
C44   C47   A    
C6    C96   S    
C56   C71   A    
C58   C61   A    
C63   C66   A    
C49   H19   S    
O38   H51   S    
C27   C30   A    
C48   C75   A    
Cr5   O25   S    
C35   O10   A    
C4    C7    S    
C79   C88   S    
C5    C95   S    
C28   C55   A    
C25   H4    S    
C32   C71   A    
C34   O13   A    
C32   C44   A    
Cr5   O5    S    
Cr3   O9    S    
C93   F3    S    
C26   C77   A    
C8    H32   S    
C50   C53   A    
C91   F1    S    
C24   O26   A    
C3    O2    A    
C38   C41   A    
Cr6   O19   S    
C39   O35   S    
C69   H3    S    
C67   F7    S    
C36   O11   A    
C54   C60   A    
C22   C87   S    
C74   H11   S    
C23   O6    A    
C93   O29   S    
C92   C95   S    
C65   C74   A    
C31   C37   A    
C5    F5    S    
Cr4   O24   S    
Cr1   O16   S    
C9    C90   S    
C61   C64   A    
C42   H9    S    
O34   H47   S    
C14   C89   S    
C83   H29   S    
C33   C45   A    
C80   O37   S    
Cr6   O6    S    
C5    C8    S    
C23   O25   A    
C9    H36   S    
Cr3   O3    S    
O29   H42   S    
Cr2   O16   S    
Cr4   O4    S    
C49   C52   A    
C83   C95   S    
Cr3   O15   S    
C67   C91   S    
C68   C89   S    
Cr1   O10   S    
C49   C76   A    
Cr4   O23   S    
C75   H12   S    
C6    F6    S    
Cr1   O13   S    
C6    H39   S    
C2    O1    A    
C68   F8    S    
C52   C58   A    
C4    C94   S    
C81   C90   S    
C9    H33   S    
C93   C96   S    
C64   C70   A    
C41   H8    S    
Cr3   O16   S    
C20   O19   A    
C20   O21   A    
C92   F2    S    
Cr1   O7    S    
O35   H48   S    
C69   C90   S    
C50   C77   A    
C44   O31   S    
C81   C84   S    
O30   H43   S    
C36   O15   A    
C73   H10   S    
C34   O12   A    
C11   C95   S    
Cr2   O14   S    
C3    O9    A    
C59   H17   S    
C82   H25   S    
C12   C87   T    
C29   C41   A    
C19   C48   S    
Cr5   O23   S    
C12   C96   S    
C68   H2    S    
C47   C74   A    
C26   H5    S    
C81   O38   S    
C79   C82   S    
C52   C55   A    
C37   O33   S    
C40   H7    S    
C29   C56   A    
C92   O28   S    
C79   H22   S    
C35   C78   S    
C1    C17   S    
C91   O27   S    
C51   C54   A    
C19   O18   A    
C25   C76   A    
C51   C78   A    
C7    H34   S    
C1    O3    A    
C65   C71   A    
C91   C94   S    
C15   C90   S    
C43   O30   S    
C2    O8    A    
C38   O34   S    
C66   C75   A    
Cr3   O12   S    
C13   C88   S    
C69   F9    S    
C68   C92   S    
C84   H30   S    
C60   H18   S    
C30   C42   A    
C57   C72   A    
O37   H50   S    
C43   C46   A    
C53   C56   A    
Cr1   O1    S    
C55   C70   A    
O36   H49   S    
Cr4   O17   S    
Cr5   O18   S    
C26   C29   A    
Cr6   O23   S    
C23   C85   S    
C13   C16   T    
C10   C94   S    
C8    H35   S    
C1    O7    A    
C8    C89   S    
C21   C47   S    
O33   H46   S    
C24   C86   S    
C54   C57   A    
C46   C73   A    
C20   C46   S    
C3    C16   S    
C45   O32   S    
C4    H37   S    
Cr2   O8    S    
C14   C17   T    
