data_mof_unit_58857.cif
_audit_creation_date              2013-03-05T16:48:20-0500
_audit_creation_method            fapswitch 2.2
_symmetry_space_group_name_H-M    P1
_symmetry_Int_Tables_number       1
_space_group_crystal_system       triclinic
_cell_length_a                    15.080246
_cell_length_b                    10.815457
_cell_length_c                    13.682859
_cell_angle_alpha                 89.915863
_cell_angle_beta                  89.76176
_cell_angle_gamma                 89.855392
_cell_volume                      2231.64213974

loop_
_atom_site_label
_atom_site_type_symbol
_atom_site_description
_atom_site_fract_x
_atom_site_fract_y
_atom_site_fract_z
_atom_type_partial_charge
O1    O     O_R   0.500000 0.319630 0.582270 -0.580709
O2    O     O_R   0.500000 0.680370 0.417730 -0.580709
O3    O     O_R   0.499990 0.319660 0.417730 -0.583741
O4    O     O_R   0.500010 0.680340 0.582270 -0.583743
C1    C     C_R   0.497773 0.262178 0.499936 0.812109
C2    C     C_R   0.502228 0.737822 0.500064 0.812111
O5    O     O_R   0.370260 0.499960 0.582280 -0.587440
O6    O     O_R   0.629740 0.500040 0.417720 -0.587440
O7    O     O_R   0.370250 0.499990 0.417740 -0.597342
O8    O     O_R   0.629750 0.500010 0.582260 -0.597343
C3    C     C_R   0.328484 0.501209 0.500144 0.824497
C4    C     C_R   0.671516 0.498792 0.499856 0.824493
Cu1   Cu    Cu3+1 0.500010 0.499980 0.597420 0.968388
Cu2   Cu    Cu3+1 0.499990 0.500020 0.402580 0.968388
C5    C     C_R   0.814985 0.496867 0.411346 -0.144986
C6    C     C_R   0.185015 0.503140 0.588654 -0.144979
C7    C     C_R   0.768294 0.495909 0.499835 -0.052819
C8    C     C_R   0.231706 0.504096 0.500165 -0.052814
C9    C     C_R   0.814051 0.493501 0.588680 -0.166824
C10   C     C_R   0.185949 0.506505 0.411320 -0.166832
C11   C     C_R   0.906778 0.492659 0.590445 0.008695
C12   C     C_R   0.093222 0.507351 0.409555 0.008688
C13   C     C_R   0.953524 0.497708 0.500414 0.041423
C14   C     C_R   0.046476 0.502302 0.499586 0.041420
C15   C     C_R   0.907247 0.498571 0.411010 0.072714
C16   C     C_R   0.092753 0.501439 0.588990 0.072713
C17   C     C_R   0.953983 0.490723 0.679647 0.329314
C18   C     C_R   0.046017 0.509291 0.320353 0.329311
C19   C     C_R   0.046531 0.496822 0.677730 -0.231231
C20   C     C_R   0.953469 0.503191 0.322270 -0.231234
H1    H     H_    0.779572 0.498321 0.342524 0.149185
H2    H     H_    0.220428 0.501687 0.657476 0.149183
H3    H     H_    0.776672 0.495180 0.656218 0.186821
H4    H     H_    0.223328 0.504824 0.343782 0.186823
H5    H     H_    0.082678 0.494892 0.746063 0.188412
H6    H     H_    0.917321 0.505123 0.253937 0.188413
H7    H     H_    0.282622 0.303745 0.139250 0.181768
H8    H     H_    0.717365 0.696263 0.860765 0.181767
C21   C     C_R   0.273806 0.235501 0.286760 -0.167586
C22   C     C_R   0.726187 0.764498 0.713253 -0.167580
H9    H     H_    0.207632 0.272457 0.296702 0.185316
H10   H     H_    0.792360 0.727538 0.703316 0.185324
C23   C     C_R   0.315894 0.169903 0.362661 0.343183
C24   C     C_R   0.684103 0.830092 0.637347 0.343177
C25   C     C_R   0.402812 0.122833 0.346094 0.000235
C26   C     C_R   0.597185 0.877167 0.653909 0.000238
C27   C     C_R   0.443371 0.139139 0.254355 -0.168694
C28   C     C_R   0.556622 0.860868 0.745647 -0.168698
H11   H     H_    0.509616 0.103836 0.241003 0.150820
H12   H     H_    0.490378 0.896174 0.758994 0.150822
C29   C     C_R   0.400070 0.203825 0.180227 -0.132704
C30   C     C_R   0.599919 0.796184 0.819779 -0.132711
H13   H     H_    0.432271 0.216971 0.110146 0.150390
H14   H     H_    0.567716 0.783045 0.889860 0.150392
C31   C     C_R   0.315810 0.252831 0.196683 -0.140508
C32   C     C_R   0.684180 0.747175 0.803329 -0.140506
C33   C     C_R   0.459833 0.933623 0.424634 -0.166342
C34   C     C_R   0.540169 0.066377 0.575366 -0.166357
H15   H     H_    0.426819 0.882065 0.367434 0.149231
H16   H     H_    0.573182 0.117935 0.632566 0.149231
C35   C     C_R   0.503528 0.871650 0.500272 -0.054922
C36   C     C_R   0.496473 0.128350 0.499728 -0.054936
C37   C     C_R   0.545071 0.938284 0.575903 0.066389
C38   C     C_R   0.454930 0.061716 0.424097 0.066380
C39   C     C_R   0.562326 0.432584 0.793087 0.030800
C40   C     C_R   0.437674 0.567416 0.206913 0.030800
N1    N     N_R   0.499960 0.499900 0.743810 -0.184255
N2    N     N_R   0.500040 0.500100 0.256190 -0.184255
C41   C     C_R   0.437698 0.567410 0.793486 0.027350
C42   C     C_R   0.562302 0.432590 0.206514 0.027346
C43   C     C_R   0.436119 0.568877 0.896576 -0.023655
C44   C     C_R   0.563881 0.431123 0.103424 -0.023656
C45   C     C_R   0.500003 0.500000 0.948170 0.080756
C46   C     C_R   0.499997 0.500000 0.051830 0.080755
C47   C     C_R   0.563909 0.431154 0.896157 -0.020747
C48   C     C_R   0.436091 0.568846 0.103843 -0.020747
C49   C     C_R   0.372605 0.637507 0.949059 -0.193760
C50   C     C_R   0.627395 0.362493 0.050941 -0.193758
C51   C     C_R   0.372529 0.637388 0.051781 -0.160610
C52   C     C_R   0.627471 0.362612 0.948219 -0.160608
H17   H     H_    0.610786 0.379738 0.752021 0.138757
H18   H     H_    0.389214 0.620262 0.247978 0.138758
H19   H     H_    0.389438 0.620561 0.752713 0.130666
H20   H     H_    0.610562 0.379439 0.247287 0.130666
H21   H     H_    0.322971 0.691218 0.910687 0.158697
H22   H     H_    0.677029 0.308782 0.089313 0.158696
H23   H     H_    0.322805 0.690953 0.090479 0.179692
H24   H     H_    0.677195 0.309047 0.909521 0.179690
N3    N     N_R   0.909689 0.480513 0.772503 0.110323
O9    O     O_R   0.854042 0.390822 0.788246 -0.373759
O10   O     O_R   0.936860 0.545814 0.846295 -0.326934
N4    N     N_R   0.090311 0.519506 0.227498 0.110325
O11   O     O_R   0.145961 0.609194 0.211759 -0.373759
O12   O     O_R   0.063137 0.454215 0.153701 -0.326934
N5    N     N_R   0.269394 0.151617 0.454075 0.108626
O13   O     O_R   0.198290 0.215485 0.473712 -0.360455
O14   O     O_R   0.291705 0.063313 0.513830 -0.354507
N6    N     N_R   0.730608 0.848370 0.545935 0.108625
O15   O     O_R   0.801724 0.784520 0.526315 -0.360450
O16   O     O_R   0.708287 0.936650 0.486162 -0.354512

loop_
_geom_bond_atom_site_label_1
_geom_bond_atom_site_label_2
_geom_bond_distance
_ccdc_geom_bond_type
C34   C36   1.398562 A    
C40   N2    1.367326 A    
C3    C8    1.459686 S    
C17   C19   1.397511 A    
C45   C46   1.418366 A    
N5    O13   1.301346 A    
C48   C51   1.405810 A    
C51   H23   1.083367 S    
C27   H11   1.083461 S    
O5    C3    1.290707 A    
C46   C48   1.407802 A    
O1    C1    1.287972 A    
C2    C35   1.447594 S    
C9    C11   1.398658 A    
C14   C16   1.410892 A    
C28   C30   1.394898 A    
C50   C52   1.405526 A    
C5    C15   1.391497 A    
C34   H16   1.085030 S    
C15   C20   1.398441 A    
C8    C10   1.400514 A    
C41   C43   1.410781 A    
C25   C27   1.405122 A    
O4    Cu1   1.961358 S    
C35   C37   1.411605 A    
C44   C50   1.405813 A    
C24   N6    1.445011 S    
C21   C31   1.396025 A    
C24   C26   1.422371 A    
C39   N1    1.367326 A    
C4    C7    1.459685 S    
C23   N5    1.445006 S    
C13   C14   1.402750 A    
N3    O10   1.301215 A    
C42   H20   1.082447 S    
C47   C52   1.405809 A    
C36   C38   1.411605 A    
C10   H4    1.080610 S    
C50   H22   1.083294 S    
C28   H12   1.083462 S    
C11   C17   1.415615 A    
C49   H21   1.083294 S    
C12   C18   1.415615 A    
Cu1   Cu2   2.665970 S    
C45   C47   1.407802 A    
O2    C2    1.287971 A    
C30   H14   1.082408 S    
C49   C51   1.405526 A    
C6    C16   1.391495 A    
C26   C28   1.405124 A    
C44   C46   1.407802 A    
C9    H3    1.080611 S    
C43   C45   1.407802 A    
C27   C29   1.394901 A    
C22   C32   1.396026 A    
N1    C41   1.367256 A    
O7    Cu2   1.966618 S    
C41   H19   1.082446 S    
C40   H18   1.082521 S    
O7    C3    1.289294 A    
C39   H17   1.082523 S    
C22   C24   1.409179 A    
O6    C4    1.290706 A    
C40   C48   1.410658 A    
N4    O12   1.301217 A    
C18   N4    1.437196 S    
C33   C35   1.398562 A    
C23   C25   1.422366 A    
O3    Cu2   1.961358 S    
O8    C4    1.289293 A    
O4    C2    1.284742 A    
C10   C12   1.398661 A    
N6    O16   1.300844 A    
C11   C13   1.417824 A    
C12   C14   1.417825 A    
O1    Cu1   1.961854 S    
C43   C49   1.405813 A    
C33   C38   1.387175 A    
Cu1   N1    2.003028 S    
C34   C37   1.387174 A    
C5    C7    1.398136 A    
O6    Cu2   1.968455 S    
O3    C1    1.284740 A    
O8    Cu1   1.966618 S    
C21   C23   1.409176 A    
N5    O14   1.300844 A    
C5    H1    1.084571 S    
C6    H2    1.084571 S    
C19   H5    1.084392 S    
C25   C38   1.481912 S    
C39   C47   1.410658 A    
C20   H6    1.084394 S    
C26   C37   1.481914 S    
C18   C20   1.397509 A    
C52   H24   1.083367 S    
C22   H10   1.082183 S    
N4    O11   1.301379 A    
C7    C9    1.400515 A    
C1    C36   1.447595 S    
C17   N3    1.437196 S    
C29   C31   1.393116 A    
C13   C15   1.410892 A    
O2    Cu2   1.961854 S    
C33   H15   1.085030 S    
H7    C31   1.082534 S    
O5    Cu1   1.968455 S    
H8    C32   1.082534 S    
C21   H9    1.082183 S    
C16   C19   1.398440 A    
C6    C8    1.398135 A    
N6    O15   1.301345 A    
N2    C42   1.367256 A    
Cu2   N2    2.003030 S    
C42   C44   1.410781 A    
C29   H13   1.082409 S    
N3    O9    1.301379 A    
C30   C32   1.393117 A    
