data_mof_unit_44016.cif
_audit_creation_date              2012-12-10T17:42:35-0500
_audit_creation_method            fapswitch 2.2
_symmetry_space_group_name_H-M    P1
_symmetry_Int_Tables_number       1
_space_group_crystal_system       triclinic
_cell_length_a                    9.933738
_cell_length_b                    10.718649
_cell_length_c                    13.342484
_cell_angle_alpha                 91.260925
_cell_angle_beta                  71.222295
_cell_angle_gamma                 92.144289
_cell_volume                      1344.02624422

loop_
_atom_site_label
_atom_site_type_symbol
_atom_type_description
_atom_site_fract_x
_atom_site_fract_y
_atom_site_fract_z
_atom_type_partial_charge
C1    C     C_R   0.506489 0.738908 0.490320 0.859465
C2    C     C_R   0.378941 0.474453 0.819816 -0.171381
C3    C     C_R   0.345414 0.869507 0.377130 -0.139270
C4    C     C_R   0.422473 0.489004 0.703120 0.855861
C5    C     C_R   0.225477 0.920250 0.364131 -0.138508
C6    C     C_R   0.169619 0.026605 0.421115 -0.177763
C7    C     C_R   0.242401 0.090465 0.481795 0.031883
C8    C     C_R   0.379497 0.051930 0.478986 0.050269
C9    C     C_R   0.415841 0.930560 0.442061 0.076778
C10   C     C_R   0.516597 0.871294 0.476623 -0.104079
C11   C     C_R   0.609029 0.939526 0.517654 -0.221060
C12   C     C_R   0.440242 0.521446 0.980696 0.012763
C13   C     C_R   0.596645 0.066074 0.529480 -0.202216
C14   C     C_R   0.483139 0.124244 0.510849 -0.129506
C15   C     C_R   0.810559 0.668551 0.632180 -0.163754
C16   C     C_R   0.494036 0.259251 0.505338 0.883740
C17   C     C_R   0.855691 0.750366 0.698116 -0.197174
C18   C     C_R   0.992925 0.745737 0.702016 -0.202142
C19   C     C_R   0.086657 0.660958 0.638466 -0.137864
C20   C     C_R   0.046286 0.579753 0.567847 0.152674
C21   C     C_R   0.902709 0.581703 0.566173 0.162324
C22   C     C_R   0.953077 0.424558 0.434574 -0.140709
C23   C     C_R   0.482884 0.484078 0.872842 0.005324
C24   C     C_R   0.096559 0.425783 0.433133 0.037651
C25   C     C_R   0.578075 0.505096 0.297505 0.873396
C26   C     C_R   0.797574 0.569872 0.015275 -0.180709
C27   C     C_R   0.622572 0.524606 0.184213 -0.063559
C28   C     C_R   0.234121 0.467513 0.881384 -0.018396
C29   C     C_R   0.192568 0.501699 0.987664 -0.229179
C30   C     C_R   0.293016 0.539070 0.035298 0.016064
C31   C     C_1   0.157341 0.170801 0.563572 0.183946
C32   C     C_1   0.194150 0.347181 0.357346 0.210580
C33   C     C_1   0.125960 0.418795 0.840029 0.183437
C34   C     C_R   0.547604 0.534973 0.029314 0.071365
C35   C     C_1   0.239471 0.601032 0.137111 0.122637
C36   C     C_1   0.675067 0.354062 0.751475 0.246697
C37   C     C_R   0.692300 0.547864 0.967203 0.152312
C38   C     C_R   0.731157 0.514443 0.861300 -0.274393
C39   C     C_R   0.629282 0.459326 0.822473 0.012233
C40   C     C_R   0.517325 0.514277 0.136195 -0.226833
C41   C     C_R   0.762330 0.559003 0.124713 -0.205706
H1    H     H_    0.844222 0.571806 0.161765 0.159976
H2    H     H_    0.189496 0.661906 0.646982 0.208127
H3    H     H_    0.842085 0.510359 0.814919 0.182672
H4    H     H_    0.907514 0.586487 0.967777 0.138935
H5    H     H_    0.413387 0.478118 0.181092 0.183277
H6    H     H_    0.080490 0.502853 0.033217 0.142297
H7    H     H_    0.689726 0.895225 0.541880 0.169453
H8    H     H_    0.382031 0.781985 0.337368 0.161976
H9    H     H_    0.169760 0.872409 0.316308 0.168457
H10   H     H_    0.066625 0.056647 0.421012 0.139722
H11   H     H_    0.675990 0.117971 0.554284 0.190371
H12   H     H_    0.918859 0.363218 0.381227 0.148203
H13   H     H_    0.702548 0.675581 0.636129 0.208825
H14   H     H_    0.782646 0.816032 0.748065 0.159850
H15   H     H_    0.026952 0.807850 0.754940 0.156833
N1    N     N_R   0.856860 0.501200 0.500990 -0.123193
N2    N     N_R   0.142450 0.501280 0.501020 -0.137195
N3    N     N_1   0.086329 0.234292 0.628771 -0.173373
N4    N     N_1   0.271902 0.283790 0.295758 -0.217174
N5    N     N_1   0.038077 0.377564 0.808670 -0.202489
N6    N     N_1   0.195738 0.650017 0.218760 -0.234523
N7    N     N_1   0.713182 0.269621 0.695363 -0.219496
O1    O     O_R   0.385310 0.683220 0.500000 -0.639578
O2    O     O_R   0.614640 0.683250 0.500010 -0.640983
O3    O     O_R   0.328400 0.499950 0.653610 -0.624031
O4    O     O_R   0.557730 0.499970 0.653620 -0.632851
O5    O     O_R   0.385360 0.316750 0.499990 -0.611524
O6    O     O_R   0.614690 0.316780 0.500000 -0.609913
O7    O     O_R   0.442270 0.500030 0.346380 -0.619754
O8    O     O_R   0.671600 0.500050 0.346390 -0.615694
Zn1   Zn    Zn3+2 0.346880 0.499980 0.499990 0.959843
Zn2   Zn    Zn3+2 0.653120 0.500020 0.500010 0.945757

loop_
_geom_bond_atom_site_label_1
_geom_bond_atom_site_label_2
_ccdc_geom_bond_type
C8    C9    A    
C4    O4    A    
C2    C4    S    
C24   C32   S    
C26   C37   A    
O6    Zn2   S    
C29   C30   A    
C25   O8    A    
C14   C16   S    
C6    H10   S    
C25   C27   S    
C34   C37   A    
C9    C10   A    
C17   H14   S    
C1    O2    A    
C19   C20   A    
C18   H15   S    
C27   C40   A    
O5    Zn1   S    
C16   O5    A    
C22   H12   S    
C22   N1    A    
C17   C18   A    
C3    H8    S    
O2    Zn2   S    
C7    C8    A    
C13   C14   A    
O7    Zn1   S    
C40   H5    S    
C11   C13   A    
C12   C23   A    
N2    Zn1   S    
C11   H7    S    
C37   C38   A    
C30   C35   S    
C29   H6    S    
C3    C9    A    
O4    Zn2   S    
C24   N2    A    
C28   C29   A    
C19   H2    S    
C28   C33   S    
C18   C19   A    
C6    C7    A    
C38   H3    S    
O1    Zn1   S    
C5    C6    A    
C22   C24   A    
C5    H9    S    
C7    C31   S    
C10   C11   A    
C32   N4    T    
C13   H11   S    
C20   N2    A    
C36   N7    T    
C21   N1    A    
C15   C21   A    
C38   C39   A    
C20   C21   A    
C4    O3    A    
C33   N5    T    
C15   H13   S    
C41   H1    S    
N1    Zn2   S    
C2    C23   A    
O8    Zn2   S    
C27   C41   A    
C34   C40   A    
C2    C28   A    
C25   O7    A    
C8    C14   A    
C26   H4    S    
C12   C30   A    
C15   C17   A    
C12   C34   A    
C1    O1    A    
C23   C39   A    
C36   C39   S    
O3    Zn1   S    
C16   O6    A    
C26   C41   A    
C1    C10   S    
C35   N6    T    
C3    C5    A    
C31   N3    T    
