data_mof_unit_37796.cif
_audit_creation_date              2012-12-10T19:07:01-0500
_audit_creation_method            fapswitch 2.2
_symmetry_space_group_name_H-M    P1
_symmetry_Int_Tables_number       1
_space_group_crystal_system       triclinic
_cell_length_a                    27.776863
_cell_length_b                    10.822188
_cell_length_c                    9.578694
_cell_angle_alpha                 90.410032
_cell_angle_beta                  90.782487
_cell_angle_gamma                 91.045108
_cell_volume                      2878.59058444

loop_
_atom_site_label
_atom_site_type_symbol
_atom_type_description
_atom_site_fract_x
_atom_site_fract_y
_atom_site_fract_z
_atom_type_partial_charge
C1    C     C_R   0.500090 0.262468 0.499563 0.809616
C2    C     C_R   0.277712 0.464059 0.382777 -0.095644
C3    C     C_R   0.253417 0.512175 0.497978 0.325363
C4    C     C_R   0.101046 0.501417 0.490512 -0.046828
C5    C     C_R   0.126637 0.452392 0.604485 -0.023194
C6    C     C_R   0.101243 0.402022 0.716199 -0.131454
C7    C     C_R   0.126552 0.559620 0.382729 -0.018993
C8    C     C_R   0.354616 0.506052 0.498150 -0.056677
C9    C     C_R   0.644677 0.501386 0.501948 -0.159427
C10   C     C_R   0.974219 0.410432 0.579047 -0.024748
C11   C     C_R   0.973372 0.551327 0.377099 0.053079
C12   C     C_R   0.407532 0.501536 0.499265 0.828659
C13   C     C_R   0.948509 0.481341 0.479494 0.064645
C14   C     C_R   0.947752 0.324648 0.662388 -0.043358
C15   C     C_R   0.897573 0.332380 0.668558 -0.176392
C16   C     C_R   0.872294 0.411945 0.581140 -0.051479
C17   C     C_R   0.897452 0.482265 0.482185 -0.040248
C18   C     C_R   0.871429 0.553876 0.386172 -0.020778
C19   C     C_R   0.820958 0.554487 0.391594 0.555960
C20   C     C_R   0.821856 0.418286 0.586086 0.569029
C21   C     C_R   0.717701 0.383813 0.484491 -0.065979
C22   C     C_R   0.667663 0.388035 0.487801 -0.289504
C23   C     C_R   0.499369 0.737463 0.500147 0.883167
C24   C     C_R   0.672129 0.612164 0.512601 0.403226
C25   C     C_R   0.722437 0.606518 0.512487 -0.146038
C26   C     C_R   0.745438 0.492886 0.497443 0.252750
C27   C     C_R   0.024942 0.429297 0.591421 0.063308
C28   C     C_R   0.049976 0.492887 0.484873 0.074170
C29   C     C_R   0.024457 0.549476 0.374002 0.046677
C30   C     C_R   0.051244 0.393817 0.711340 -0.150638
C31   C     C_R   0.101214 0.609483 0.269999 -0.133575
C32   C     C_R   0.946132 0.622593 0.282549 -0.192889
C33   C     C_R   0.896184 0.623370 0.286945 -0.123396
C34   C     C_R   0.592182 0.501486 0.500752 0.886668
C35   C     C_R   0.051164 0.604509 0.265378 -0.198166
C36   C     C_R   0.480016 0.063850 0.611517 0.045401
C37   C     C_R   0.497486 0.129036 0.497194 -0.084605
C38   C     C_R   0.509532 0.063516 0.376084 -0.190217
C39   C     C_R   0.508786 0.934952 0.376177 -0.113661
C40   C     C_R   0.496243 0.870521 0.497809 -0.131944
C41   C     C_R   0.478537 0.936397 0.611480 0.068095
C42   C     C_3   0.491585 0.931332 0.763332 0.301459
C43   C     C_3   0.494122 0.071976 0.762191 -0.463150
C44   C     C_R   0.520371 0.596283 0.075476 0.249764
C45   C     C_R   0.177192 0.456571 0.605019 0.547911
C46   C     C_R   0.476287 0.409384 0.069869 0.039476
C47   C     C_R   0.476369 0.410978 0.921935 -0.090075
C48   C     C_R   0.520556 0.595978 0.928429 0.334452
C49   C     C_3   0.571910 0.638256 0.926016 -0.468638
C50   C     C_3   0.571633 0.638804 0.084291 -0.453089
C51   C     C_R   0.177062 0.566005 0.389743 0.543820
C52   C     C_R   0.280186 0.558472 0.612879 -0.081947
C53   C     C_R   0.330368 0.553807 0.613820 -0.186162
C54   C     C_R   0.327852 0.463100 0.381806 -0.182358
Cu1   Cu    Cu3+1 0.500000 0.499980 0.640670 1.013911
Cu2   Cu    Cu3+1 0.500000 0.500020 0.359330 1.004844
H1    H     H_    0.345453 0.426915 0.290838 0.210324
H2    H     H_    0.262119 0.597598 0.701875 0.169747
H3    H     H_    0.119989 0.652840 0.184345 0.191000
H4    H     H_    0.962402 0.682001 0.206030 0.148645
H5    H     H_    0.877036 0.680049 0.212634 0.195842
H6    H     H_    0.744054 0.690452 0.521880 0.207613
H7    H     H_    0.034453 0.642677 0.173573 0.145085
H8    H     H_    0.522160 0.111087 0.284212 0.197415
H9    H     H_    0.520654 0.886631 0.283777 0.199358
H10   H     H_    0.257690 0.426965 0.293702 0.167008
H11   H     H_    0.526799 0.887674 0.784020 0.103973
H12   H     H_    0.466212 0.118086 0.824500 0.260005
H13   H     H_    0.531263 0.109948 0.778482 0.179379
H14   H     H_    0.457615 0.339045 0.862676 0.160521
H15   H     H_    0.596135 0.568047 0.881259 0.228841
H16   H     H_    0.576082 0.732462 0.882664 0.236449
H17   H     H_    0.595794 0.568918 0.130664 0.232071
H18   H     H_    0.575375 0.733143 0.130111 0.238920
H19   H     H_    0.119869 0.369801 0.808731 0.190195
H20   H     H_    0.646742 0.302836 0.477820 0.159263
H21   H     H_    0.734949 0.295702 0.470868 0.173111
H22   H     H_    0.877885 0.269836 0.735859 0.218207
H23   H     H_    0.033599 0.361913 0.804439 0.148990
H24   H     H_    0.350210 0.589054 0.704178 0.201333
N1    N     N_R   0.201516 0.512502 0.498275 -0.464147
N2    N     N_R   0.797160 0.488733 0.491939 -0.455501
N3    N     N_R   0.500300 0.500930 0.147930 -0.237312
N4    N     N_R   0.500310 0.500890 0.852020 -0.197918
O1    O     O_R   0.500000 0.319640 0.618810 -0.595191
O2    O     O_2   0.797754 0.355374 0.685106 -0.521749
O3    O     O_2   0.201511 0.625996 0.289186 -0.528949
O4    O     O_2   0.795850 0.619432 0.296393 -0.516512
O5    O     O_R   0.500010 0.319680 0.381230 -0.580964
O6    O     O_R   0.430260 0.500000 0.618780 -0.567028
O7    O     O_R   0.430270 0.500040 0.381190 -0.547852
O8    O     O_R   0.499990 0.680320 0.618770 -0.546709
O9    O     O_R   0.500000 0.680360 0.381190 -0.586052
O10   O     O_R   0.569730 0.499960 0.618810 -0.573373
O11   O     O_R   0.569740 0.500000 0.381220 -0.579538
O12   O     O_2   0.201759 0.402948 0.710160 -0.529865
S1    S     S_3+6 0.644672 0.758335 0.518280 -0.015955
O13   O     O_2   0.616413 0.776338 0.385392 -0.330879
O14   O     O_2   0.611109 0.763548 0.639542 -0.347587
O15   O     O_3   0.686475 0.872053 0.535250 -0.516907
H25   H     H_    0.668008 0.949506 0.535133 0.376787
S2    S     S_3+6 0.443298 0.871126 0.866844 0.000481
O16   O     O_2   0.399375 0.949144 0.850263 -0.260640
O17   O     O_2   0.431018 0.740937 0.821932 -0.304356
O18   O     O_3   0.461162 0.872099 0.035236 -0.559003
H26   H     H_    0.435312 0.827176 0.085201 0.372153
C55   C     C_2   0.451426 0.302006 0.131954 0.868562
O19   O     O_2   0.418979 0.316045 0.214492 -0.586387
O20   O     O_R   0.462663 0.183143 0.086507 -0.783231
H27   H     H_    0.442004 0.116772 0.131598 0.368492
C56   C     C_2   0.969628 0.213498 0.725576 0.831831
O21   O     O_2   0.954309 0.172377 0.835324 -0.582476
O22   O     O_R   0.006751 0.153331 0.656903 -0.738373
H28   H     H_    0.018468 0.078532 0.709620 0.342651

loop_
_geom_bond_atom_site_label_1
_geom_bond_atom_site_label_2
_ccdc_geom_bond_type
C10   C27   A    
Cu2   O11   S    
C44   C48   A    
C21   C26   A    
C20   N2    A    
C39   H9    S    
C41   C42   S    
C12   O7    A    
C56   O21   D    
C22   H20   S    
Cu1   Cu2   S    
C44   N3    A    
S1    O13   D    
C6    H19   S    
C28   C29   A    
Cu1   O8    S    
C12   O6    A    
C36   C37   A    
Cu1   O6    S    
Cu1   O10   S    
C5    C6    A    
C9    C22   A    
C15   H22   S    
C42   H11   S    
C23   C40   S    
S2    O18   S    
C18   C19   A    
C31   H3    S    
C4    C28   A    
Cu2   O7    S    
C43   H12   S    
C49   H16   S    
C20   O2    S    
C3    N1    S    
C55   O19   D    
C19   N2    A    
C51   N1    A    
C16   C20   A    
C26   N2    S    
C21   C22   A    
C27   C30   A    
C55   O20   S    
C36   C41   A    
Cu2   O9    S    
C4    C7    A    
C42   S2    S    
S1    O14   D    
C38   H8    S    
C1    O1    A    
C14   C56   S    
C7    C31   A    
C24   S1    S    
C53   H24   S    
C34   O11   A    
C19   O4    S    
C2    C54   A    
C50   H17   S    
C51   O3    S    
C39   C40   A    
C16   C17   A    
C25   C26   A    
C5    C45   A    
C23   O9    A    
Cu1   O1    S    
C47   H14   S    
C37   C38   A    
C8    C12   S    
C46   C55   S    
C17   C18   A    
C56   O22   S    
C47   N4    A    
C24   C25   A    
S2    O17   D    
C52   H2    S    
C30   H23   S    
Cu2   O5    S    
C6    C30   A    
C11   C32   A    
C10   C14   A    
C9    C34   S    
C31   C35   A    
C42   C43   S    
C32   H4    S    
C8    C54   A    
S1    O15   S    
C52   C53   A    
Cu2   N3    S    
O22   H28   S    
C44   C50   S    
C46   C47   A    
C40   C41   A    
C1    O5    A    
C14   C15   A    
C45   N1    A    
C34   O10   A    
C4    C5    A    
C2    H10   S    
C10   C13   A    
C8    C53   A    
C3    C52   A    
C9    C24   A    
C1    C37   S    
O18   H26   S    
C29   C35   A    
C13   C17   A    
C32   C33   A    
C50   H18   S    
C2    C3    A    
C7    C51   A    
O20   H27   S    
C11   C13   A    
C38   C39   A    
C48   C49   S    
O15   H25   S    
C25   H6    S    
S2    O16   D    
C18   C33   A    
C46   N3    A    
C48   N4    A    
C11   C29   A    
C33   H5    S    
C49   C50   S    
C49   H15   S    
C21   H21   S    
C27   C28   A    
C23   O8    A    
C36   C43   S    
C35   H7    S    
Cu1   N4    S    
C43   H13   S    
C45   O12   S    
C15   C16   A    
C54   H1    S    
