data_mof_unit_29564.cif
_audit_creation_date              2013-03-05T16:30:35-0500
_audit_creation_method            fapswitch 2.2
_symmetry_space_group_name_H-M    P1
_symmetry_Int_Tables_number       1
_space_group_crystal_system       triclinic
_cell_length_a                    8.743042
_cell_length_b                    10.886479
_cell_length_c                    9.61789
_cell_angle_alpha                 89.183149
_cell_angle_beta                  97.871828
_cell_angle_gamma                 93.481169
_cell_volume                      905.124003096

loop_
_atom_site_label
_atom_site_type_symbol
_atom_site_description
_atom_site_fract_x
_atom_site_fract_y
_atom_site_fract_z
_atom_type_partial_charge
O1    O     O_R   0.500000 0.319640 0.618810 -0.547990
O2    O     O_R   0.500020 0.319680 0.381230 -0.556139
C1    C     C_R   0.499510 0.262448 0.500711 0.836165
O3    O     O_R   0.274830 0.499980 0.591380 -0.559833
O4    O     O_R   0.274850 0.500020 0.353800 -0.520001
C2    C     C_R   0.203833 0.493402 0.464110 0.836816
Cu1   Cu    Cu3+1 0.499990 0.499980 0.640670 1.078517
Cu2   Cu    Cu3+1 0.500010 0.500020 0.359330 1.100558
O5    O     O_R   0.499980 0.680320 0.618770 -0.596059
O6    O     O_R   0.500000 0.680360 0.381190 -0.593280
O7    O     O_R   0.725150 0.499980 0.646200 -0.541350
O8    O     O_R   0.725170 0.500020 0.408620 -0.540050
C3    C     C_R   0.500185 0.737382 0.499297 0.836054
C4    C     C_R   0.795596 0.497838 0.535766 0.906446
C5    C     C_2   0.037687 0.470947 0.446947 0.161762
C6    C     C_2   0.961782 0.501069 0.552907 -0.318059
H1    H     H_    0.022591 0.539492 0.649951 0.234152
C7    C     C_R   0.483565 0.060151 0.622172 0.053835
C8    C     C_R   0.506933 0.129302 0.502538 -0.068724
C9    C     C_R   0.541522 0.068140 0.384083 -0.075806
H2    H     H_    0.565877 0.118619 0.291091 0.217497
C10   C     C_R   0.538155 0.940072 0.382027 -0.090928
H3    H     H_    0.554770 0.895950 0.286402 0.181643
C11   C     C_R   0.506447 0.870959 0.500050 -0.041729
C12   C     C_R   0.483930 0.932904 0.621054 0.019077
C13   C     C_3   0.350575 0.918793 0.704014 0.117396
C14   C     C_3   0.349487 0.057591 0.703586 -0.358573
H4    H     H_    0.380297 0.879941 0.810899 0.125819
H5    H     H_    0.244327 0.093320 0.641922 0.262075
H6    H     H_    0.382736 0.097168 0.810077 0.237251
C15   C     C_R   0.613132 0.565779 0.086281 0.129249
N1    N     N_R   0.500980 0.500930 0.148050 -0.288645
C16   C     C_R   0.405594 0.419802 0.063356 0.353170
C17   C     C_R   0.392457 0.431017 0.915150 0.325485
N2    N     N_R   0.500990 0.500890 0.852140 -0.286132
C18   C     C_R   0.615814 0.563010 0.939364 0.146619
C19   C     C_3   0.655299 0.698833 0.934740 0.041322
C20   C     C_3   0.651246 0.701411 0.093152 0.028082
H7    H     H_    0.562845 0.749465 0.873378 0.086906
H8    H     H_    0.554730 0.753383 0.121235 0.094185
N3    N     N_R   0.962161 0.401061 0.328218 0.164242
O9    O     O_R   0.972141 0.438973 0.200896 -0.215218
O10   O     O_R   0.886802 0.296831 0.347832 -0.323006
N4    N     N_R   0.251760 0.382099 0.836213 0.153675
O11   O     O_R   0.253687 0.299684 0.741002 -0.363156
O12   O     O_R   0.120193 0.403146 0.877568 -0.277797
N5    N     N_R   0.807548 0.731000 0.892518 0.201070
O13   O     O_R   0.853373 0.846307 0.882519 -0.266895
O14   O     O_R   0.897339 0.646587 0.863422 -0.254500
N6    N     N_R   0.800665 0.734078 0.178035 0.192024
O15   O     O_R   0.813515 0.826357 0.263909 -0.310970
O16   O     O_R   0.922963 0.674903 0.166271 -0.235452
N7    N     N_R   0.210502 0.859137 0.626108 0.153035
O17   O     O_R   0.135110 0.771213 0.685676 -0.304571
O18   O     O_R   0.158691 0.893752 0.499013 -0.293513
N8    N     N_R   0.337520 0.310448 0.119880 0.161098
O19   O     O_R   0.219165 0.314967 0.186806 -0.238006
O20   O     O_R   0.371830 0.204022 0.076970 -0.368844

loop_
_geom_bond_atom_site_label_1
_geom_bond_atom_site_label_2
_geom_bond_distance
_ccdc_geom_bond_type
O1    C1    1.302446 A    
O4    Cu2   1.962006 S    
C20   H8    1.109016 S    
C11   C12   1.396143 A    
C1    C8    1.454623 S    
C19   C20   1.529543 S    
C20   N6    1.469462 S    
N8    O20   1.300930 A    
C19   N5    1.465202 S    
N3    O9    1.299230 A    
C13   H4    1.109502 S    
C8    C9    1.404710 A    
C15   C20   1.494197 S    
Cu2   O8    1.960721 S    
N1    C16   1.372609 A    
C16   N8    1.432181 S    
C16   C17   1.418399 A    
C2    C5    1.445496 S    
Cu1   Cu2   2.705915 S    
N5    O14   1.301625 A    
C15   N1    1.369801 A    
N7    O17   1.300040 A    
C9    H2    1.082229 S    
C14   H6    1.111297 S    
Cu1   O7    1.962007 S    
N3    O10   1.301697 A    
C13   C14   1.511577 S    
C7    C12   1.385670 A    
O3    Cu1   1.960722 S    
O3    C2    1.295283 A    
C18   C19   1.499285 S    
O8    C4    1.292215 A    
O2    C1    1.299781 A    
C10   C11   1.402849 A    
N7    O18   1.302827 A    
O4    C2    1.299672 A    
C19   H7    1.104396 S    
O7    C4    1.299877 A    
C4    C6    1.438018 S    
C14   H5    1.111689 S    
N8    O19   1.295020 A    
C9    C10   1.393102 A    
C5    C6    1.344527 D    
Cu2   N1    2.033126 S    
C13   N7    1.465932 S    
C17   N4    1.431554 S    
N4    O11   1.293566 A    
C5    N3    1.440858 S    
Cu2   O6    1.977477 S    
C17   N2    1.379500 A    
N6    O16   1.299995 A    
Cu1   O5    1.971551 S    
O5    C3    1.298597 A    
C15   C18   1.417219 A    
C7    C8    1.397655 A    
N6    O15   1.299431 A    
C12   C13   1.499731 S    
O1    Cu1   1.977477 S    
Cu1   N2    2.032879 S    
C10   H3    1.074870 S    
O2    Cu2   1.971550 S    
C7    C14   1.494967 S    
N2    C18   1.368202 A    
C3    C11   1.451979 S    
N4    O12   1.301469 A    
C6    H1    1.084886 S    
N5    O13   1.300597 A    
O6    C3    1.301995 A    
