data_mof_unit_5519.cif
_audit_creation_date              2012-12-10T18:11:47-0500
_audit_creation_method            fapswitch 2.2
_symmetry_space_group_name_H-M    P1
_symmetry_Int_Tables_number       1
_space_group_crystal_system       triclinic
_cell_length_a                    10.540874
_cell_length_b                    12.658595
_cell_length_c                    13.040284
_cell_angle_alpha                 83.119147
_cell_angle_beta                  90.636255
_cell_angle_gamma                 103.07466
_cell_volume                      1682.45432433

loop_
_atom_site_label
_atom_site_type_symbol
_atom_type_description
_atom_site_fract_x
_atom_site_fract_y
_atom_site_fract_z
_atom_type_partial_charge
Br1   Br    Br    0.310949 0.514520 0.130224 -0.421682
Br2   Br    Br    0.239307 0.142648 0.997472 -0.380772
Br3   Br    Br    0.227780 0.277837 0.315031 -0.362370
Br4   Br    Br    0.763780 0.940747 0.790965 -0.511579
Br5   Br    Br    0.980349 0.739726 0.378180 -0.567136
Br6   Br    Br    0.156948 0.694859 0.628775 -0.495013
C1    C     C_R   0.487620 0.439313 0.691782 0.908572
C2    C     C_R   0.509402 0.445673 0.975751 -0.089685
C3    C     C_R   0.553092 0.459483 0.873278 -0.125922
C4    C     C_R   0.742752 0.502422 0.496582 0.874314
C5    C     C_R   0.566761 0.524022 0.039769 0.010067
C6    C     C_R   0.697376 0.581993 0.019397 -0.026098
C7    C     C_R   0.756655 0.576247 0.923758 0.515560
C8    C     C_R   0.679622 0.522922 0.848253 -0.107893
C9    C     C_R   0.498951 0.542494 0.125344 0.312704
C10   C     C_R   0.700371 0.643909 0.188752 -0.224913
C11   C     C_R   0.474346 0.400269 0.802212 -0.238959
C12   C     C_3   0.064740 0.580911 0.549808 0.286620
C13   C     C_R   0.310962 0.080754 0.353080 -0.288262
C14   C     C_R   0.649066 0.802752 0.634170 0.600266
C15   C     C_R   0.667519 0.905575 0.669467 0.165456
C16   C     C_R   0.519021 0.560286 0.308679 0.906923
C17   C     C_R   0.611455 0.984696 0.617327 -0.283248
C18   C     C_R   0.532767 0.961925 0.531740 -0.008395
C19   C     C_R   0.507445 0.853756 0.503619 0.129953
C20   C     C_R   0.472790 0.041114 0.476954 0.040953
C21   C     C_R   0.379995 0.007855 0.401261 0.092430
C22   C     C_R   0.354997 0.901586 0.375379 -0.172523
C23   C     C_3   0.952636 0.486593 0.594707 -0.283991
C24   C     C_R   0.419550 0.826403 0.424540 -0.092132
C25   C     C_R   0.500320 0.152364 0.494385 -0.099134
C26   C     C_R   0.335782 0.186903 0.377871 0.431474
C27   C     C_R   0.257488 0.498531 0.501254 0.900276
C28   C     C_3   0.935861 0.421763 0.444746 -0.117229
C29   C     C_3   0.012036 0.403622 0.544632 -0.173023
C30   C     C_3   0.122268 0.498198 0.500285 -0.077834
C31   C     C_3   0.048746 0.516341 0.400333 -0.205605
C32   C     C_3   0.989290 0.598807 0.450428 0.234807
C33   C     C_3   0.183805 0.278019 0.753045 -0.162599
C34   C     C_3   0.878706 0.504850 0.494821 -0.093193
C35   C     C_3   0.526561 0.263948 0.143884 -0.211100
C36   C     C_3   0.840708 0.752026 0.643152 -0.222570
C37   C     C_3   0.936562 0.720560 0.894085 -0.187750
C38   C     C_R   0.764120 0.640302 0.096557 -0.133667
C39   C     C_R   0.568259 0.593737 0.203647 -0.139711
C40   C     C_R   0.373922 0.309063 0.838822 0.382302
C41   C     C_R   0.355942 0.277916 0.945458 0.162439
C42   C     C_R   0.424102 0.345754 0.014419 0.472738
H1    H     H_    0.022302 0.322453 0.580884 0.156202
H2    H     H_    0.910591 0.474948 0.674042 0.170489
H3    H     H_    0.755616 0.680829 0.250722 0.211340
H4    H     H_    0.866281 0.678938 0.089249 0.189603
H5    H     H_    0.127369 0.272753 0.825835 0.185655
H6    H     H_    0.123075 0.222016 0.703341 0.190136
H7    H     H_    0.201749 0.362490 0.712158 0.124095
H8    H     H_    0.620025 0.324963 0.126235 0.143806
H9    H     H_    0.523805 0.190888 0.103451 0.177092
H10   H     H_    0.524760 0.237427 0.227930 0.185005
H11   H     H_    0.900342 0.823351 0.676400 0.190171
H12   H     H_    0.723503 0.521791 0.773835 0.157189
H13   H     H_    0.846392 0.769329 0.557548 0.207997
H14   H     H_    0.883564 0.680757 0.665755 0.212734
H15   H     H_    0.006414 0.745139 0.955797 0.193133
H16   H     H_    0.859183 0.767407 0.893624 0.195823
H17   H     H_    0.993012 0.744336 0.820688 0.212555
H18   H     H_    0.285014 0.876315 0.316487 0.192428
H19   H     H_    0.236526 0.055038 0.297459 0.213808
H20   H     H_    0.574758 0.185701 0.546349 0.152492
H21   H     H_    0.879965 0.356747 0.401144 0.174900
H22   H     H_    0.627467 0.061980 0.647881 0.196259
H23   H     H_    0.396288 0.746729 0.400444 0.208192
H24   H     H_    0.091618 0.528048 0.321256 0.207368
N1    N     N_R   0.432930 0.222190 0.444670 -0.143052
N2    N     N_R   0.566370 0.776980 0.554790 -0.175964
O1    O     O_R   0.467970 0.366730 0.627150 -0.576127
O2    O     O_3   0.417476 0.308980 0.118884 -0.532971
O3    O     O_3   0.711416 0.726078 0.681344 -0.599449
O4    O     O_3   0.890621 0.605956 0.907892 -0.617586
O5    O     O_R   0.510820 0.544830 0.662520 -0.555035
O6    O     O_R   0.664630 0.410960 0.482340 -0.640572
O7    O     O_R   0.707470 0.589060 0.517710 -0.596474
O8    O     O_R   0.489180 0.455170 0.337480 -0.560823
O9    O     O_R   0.532030 0.633270 0.372850 -0.646509
O10   O     O_R   0.292530 0.410940 0.482290 -0.578044
O11   O     O_R   0.335370 0.589040 0.517660 -0.609173
O12   O     O_3   0.301623 0.244555 0.770928 -0.552273
Zn1   Zn    Zn3+2 0.471390 0.381080 0.476380 1.009304
Zn2   Zn    Zn3+2 0.528610 0.618920 0.523620 1.002406

loop_
_geom_bond_atom_site_label_1
_geom_bond_atom_site_label_2
_ccdc_geom_bond_type
C28   C31   S    
C42   O2    S    
C29   C30   S    
C10   H3    S    
C24   H23   S    
C37   H15   S    
C37   O4    S    
C6    C7    A    
C20   C21   A    
C14   O3    S    
C28   C34   S    
C16   O8    A    
C30   C31   S    
C18   C20   A    
C35   H10   S    
C19   N2    A    
O6    Zn1   S    
C25   N1    A    
C33   H6    S    
O8    Zn1   S    
C27   C30   S    
C4    C34   S    
C28   C29   S    
C27   O11   A    
N1    Zn1   S    
C40   C41   A    
C5    C9    A    
C33   H7    S    
C2    C3    A    
C1    C11   S    
C29   H1    S    
C17   C18   A    
O10   Zn1   S    
C13   H19   S    
Br1   C9    S    
C13   C21   A    
C10   C38   A    
C38   H4    S    
O9    Zn2   S    
C20   C25   A    
C7    C8    A    
C17   H22   S    
C13   C26   A    
O5    Zn2   S    
C37   H16   S    
C23   H2    S    
C25   H20   S    
Br6   C12   S    
C11   C40   A    
C26   N1    A    
C4    O6    A    
C1    O1    A    
C10   C39   A    
C22   H18   S    
C3    C8    A    
C2    C42   A    
C35   H8    S    
C31   C32   S    
C41   C42   A    
C28   H21   S    
C37   H17   S    
C14   N2    A    
C12   C23   S    
C18   C19   A    
C36   H13   S    
C3    C11   A    
C15   C17   A    
C9    C39   A    
C1    O5    A    
O11   Zn2   S    
O1    Zn1   S    
C19   C24   A    
C36   H14   S    
C7    O4    S    
C36   H11   S    
C5    C6    A    
Br2   C41   S    
C8    H12   S    
C23   C29   S    
C4    O7    A    
C16   O9    A    
C22   C24   A    
C12   C32   S    
C35   H9    S    
C6    C38   A    
C35   O2    S    
C32   C34   S    
Br4   C15   S    
C33   H5    S    
C2    C5    A    
C23   C34   S    
Br3   C26   S    
C27   O10   A    
O7    Zn2   S    
C16   C39   S    
C14   C15   A    
C36   O3    S    
C31   H24   S    
C21   C22   A    
C33   O12   S    
N2    Zn2   S    
Br5   C32   S    
C12   C30   S    
C40   O12   S    
