data_mof_unit_31020.cif
_audit_creation_date              2012-12-11T17:45:22-0500
_audit_creation_method            fapswitch 2.2
_symmetry_space_group_name_H-M    P1
_symmetry_Int_Tables_number       1
_space_group_crystal_system       triclinic
_cell_length_a                    14.966198
_cell_length_b                    15.003056
_cell_length_c                    15.1069
_cell_angle_alpha                 110.053782
_cell_angle_beta                  109.234024
_cell_angle_gamma                 109.159222
_cell_volume                      2610.00431095

loop_
_atom_site_label
_atom_site_type_symbol
_atom_type_description
_atom_site_fract_x
_atom_site_fract_y
_atom_site_fract_z
_atom_type_partial_charge
C1    C     C_R   0.907823 0.194591 0.992844 -0.158120
C2    C     C_R   0.684595 0.239735 0.774985 -0.149227
C3    C     C_R   0.791207 0.590921 0.097005 -0.144361
C4    C     C_R   0.293986 0.806079 0.204396 -0.133540
C5    C     C_R   0.000641 0.409244 0.699528 -0.169593
C6    C     C_R   0.699950 0.500159 0.069167 0.004934
C7    C     C_R   0.052593 0.500463 0.694228 0.069250
C8    C     C_R   0.674428 0.207050 0.671912 0.055905
C9    C     C_R   0.944782 0.771066 0.946911 0.062425
C10   C     C_R   0.701334 0.221007 0.154474 0.635348
C11   C     C_R   0.790833 0.312520 0.253131 -0.258149
C12   C     C_R   0.293760 0.871840 0.295029 0.067838
C13   C     C_R   0.882764 0.307089 0.309742 0.054079
C14   C     C_R   0.885030 0.209739 0.269018 -0.206666
C15   C     C_R   0.797406 0.119211 0.171817 -0.187791
C16   C     C_R   0.223263 0.409119 0.978532 -0.144896
C17   C     C_R   0.706061 0.123156 0.114870 -0.305413
C18   C     C_R   0.985582 0.407122 0.503903 -0.245263
C19   C     C_R   0.068681 0.496919 0.604352 0.050763
C20   C     C_R   0.155175 0.581871 0.613247 0.028115
C21   C     C_R   0.150633 0.577433 0.518267 -0.253027
C22   C     C_R   0.062129 0.490100 0.417129 0.074153
C23   C     C_R   0.325315 0.501051 0.056329 -0.002047
C24   C     C_R   0.979583 0.403222 0.410600 0.064788
C25   C     C_R   0.250904 0.781121 0.745386 -0.163129
C26   C     C_R   0.309161 0.864945 0.853893 -0.141599
C27   C     C_R   0.363419 0.848396 0.936460 -0.120525
C28   C     C_R   0.061859 0.591108 0.313976 -0.133269
C29   C     C_R   0.361664 0.749073 0.910497 -0.094395
C30   C     C_R   0.304167 0.665090 0.802305 -0.164855
C31   C     C_R   0.243997 0.678824 0.719473 0.122948
C32   C     C_R   0.084188 0.988257 0.378798 -0.133095
C33   C     C_R   0.189463 0.031220 0.393256 -0.148868
C34   C     C_R   0.048187 0.498106 0.321361 0.044652
C35   C     C_R   0.271628 0.028211 0.469351 0.093005
C36   C     C_R   0.247953 0.985593 0.533474 -0.119257
C37   C     C_R   0.142022 0.940292 0.516789 -0.049517
C38   C     C_R   0.060044 0.940674 0.438810 -0.127952
C39   C     C_R   0.474332 0.130008 0.563355 -0.251297
C40   C     C_R   0.313531 0.592181 0.069653 -0.142439
C41   C     C_R   0.572983 0.142165 0.566693 0.067189
C42   C     C_R   0.571445 0.087405 0.468415 0.018342
C43   C     C_R   0.473586 0.024646 0.372056 -0.227448
C44   C     C_R   0.376364 0.988219 0.374483 0.053097
C45   C     C_R   0.700355 0.409388 0.004888 -0.142262
C46   C     C_R   0.374781 0.050577 0.467965 0.027204
C47   C     C_R   0.716431 0.103778 0.416694 -0.182245
C48   C     C_R   0.786684 0.067280 0.397993 -0.118998
C49   C     C_R   0.794495 0.985999 0.419468 -0.125928
C50   C     C_R   0.734511 0.942870 0.462692 -0.115115
C51   C     C_R   0.667206 0.981742 0.485384 -0.127756
C52   C     C_R   0.983728 0.409238 0.217939 -0.116757
C53   C     C_R   0.657317 0.062082 0.462014 0.106567
C54   C     C_3   0.530249 0.487040 0.966852 -0.404295
C55   C     C_3   0.429451 0.490453 0.964996 -0.391718
C56   C     C_R   0.082865 0.591358 0.786759 -0.134105
C57   C     C_3   0.537624 0.403973 0.085885 -0.352616
C58   C     C_3   0.634305 0.608071 0.172285 -0.404523
C59   C     C_3   0.603446 0.500166 0.075240 0.370438
C60   C     C_3   0.427827 0.501039 0.070175 0.397900
C61   C     C_3   0.433100 0.403946 0.082344 -0.434888
C62   C     C_3   0.530878 0.607236 0.171377 -0.393642
C63   C     C_R   0.035444 0.050734 0.664466 -0.328032
C64   C     C_R   0.205428 0.804796 0.296665 -0.145481
C65   C     C_R   0.972188 0.996950 0.699597 -0.216605
C66   C     C_R   0.022368 0.005440 0.800596 0.135560
C67   C     C_R   0.778842 0.244944 0.686123 -0.118439
C68   C     C_R   0.136497 0.058621 0.861081 -0.255539
C69   C     C_R   0.199673 0.109681 0.824307 -0.277855
C70   C     C_R   0.150620 0.111407 0.728830 0.644970
C71   C     C_R   0.946133 0.866872 0.843467 -0.246484
C72   C     C_R   0.901801 0.830057 0.900867 0.059971
C73   C     C_R   0.836937 0.870295 0.930106 0.024728
C74   C     C_R   0.839974 0.961873 0.925112 -0.242787
C75   C     C_R   0.909814 0.016975 0.896059 0.057235
C76   C     C_R   0.001669 0.199376 0.905800 -0.141045
C77   C     C_R   0.955766 0.962571 0.844910 0.040886
C78   C     C_R   0.929028 0.743428 0.021984 -0.146262
C79   C     C_R   0.655686 0.744752 0.891542 -0.138460
C80   C     C_R   0.581382 0.717176 0.927091 -0.130998
C81   C     C_R   0.616468 0.767163 0.038246 -0.074739
C82   C     C_R   0.726160 0.842355 0.114089 -0.140485
C83   C     C_R   0.800397 0.871193 0.078812 -0.229802
C84   C     C_R   0.765319 0.823026 0.967392 0.131373
C85   C     C_R   0.940913 0.132840 0.931991 0.075259
C86   C     C_3   0.520317 0.137491 0.013167 0.174406
C87   C     C_3   0.526505 0.095338 0.907754 -0.343916
C88   C     C_3   0.447661 0.100760 0.818000 -0.977373
C89   C     C_R   0.025010 0.748627 0.935735 -0.121792
C90   C     C_3   0.178882 0.220996 0.651800 0.175955
C91   C     C_3   0.266857 0.294330 0.639245 -0.255237
C92   C     C_3   0.225943 0.352452 0.584668 -1.031036
H1    H     H_    0.847923 0.165533 0.015668 0.108654
H2    H     H_    0.790147 0.388846 0.284241 0.136607
H3    H     H_    0.340571 0.832075 0.167866 0.084524
H4    H     H_    0.956083 0.205047 0.311145 0.123326
H5    H     H_    0.801444 0.046495 0.138832 0.164372
H6    H     H_    0.918661 0.342239 0.496724 0.132982
H7    H     H_    0.213605 0.643959 0.523143 0.129372
H8    H     H_    0.203381 0.792727 0.683118 0.111089
H9    H     H_    0.307668 0.940701 0.874254 0.117013
H10   H     H_    0.404104 0.910919 0.020833 0.095913
H11   H     H_    0.399250 0.734857 0.974609 0.094433
H12   H     H_    0.130497 0.675788 0.812809 0.125410
H13   H     H_    0.297611 0.586178 0.784430 0.108123
H14   H     H_    0.977737 0.903233 0.424482 0.093825
H15   H     H_    0.203726 0.324817 0.942577 0.103459
H16   H     H_    0.020637 0.989061 0.319031 0.102069
H17   H     H_    0.205864 0.062598 0.342257 0.116530
H18   H     H_    0.308005 0.976976 0.587822 0.108451
H19   H     H_    0.122961 0.902625 0.562591 0.100634
H20   H     H_    0.473796 0.175855 0.636125 0.134651
H21   H     H_    0.476088 0.984489 0.299083 0.123636
H22   H     H_    0.707606 0.163673 0.395583 0.121886
H23   H     H_    0.803674 0.241887 0.626642 0.115290
H24   H     H_    0.833509 0.099911 0.364752 0.126707
H25   H     H_    0.846005 0.955519 0.401195 0.087703
H26   H     H_    0.738567 0.877897 0.476648 0.102021
H27   H     H_    0.106672 0.675041 0.379541 0.097686
H28   H     H_    0.619221 0.946091 0.516803 0.110666
H29   H     H_    0.504492 0.407629 0.897483 0.156577
H30   H     H_    0.575992 0.552111 0.954495 0.179055
H31   H     H_    0.426534 0.559390 0.954592 0.147808
H32   H     H_    0.356018 0.414046 0.892787 0.167015
H33   H     H_    0.512668 0.325336 0.017376 0.177495
H34   H     H_    0.871574 0.744558 0.048544 0.127613
H35   H     H_    0.361326 0.324901 0.013469 0.156828
H36   H     H_    0.688440 0.618141 0.250360 0.150542
H37   H     H_    0.679384 0.679903 0.167774 0.161927
H38   H     H_    0.532473 0.681967 0.172977 0.144383
H39   H     H_    0.375859 0.677266 0.119209 0.092415
H40   H     H_    0.531967 0.611790 0.246844 0.156620
H41   H     H_    0.588645 0.410493 0.163019 0.187931
H42   H     H_    0.432709 0.410412 0.157796 0.161899
H43   H     H_    0.993742 0.044582 0.587590 0.130442
H44   H     H_    0.884242 0.953867 0.651477 0.139236
H45   H     H_    0.061365 0.763179 0.888085 0.092215
H46   H     H_    0.176407 0.063107 0.937968 0.141263
H47   H     H_    0.287525 0.150832 0.871881 0.139356
H48   H     H_    0.983883 0.828547 0.806256 0.128335
H49   H     H_    0.792621 0.993562 0.951733 0.129562
H50   H     H_    0.964561 0.326111 0.192865 0.128339
H51   H     H_    0.627140 0.708757 0.805214 0.112286
H52   H     H_    0.496821 0.657032 0.868304 0.115700
H53   H     H_    0.559248 0.747545 0.066157 0.091838
H54   H     H_    0.753105 0.880416 0.199919 0.117387
H55   H     H_    0.884675 0.933427 0.137824 0.112647
H56   H     H_    0.620480 0.226424 0.795001 0.111994
H57   H     H_    0.171429 0.826521 0.347056 0.124384
H58   H     H_    0.027493 0.179167 0.847568 0.124097
H59   H     H_    0.645054 0.325238 0.974389 0.143078
H60   H     H_    0.451182 0.153704 0.999600 0.131359
H61   H     H_    0.500621 0.074512 0.036890 0.060442
H62   H     H_    0.610677 0.142551 0.924374 0.207220
H63   H     H_    0.506595 0.008672 0.876363 0.190284
H64   H     H_    0.362039 0.044018 0.790502 0.266738
H65   H     H_    0.462007 0.075495 0.748340 0.255038
H66   H     H_    0.460734 0.184889 0.845499 0.263969
H67   H     H_    0.821514 0.675426 0.153539 0.096051
H68   H     H_    0.157467 0.272653 0.704482 0.080085
H69   H     H_    0.106650 0.162157 0.569295 0.117383
H70   H     H_    0.340261 0.356333 0.720125 0.188923
H71   H     H_    0.290979 0.244157 0.589349 0.216487
H72   H     H_    0.155604 0.291992 0.501224 0.268434
H73   H     H_    0.292264 0.407679 0.579539 0.272948
H74   H     H_    0.200268 0.401838 0.632849 0.269322
H75   H     H_    0.979379 0.326239 0.647755 0.099998
H76   H     H_    0.641904 0.049460 0.039433 0.129874
N1    N     N_R   0.947080 0.293830 0.002870 -0.041677
N2    N     N_R   0.153670 0.443180 0.946090 -0.039393
N3    N     N_R   0.002360 0.556820 0.208890 -0.039751
N4    N     N_R   0.210070 0.556820 0.002870 -0.035580
N5    N     N_R   0.945960 0.443180 0.152110 -0.040883
N6    N     N_R   0.151710 0.706170 0.208890 -0.041312
N7    N     N_R   0.004320 0.293830 0.946090 -0.040707
N8    N     N_R   0.789930 0.443180 0.997130 -0.037578
N9    N     N_R   0.054040 0.556820 0.847890 -0.040326
N10   N     N_R   0.848290 0.293830 0.791110 -0.041663
N11   N     N_R   0.995680 0.706170 0.053910 -0.041270
N12   N     N_R   0.052920 0.706170 0.997130 -0.041229
N13   N     N_R   0.791050 0.293830 0.847890 -0.039439
N14   N     N_R   0.846330 0.556820 0.053910 -0.036783
N15   N     N_R   0.997640 0.443180 0.791110 -0.038211
N16   N     N_R   0.208950 0.706170 0.152110 -0.038260
Ni1   Ni    Ni4+2 0.869690 0.369690 0.000000 0.218894
Ni2   Ni    Ni4+2 0.130310 0.630310 0.000000 0.212598
Ni3   Ni    Ni4+2 0.000970 0.369690 0.869780 0.208558
Ni4   Ni    Ni4+2 0.999030 0.630310 0.130220 0.215117
O1    O     O_3   0.617090 0.235728 0.099190 -0.697202
O2    O     O_3   0.218771 0.165233 0.698067 -0.672094

loop_
_geom_bond_atom_site_label_1
_geom_bond_atom_site_label_2
_ccdc_geom_bond_type
C25   C31   A    
C47   H22   S    
C66   C68   A    
C87   C88   S    
C63   C65   A    
C69   H47   S    
C6    C45   A    
C27   C29   A    
C41   C42   A    
C62   H38   S    
C68   H46   S    
C35   C36   A    
C9    C72   S    
C40   N4    A    
C3    C6    A    
C57   H41   S    
C81   C82   A    
C58   H37   S    
N8    Ni1   S    
C39   C41   A    
N8    N14   A    
N3    N5    A    
N5    Ni1   S    
C26   C27   A    
C29   C30   A    
N3    Ni4   S    
C18   C24   A    
C88   H64   S    
C36   C37   A    
C86   H61   S    
N15   Ni3   S    
C42   C53   S    
C57   H33   S    
C30   C31   A    
C21   H7    S    
C57   C59   S    
C10   C17   A    
C2    H56   S    
C23   C40   A    
C29   H11   S    
C60   C62   S    
C18   C19   A    
C73   C74   A    
C89   N12   A    
C54   H29   S    
C67   H23   S    
C28   N3    A    
C16   H15   S    
N6    Ni4   S    
C55   H32   S    
C92   H73   S    
C75   C85   S    
C79   H51   S    
C83   C84   A    
N4    Ni2   S    
C68   C69   A    
C80   H52   S    
N2    Ni3   S    
C91   H70   S    
C32   C38   A    
C4    C12   A    
C73   C84   S    
C54   C59   S    
C47   C53   A    
C81   H53   S    
C92   H72   S    
C54   H30   S    
C28   C34   A    
C21   C22   A    
C3    H67   S    
C91   H71   S    
C7    C56   A    
C15   H5    S    
C14   H4    S    
C82   H54   S    
C44   C46   A    
C61   H42   S    
C51   H28   S    
C56   N9    A    
C1    C85   A    
C23   C60   S    
C22   C34   S    
C55   H31   S    
C10   O1    S    
C74   C75   A    
C90   H69   S    
C78   N11   A    
N10   N13   A    
C62   H40   S    
C8    C41   S    
C56   H12   S    
C45   N8    A    
C9    C89   A    
C91   C92   S    
C5    C7    A    
C16   N2    A    
N13   Ni1   S    
C86   C87   S    
C72   C73   A    
N11   Ni4   S    
C25   C26   A    
N9    N15   A    
C67   N10   A    
C52   H50   S    
N9    Ni2   S    
N11   N12   A    
C13   C24   S    
C60   C61   S    
C45   H59   S    
C2    N13   A    
C63   H43   S    
C38   H14   S    
C43   C44   A    
C37   C38   A    
C86   H60   S    
C4    H3    S    
C25   H8    S    
C47   C48   A    
C63   C70   A    
C76   H58   S    
C50   C51   A    
N1    N7    A    
C87   H62   S    
C61   H35   S    
N14   Ni4   S    
C88   H65   S    
C4    N16   A    
C75   C77   A    
N12   Ni2   S    
C58   C62   S    
C39   C46   A    
C83   H55   S    
N10   Ni3   S    
C11   H2    S    
C48   C49   A    
C40   H39   S    
C49   C50   A    
C16   C23   A    
C89   H45   S    
C30   H13   S    
C36   H18   S    
C13   C14   A    
C49   H25   S    
C33   H17   S    
C42   C43   A    
C64   N6    A    
C78   H34   S    
C71   C77   A    
C70   O2    S    
C90   O2    S    
C15   C17   A    
C66   C77   S    
N6    N16   A    
C54   C55   S    
C39   H20   S    
C86   O1    S    
C50   H26   S    
C34   C52   A    
C6    C59   S    
C74   H49   S    
C76   N7    A    
C2    C8    A    
C80   C81   A    
C17   H76   S    
C28   H27   S    
C57   C61   S    
C71   H48   S    
C87   H63   S    
C27   H10   S    
C7    C19   S    
C48   H24   S    
C64   H57   S    
C32   C33   A    
C19   C20   A    
C58   C59   S    
N1    Ni1   S    
C71   C72   A    
C26   H9    S    
C58   H36   S    
C43   H21   S    
C11   C13   A    
C90   C91   S    
C79   C84   A    
N2    N4    A    
C12   C64   A    
C76   C85   A    
C1    N1    A    
C33   C35   A    
N16   Ni2   S    
C22   C24   A    
C9    C78   A    
C5    H75   S    
C90   H68   S    
C69   C70   A    
C3    N14   A    
C37   H19   S    
C65   H44   S    
C10   C11   A    
C51   C53   A    
N7    Ni3   S    
C79   C80   A    
C92   H74   S    
C20   C21   A    
C8    C67   A    
C1    H1    S    
C65   C66   A    
C32   H16   S    
C14   C15   A    
C12   C44   S    
C88   H66   S    
C18   H6    S    
C82   C83   A    
C55   C60   S    
C35   C46   S    
C52   N5    A    
C5    N15   A    
C20   C31   S    
