data_mof_unit_43854.cif
_audit_creation_date              2012-12-11T15:37:32-0500
_audit_creation_method            fapswitch 2.2
_symmetry_space_group_name_H-M    P1
_symmetry_Int_Tables_number       1
_space_group_crystal_system       triclinic
_cell_length_a                    17.432089
_cell_length_b                    24.282818
_cell_length_c                    15.022857
_cell_angle_alpha                 90.538637
_cell_angle_beta                  126.343505
_cell_angle_gamma                 89.528827
_cell_volume                      5121.92808037

loop_
_atom_site_label
_atom_site_type_symbol
_atom_type_description
_atom_site_fract_x
_atom_site_fract_y
_atom_site_fract_z
_atom_type_partial_charge
C1    C     C_R   0.808918 0.625611 0.906937 -0.125758
C2    C     C_3   0.592616 0.499603 0.542812 -0.270979
C3    C     C_3   0.072376 0.986736 0.434586 0.289290
C4    C     C_1   0.094782 0.599945 0.350520 0.027752
C5    C     C_1   0.928243 0.399186 0.654119 0.027691
C6    C     C_1   0.934556 0.599823 0.656222 0.003867
C7    C     C_1   0.082024 0.400671 0.349196 0.000905
C8    C     C_1   0.592816 0.100189 0.350081 0.026744
C9    C     C_1   0.420956 0.899360 0.651984 0.032866
C10   C     C_1   0.412579 0.097706 0.647569 -0.001603
C11   C     C_1   0.590956 0.901877 0.352267 -0.002258
C12   C     C_3   0.410396 0.517364 0.598074 0.296003
C13   C     C_3   0.923056 0.997488 0.359450 -0.272462
C14   C     C_3   0.333031 0.508863 0.614066 -0.946451
C15   C     C_3   0.607601 0.480331 0.303157 0.294075
C16   C     C_3   0.684511 0.489308 0.286522 -0.947361
C17   C     C_3   0.911441 0.032933 0.598669 0.287238
C18   C     C_3   0.832720 0.032114 0.614027 -0.935342
C19   C     C_3   0.110199 0.961192 0.316010 0.288453
C20   C     C_3   0.189913 0.962044 0.302327 -0.937978
C21   C     C_3   0.446157 0.382794 0.535632 0.283468
C22   C     C_3   0.469558 0.330532 0.602354 -0.938795
C23   C     C_3   0.566891 0.615676 0.360654 0.283491
C24   C     C_3   0.092114 0.998789 0.547666 -0.277326
C25   C     C_3   0.542493 0.668311 0.294614 -0.926978
C26   C     C_3   0.550481 0.364200 0.394586 0.265743
C27   C     C_3   0.535102 0.316737 0.318868 -0.919351
C28   C     C_3   0.460791 0.633325 0.500641 0.282324
C29   C     C_3   0.472437 0.680285 0.575384 -0.969681
C30   C     C_3   0.932594 0.893656 0.548267 0.295530
C31   C     C_3   0.947046 0.844970 0.619573 -0.978040
C32   C     C_3   0.085907 0.101085 0.361388 0.307321
C33   C     C_3   0.073272 0.154449 0.302193 -0.967163
C34   C     C_3   0.041004 0.857348 0.418188 0.266671
C35   C     C_R   0.786090 0.234225 0.899489 -0.162599
C36   C     C_3   0.023944 0.806580 0.348611 -0.925557
C37   C     C_3   0.972901 0.138397 0.489435 0.274336
C38   C     C_3   0.992737 0.190423 0.556938 -0.957373
C39   C     C_R   0.213848 0.767060 0.099811 -0.160318
C40   C     C_R   0.209690 0.231537 0.098870 -0.159071
C41   C     C_R   0.656378 0.685350 0.899332 -0.176848
C42   C     C_R   0.161416 0.810480 0.899808 -0.173867
C43   C     C_R   0.833588 0.193513 0.099249 -0.141168
C44   C     C_R   0.710744 0.731901 0.098972 -0.158768
C45   C     C_R   0.149355 0.347170 0.091598 -0.121651
C46   C     C_R   0.156057 0.185401 0.899182 -0.173444
C47   C     C_R   0.112995 0.765657 0.899666 -0.174019
C48   C     C_R   0.885477 0.236118 0.099662 -0.189527
C49   C     C_R   0.758472 0.686049 0.099291 -0.169121
C50   C     C_R   0.108136 0.231263 0.898753 -0.171465
C51   C     C_R   0.733248 0.192092 0.899042 -0.168090
C52   C     C_R   0.262166 0.811983 0.099765 -0.168902
C53   C     C_R   0.257971 0.185964 0.099146 -0.169291
C54   C     C_R   0.608920 0.731459 0.898819 -0.173424
C55   C     C_R   0.145256 0.740454 0.999830 0.142407
C56   C     C_R   0.150442 0.652460 0.092415 -0.122786
C57   C     C_R   0.855318 0.260331 0.999613 0.144605
C58   C     C_R   0.738494 0.666711 0.999482 0.144323
C59   C     C_R   0.141483 0.257864 0.998730 0.140654
C60   C     C_R   0.750760 0.175983 0.998851 0.144719
C61   C     C_R   0.242507 0.830054 0.999827 0.145618
C62   C     C_R   0.238330 0.166858 0.999341 0.144118
C63   C     C_R   0.642560 0.758191 0.998753 0.142625
C64   C     C_R   0.061586 0.467368 0.600670 -0.168124
C65   C     C_R   0.963198 0.533871 0.413845 -0.170694
C66   C     C_R   0.093977 0.470860 0.537043 -0.163436
C67   C     C_R   0.848841 0.348016 0.907036 -0.112026
C68   C     C_R   0.930935 0.530329 0.477362 -0.165441
C69   C     C_R   0.554934 0.967788 0.597769 -0.174144
C70   C     C_R   0.458843 0.033668 0.410221 -0.174781
C71   C     C_R   0.589062 0.971015 0.535647 -0.162604
C72   C     C_R   0.424955 0.030541 0.472466 -0.163553
C73   C     C_R   0.044677 0.504117 0.444117 0.152262
C74   C     C_R   0.980084 0.497045 0.570032 0.156448
C75   C     C_R   0.540888 0.003889 0.442129 0.152085
C76   C     C_R   0.472654 0.997358 0.565466 0.151490
C77   C     C_R   0.943889 0.348972 0.091619 -0.126268
C78   C     C_R   0.309051 0.125881 0.906952 -0.122101
C79   C     C_R   0.056258 0.651216 0.908409 -0.120565
C80   C     C_R   0.055808 0.348255 0.907726 -0.128931
C81   C     C_R   0.902609 0.623415 0.092274 -0.123764
C82   C     C_R   0.404273 0.875262 0.092404 -0.126154
C83   C     C_R   0.592270 0.128030 0.906646 -0.127047
C84   C     C_R   0.556477 0.848488 0.907594 -0.130400
C85   C     C_R   0.402534 0.123510 0.092173 -0.123355
C86   C     C_R   0.053929 0.546526 0.305385 0.022490
C87   C     C_R   0.961253 0.453194 0.701829 0.037011
C88   C     C_R   0.961985 0.545231 0.701539 0.066488
C89   C     C_R   0.649619 0.847261 0.091550 -0.117296
C90   C     C_R   0.049729 0.455114 0.304736 0.078228
C91   C     C_R   0.552985 0.046576 0.305161 0.025944
C92   C     C_R   0.455881 0.953314 0.698774 0.034072
C93   C     C_R   0.453915 0.045017 0.696918 0.042410
C94   C     C_R   0.551336 0.955224 0.305708 0.053638
C95   C     C_R   0.736017 0.453859 0.705157 -0.081425
C96   C     C_R   0.267572 0.545107 0.242480 -0.063291
C97   C     C_R   0.267365 0.453826 0.243400 -0.095239
C98   C     C_R   0.736808 0.545385 0.702865 -0.125816
C99   C     C_R   0.236182 0.954010 0.705069 -0.082045
C100  C     C_R   0.681641 0.135567 0.091081 -0.127175
C101  C     C_R   0.769554 0.044329 0.249720 -0.032539
C102  C     C_R   0.767412 0.953333 0.245269 -0.118216
C103  C     C_R   0.236202 0.045472 0.704554 -0.136957
C104  C     C_R   0.811990 0.637257 0.999568 0.037193
C105  C     C_R   0.117824 0.315744 0.999114 0.043565
C106  C     C_R   0.119565 0.683384 0.000215 0.040992
C107  C     C_R   0.880995 0.316982 0.999398 0.037147
C108  C     C_R   0.312001 0.137499 0.999489 0.034190
C109  C     C_R   0.618639 0.816004 0.999028 0.041687
C110  C     C_R   0.678377 0.146916 0.998760 0.043586
C111  C     C_R   0.310150 0.873117 0.906900 -0.120869
C112  C     C_R   0.314358 0.860543 0.999714 0.038623
C113  C     C_R   0.066782 0.501665 0.367226 -0.057487
C114  C     C_R   0.955831 0.498518 0.644816 -0.046702
C115  C     C_R   0.566234 0.001788 0.367559 -0.048274
C116  C     C_R   0.445596 0.998455 0.638418 -0.030124
C117  C     C_R   0.683350 0.499618 0.649128 0.233161
C118  C     C_R   0.322822 0.499035 0.265191 0.218155
C119  C     C_R   0.182895 0.999581 0.651873 0.238806
C120  C     C_R   0.823750 0.998271 0.270300 0.209133
C121  C     C_3   0.514924 0.456610 0.510634 0.275393
C122  C     C_3   0.422464 0.498656 0.355256 -0.262639
C123  C     C_3   0.499769 0.541730 0.387110 0.280807
C124  C     C_3   0.495318 0.450856 0.396885 0.278368
C125  C     C_3   0.519487 0.547298 0.500995 0.273671
C126  C     C_3   0.011225 0.959534 0.520069 0.277191
C127  C     C_3   0.004129 0.036752 0.387362 0.284035
C128  C     C_3   0.992055 0.947553 0.407971 0.282225
C129  C     C_3   0.023245 0.048514 0.499542 0.276846
C130  C     C_3   0.444335 0.504259 0.471576 0.283973
C131  C     C_3   0.572143 0.493932 0.427681 0.290188
C132  C     C_3   0.944626 0.009321 0.474477 0.283694
H1    H     H_    0.750923 0.632552 0.821623 0.112742
H2    H     H_    0.007958 0.665944 0.825408 0.108036
H3    H     H_    0.113435 0.873301 0.453211 0.122114
H4    H     H_    0.026832 0.817707 0.279118 0.258580
H5    H     H_    0.079550 0.775111 0.400304 0.221659
H6    H     H_    0.952941 0.788838 0.314723 0.260516
H7    H     H_    0.901827 0.122834 0.460603 0.120546
H8    H     H_    0.970735 0.149629 0.416623 0.135105
H9    H     H_    0.064127 0.206837 0.588974 0.266470
H10   H     H_    0.938035 0.222147 0.504357 0.226081
H11   H     H_    0.990257 0.181250 0.627451 0.251703
H12   H     H_    0.007889 0.333577 0.824242 0.104683
H13   H     H_    0.929015 0.627877 0.177218 0.101134
H14   H     H_    0.431548 0.870148 0.177338 0.108724
H15   H     H_    0.565405 0.132514 0.821832 0.109615
H16   H     H_    0.509399 0.834035 0.823804 0.106719
H17   H     H_    0.428720 0.127972 0.177001 0.100707
H18   H     H_    0.720437 0.411401 0.677762 0.121182
H19   H     H_    0.290782 0.587469 0.259016 0.105210
H20   H     H_    0.289855 0.411288 0.260435 0.124924
H21   H     H_    0.187229 0.333133 0.175771 0.085740
H22   H     H_    0.722666 0.586973 0.671603 0.134035
H23   H     H_    0.220896 0.912082 0.674482 0.103642
H24   H     H_    0.796913 0.084928 0.280721 0.082144
H25   H     H_    0.788889 0.910652 0.261578 0.139733
H26   H     H_    0.222090 0.087027 0.673354 0.146916
H27   H     H_    0.765203 0.249578 0.820729 0.111015
H28   H     H_    0.237004 0.750705 0.178788 0.109423
H29   H     H_    0.233252 0.248730 0.177837 0.109087
H30   H     H_    0.634473 0.668499 0.820779 0.134166
H31   H     H_    0.140635 0.825701 0.821146 0.135382
H32   H     H_    0.189461 0.666667 0.176961 0.087689
H33   H     H_    0.853722 0.178407 0.177892 0.129864
H34   H     H_    0.734658 0.749236 0.177957 0.109617
H35   H     H_    0.134265 0.168677 0.820557 0.128449
H36   H     H_    0.056802 0.748203 0.820677 0.122675
H37   H     H_    0.942236 0.253237 0.178567 0.120233
H38   H     H_    0.817133 0.670072 0.178252 0.108109
H39   H     H_    0.051626 0.248362 0.819782 0.116488
H40   H     H_    0.673941 0.176367 0.820041 0.115563
H41   H     H_    0.320378 0.828548 0.178594 0.114175
H42   H     H_    0.316694 0.170009 0.178090 0.107426
H43   H     H_    0.808514 0.334397 0.822033 0.088799
H44   H     H_    0.552449 0.748552 0.819819 0.120960
H45   H     H_    0.101066 0.442597 0.674879 0.126393
H46   H     H_    0.922925 0.558422 0.339356 0.118451
H47   H     H_    0.155778 0.447248 0.558943 0.130470
H48   H     H_    0.868590 0.553513 0.454963 0.136030
H49   H     H_    0.593807 0.943205 0.672223 0.125683
H50   H     H_    0.419545 0.058123 0.335584 0.116638
H51   H     H_    0.651807 0.947730 0.559564 0.125403
H52   H     H_    0.362192 0.053813 0.448446 0.127278
H53   H     H_    0.437176 0.560034 0.624035 0.138047
H54   H     H_    0.251225 0.133146 0.821736 0.113088
H55   H     H_    0.469714 0.488273 0.653186 0.128881
H56   H     H_    0.305930 0.466053 0.590757 0.250472
H57   H     H_    0.362345 0.516018 0.701979 0.222759
H58   H     H_    0.273299 0.538072 0.561681 0.271918
H59   H     H_    0.547301 0.508678 0.246892 0.128478
H60   H     H_    0.582193 0.437355 0.278535 0.136771
H61   H     H_    0.746981 0.462527 0.343288 0.274653
H62   H     H_    0.656355 0.479068 0.199966 0.223963
H63   H     H_    0.707002 0.533070 0.302853 0.246430
H64   H     H_    0.943412 0.074622 0.621286 0.137338
H65   H     H_    0.687364 0.833138 0.175646 0.089363
H66   H     H_    0.966951 0.002663 0.656702 0.130835
H67   H     H_    0.799312 0.990765 0.592673 0.252089
H68   H     H_    0.862692 0.041753 0.701362 0.221329
H69   H     H_    0.777478 0.063256 0.559831 0.270223
H70   H     H_    0.053251 0.989998 0.254763 0.125349
H71   H     H_    0.080662 0.918955 0.296518 0.139407
H72   H     H_    0.249462 0.934991 0.364686 0.273562
H73   H     H_    0.162844 0.947139 0.218373 0.222547
H74   H     H_    0.216535 0.004671 0.312818 0.247136
H75   H     H_    0.413361 0.370679 0.448474 0.110749
H76   H     H_    0.731212 0.151445 0.173542 0.085052
H77   H     H_    0.392935 0.406486 0.538304 0.139456
H78   H     H_    0.500025 0.341169 0.689474 0.268561
H79   H     H_    0.403799 0.306015 0.566824 0.221094
H80   H     H_    0.521996 0.305302 0.600424 0.253149
H81   H     H_    0.619476 0.592297 0.356279 0.135204
H82   H     H_    0.600782 0.627309 0.448380 0.116331
H83   H     H_    0.490544 0.693195 0.298056 0.254997
H84   H     H_    0.607991 0.692996 0.329565 0.217470
H85   H     H_    0.511086 0.658147 0.207046 0.268126
H86   H     H_    0.552543 0.346931 0.464002 0.132090
H87   H     H_    0.252480 0.865702 0.821587 0.105468
H88   H     H_    0.620954 0.382980 0.428788 0.123234
H89   H     H_    0.534267 0.332271 0.249004 0.258759
H90   H     H_    0.593603 0.286158 0.365727 0.219883
H91   H     H_    0.466222 0.296189 0.285621 0.262184
H92   H     H_    0.390876 0.613480 0.465230 0.123237
H93   H     H_    0.459545 0.651256 0.432221 0.133057
H94   H     H_    0.541607 0.701273 0.612225 0.263288
H95   H     H_    0.413880 0.710648 0.526723 0.227248
H96   H     H_    0.469902 0.664167 0.642512 0.255417
H97   H     H_    0.900844 0.877970 0.463367 0.113180
H98   H     H_    0.991559 0.334696 0.175153 0.107973
H99   H     H_    0.880637 0.921898 0.544770 0.143231
H100  H     H_    0.974188 0.859536 0.703731 0.268554
H101  H     H_    0.878166 0.823621 0.582604 0.228749
H102  H     H_    0.998551 0.815385 0.624966 0.254530
H103  H     H_    0.131629 0.073579 0.351854 0.134881
H104  H     H_    0.124126 0.110962 0.450782 0.120513
H105  H     H_    0.034346 0.184749 0.317565 0.247669
H106  H     H_    0.144063 0.171792 0.334118 0.223317
H107  H     H_    0.033236 0.146765 0.212041 0.279720
H108  H     H_    0.039241 0.844345 0.487473 0.133568
N1    N     N_R   0.892620 0.603790 0.941800 -0.042701
N2    N     N_R   0.047790 0.602400 0.942090 -0.042419
N3    N     N_R   0.047790 0.397600 0.942090 -0.041510
N4    N     N_R   0.952210 0.602400 0.057910 -0.040419
N5    N     N_R   0.452210 0.897600 0.057910 -0.040908
N6    N     N_R   0.547790 0.102400 0.942090 -0.041310
N7    N     N_R   0.547790 0.897600 0.942090 -0.042557
N8    N     N_R   0.452210 0.102400 0.057910 -0.041285
N9    N     N_R   0.026300 0.529110 0.206760 -0.068989
N10   N     N_R   0.973700 0.470890 0.793240 -0.070440
N11   N     N_R   0.973700 0.529110 0.793240 -0.070436
N12   N     N_R   0.107380 0.396210 0.058200 -0.044082
N13   N     N_R   0.026300 0.470890 0.206760 -0.069712
N14   N     N_R   0.526300 0.029110 0.206760 -0.068905
N15   N     N_R   0.473700 0.970890 0.793240 -0.069967
N16   N     N_R   0.473700 0.029110 0.793240 -0.069173
N17   N     N_R   0.526300 0.970890 0.206760 -0.068885
N18   N     N_R   0.818530 0.472270 0.792960 -0.061302
N19   N     N_R   0.181470 0.527730 0.207040 -0.052549
N20   N     N_R   0.181470 0.472270 0.207040 -0.055394
N21   N     N_R   0.818530 0.527730 0.792960 -0.059848
N22   N     N_R   0.318530 0.972270 0.792960 -0.059906
N23   N     N_R   0.107380 0.603790 0.058200 -0.045361
N24   N     N_R   0.681470 0.027730 0.207040 -0.052615
N25   N     N_R   0.681470 0.972270 0.207040 -0.056536
N26   N     N_R   0.318530 0.027730 0.792960 -0.058943
N27   N     N_1   0.127713 0.642825 0.386785 -0.097565
N28   N     N_1   0.900907 0.356075 0.614272 -0.103613
N29   N     N_1   0.911640 0.643386 0.618091 -0.107367
N30   N     N_1   0.108795 0.357144 0.386231 -0.106487
N31   N     N_1   0.624882 0.143242 0.386157 -0.098483
N32   N     N_1   0.392036 0.856271 0.612943 -0.103745
N33   N     N_1   0.379121 0.139977 0.607814 -0.101225
N34   N     N_R   0.892620 0.396210 0.941800 -0.041243
N35   N     N_1   0.622969 0.859040 0.389700 -0.101320
N36   N     N_R   0.392620 0.103790 0.941800 -0.042222
N37   N     N_R   0.607380 0.896210 0.058200 -0.044547
N38   N     N_R   0.607380 0.103790 0.058200 -0.044497
N39   N     N_R   0.392620 0.896210 0.941800 -0.043668
N40   N     N_R   0.952210 0.397600 0.057910 -0.041692
Ni1   Ni    Ni4+2 0.934150 0.565840 0.869060 0.214811
Ni2   Ni    Ni4+2 0.065850 0.434160 0.130940 0.216362
Ni3   Ni    Ni4+2 0.065850 0.565840 0.130940 0.224459
Ni4   Ni    Ni4+2 0.934150 0.434160 0.869060 0.212030
Ni5   Ni    Ni4+2 0.434150 0.065840 0.869060 0.222526
Ni6   Ni    Ni4+2 0.565850 0.934160 0.130940 0.219963
Ni7   Ni    Ni4+2 0.565850 0.065840 0.130940 0.230313
Ni8   Ni    Ni4+2 0.434150 0.934160 0.869060 0.216395
O1    O     O_3   0.371067 0.508958 0.485448 -0.632591
O2    O     O_3   0.995923 0.076506 0.314050 -0.635789
O3    O     O_3   0.969004 0.896643 0.351384 -0.638235
O4    O     O_3   0.045686 0.099525 0.555804 -0.646924
O5    O     O_3   0.646329 0.489432 0.415530 -0.632698
O6    O     O_3   0.871758 0.020571 0.487126 -0.634853
O7    O     O_3   0.147499 0.975745 0.426015 -0.634435
O8    O     O_3   0.530464 0.413587 0.582391 -0.638285
O9    O     O_3   0.482944 0.584644 0.314692 -0.632582
O10   O     O_3   0.474927 0.402379 0.333904 -0.634042
O11   O     O_3   0.537790 0.596114 0.562576 -0.644898
O12   O     O_3   0.020874 0.920242 0.595022 -0.640147

loop_
_geom_bond_atom_site_label_1
_geom_bond_atom_site_label_2
_ccdc_geom_bond_type
C87   N10   A    
N9    N13   A    
C26   H86   S    
C19   C20   S    
C100  H76   S    
C46   C62   A    
C84   N7    A    
C50   C59   A    
C29   H94   S    
C8    N31   T    
C52   C61   A    
C45   N12   A    
C32   H104  S    
C94   N17   A    
C62   C108  S    
C54   C63   A    
C74   C114  S    
C131  O5    S    
C78   C108  A    
C54   H44   S    
C16   H61   S    
C14   H57   S    
C24   C129  S    
C128  O3    S    
C24   C119  S    
C22   H80   S    
C85   N8    A    
C50   H39   S    
C78   H54   S    
C34   H108  S    
C28   O11   S    
C100  N38   A    
C21   C22   S    
C21   O8    S    
C2    C117  S    
N36   Ni5   S    
C31   H102  S    
C46   H35   S    
C71   H51   S    
C72   H52   S    
N15   Ni8   S    
C111  N39   A    
C37   C38   S    
C65   C68   A    
C19   H71   S    
C2    C131  S    
C92   C116  A    
C56   C106  A    
C9    N32   T    
C35   C51   A    
C75   C115  S    
C10   N33   T    
C77   N40   A    
C23   H81   S    
C2    C121  S    
C15   H59   S    
C28   C29   S    
C94   C115  A    
C66   H47   S    
C56   H32   S    
C27   H91   S    
C16   H63   S    
C64   H45   S    
C66   C73   A    
N26   Ni5   S    
C30   O12   S    
C96   N19   A    
C12   H53   S    
C22   H78   S    
N17   Ni6   S    
C13   C132  S    
C18   H69   S    
C99   C119  A    
C48   H37   S    
C13   C127  S    
C92   N15   A    
C65   H46   S    
C69   H49   S    
N22   Ni8   S    
C98   H22   S    
C39   H28   S    
C38   H11   S    
C111  C112  A    
C78   N36   A    
C121  C130  S    
C93   N16   A    
C48   C57   A    
C95   C117  A    
C4    N27   T    
C19   O7    S    
C81   N4    A    
C41   C58   A    
C37   O4    S    
C49   H38   S    
C4    C86   S    
C68   C74   A    
C6    C88   S    
C69   C76   A    
C118  C122  S    
C33   H106  S    
C97   H20   S    
C91   C115  A    
N24   N25   A    
C80   H12   S    
C36   H5    S    
C86   N9    A    
C24   C126  S    
C3    C24   S    
C123  O9    S    
C111  H87   S    
C20   H73   S    
C1    H1    S    
C9    C92   S    
C45   C105  A    
C27   H89   S    
C25   H83   S    
C56   N23   A    
C33   H105  S    
C3    C128  S    
N14   N17   A    
C7    C90   S    
C37   H8    S    
C79   C106  A    
C93   C116  A    
C30   H99   S    
C63   C109  S    
C127  C129  S    
N3    Ni4   S    
C1    C104  A    
C126  C132  S    
C28   H92   S    
C89   N37   A    
C17   C18   S    
C83   C110  A    
C95   H18   S    
N21   Ni1   S    
N25   Ni6   S    
C18   H68   S    
C38   H9    S    
C58   C104  S    
C122  C124  S    
C13   C120  S    
C124  O10   S    
C34   O3    S    
C79   H2    S    
C126  C128  S    
C101  C120  A    
C103  N26   A    
C7    N30   T    
N7    Ni8   S    
C28   H93   S    
N8    Ni7   S    
C89   H65   S    
C84   C109  A    
C80   N3    A    
N1    N4    A    
C67   N34   A    
C3    O7    S    
C47   H36   S    
C130  O1    S    
C34   C36   S    
C16   H62   S    
C14   H58   S    
C2    C125  S    
C101  N24   A    
C70   C75   A    
C17   H64   S    
N18   Ni4   S    
C51   C60   A    
C29   H96   S    
C41   H30   S    
C61   C112  S    
C23   H82   S    
N15   N16   A    
C97   N20   A    
C95   N18   A    
C100  C110  A    
C25   H85   S    
N14   Ni7   S    
C31   H101  S    
C26   C27   S    
C59   C105  S    
C86   C113  A    
C30   H97   S    
C51   H40   S    
C30   C31   S    
C123  C125  S    
C73   C113  S    
N11   Ni1   S    
C70   H50   S    
C39   C55   A    
C129  O4    S    
C67   H43   S    
C102  N25   A    
C99   H23   S    
C85   C108  A    
C129  C132  S    
C84   H16   S    
C6    N29   T    
C36   H4    S    
C82   H14   S    
C127  O2    S    
C43   H33   S    
C44   C63   A    
C55   C106  S    
C20   H72   S    
N38   Ni7   S    
C10   C93   S    
N10   N11   A    
C82   C112  A    
N7    N37   A    
N12   Ni2   S    
C14   H56   S    
C22   H79   S    
C17   H66   S    
N5    N39   A    
C8    C91   S    
C88   N11   A    
C11   C94   S    
C45   H21   S    
C102  C120  A    
N13   Ni2   S    
N4    Ni3   S    
N9    Ni3   S    
C123  C131  S    
N5    Ni6   S    
N10   Ni4   S    
C103  H26   S    
C101  H24   S    
C35   C57   A    
C32   C33   S    
C40   H29   S    
C34   H3    S    
C21   H77   S    
C88   C114  A    
C60   C110  S    
C5    N28   T    
C64   C74   A    
C36   H6    S    
C64   C66   A    
C32   H103  S    
C32   O2    S    
C44   C49   A    
C15   H60   S    
C20   H74   S    
C72   C76   A    
N23   Ni3   S    
C77   H98   S    
N34   N40   A    
C96   C118  A    
N40   Ni2   S    
N8    N36   A    
C125  O11   S    
C3    C127  S    
C90   C113  A    
C126  O12   S    
C15   C16   S    
C89   C109  A    
C65   C73   A    
C26   O10   S    
C69   C71   A    
C79   N2    A    
C97   C118  A    
N6    N38   A    
C87   C114  A    
C13   C128  S    
C125  C130  S    
C99   N22   A    
C121  C124  S    
N2    N23   A    
C43   C48   A    
N2    Ni1   S    
C23   O9    S    
C39   C52   A    
C40   C59   A    
C31   H100  S    
C38   H10   S    
C102  H25   S    
C53   H42   S    
C35   H27   S    
C17   O6    S    
C26   H88   S    
C77   C107  A    
N34   Ni4   S    
C42   H31   S    
C12   O1    S    
C96   H19   S    
C80   C105  A    
C68   H48   S    
C19   H70   S    
C49   C58   A    
C124  C131  S    
C5    C87   S    
C33   H107  S    
C53   C62   A    
C44   H34   S    
C42   C61   A    
C11   N35   T    
C1    N1    A    
C43   C60   A    
C83   H15   S    
C12   H55   S    
C57   C107  S    
C90   N13   A    
C12   C14   S    
C81   H13   S    
N18   N21   A    
C29   H95   S    
N19   N20   A    
C98   C117  A    
C47   C55   A    
C15   O5    S    
C27   H90   S    
N3    N12   A    
C82   N5    A    
N24   Ni7   S    
C25   H84   S    
C103  C119  A    
N1    Ni1   S    
N22   N26   A    
N20   Ni2   S    
C91   N14   A    
N37   Ni6   S    
C46   C50   A    
N39   Ni8   S    
C21   H75   S    
N19   Ni3   S    
C71   C75   A    
C98   N21   A    
C67   C107  A    
C83   N6    A    
C76   C116  S    
C132  O6    S    
N16   Ni5   S    
C42   C47   A    
C23   C25   S    
C85   H17   S    
C41   C54   A    
C40   C53   A    
C37   H7    S    
C18   H67   S    
C121  O8    S    
N6    Ni5   S    
C70   C72   A    
C122  C123  S    
C52   H41   S    
C122  C130  S    
C81   C104  A    
