data_mof_unit_39856.cif
_audit_creation_date              2012-12-10T18:09:06-0500
_audit_creation_method            fapswitch 2.2
_symmetry_space_group_name_H-M    P1
_symmetry_Int_Tables_number       1
_space_group_crystal_system       triclinic
_cell_length_a                    12.621886
_cell_length_b                    13.30447
_cell_length_c                    13.658456
_cell_angle_alpha                 90.951478
_cell_angle_beta                  96.308531
_cell_angle_gamma                 97.228594
_cell_volume                      2260.54490413

loop_
_atom_site_label
_atom_site_type_symbol
_atom_type_description
_atom_site_fract_x
_atom_site_fract_y
_atom_site_fract_z
_atom_type_partial_charge
C1    C     C_R   0.558717 0.690783 0.517316 0.864925
C2    C     C_R   0.464887 0.033742 0.504378 0.015682
C3    C     C_R   0.356948 0.989694 0.488871 -0.026463
C4    C     C_R   0.516802 0.496594 0.318317 0.887399
C5    C     C_R   0.329975 0.892250 0.521132 -0.208578
C6    C     C_R   0.411390 0.837380 0.556787 -0.168960
C7    C     C_R   0.485590 0.138019 0.510458 -0.304841
C8    C     C_R   0.301453 0.152347 0.444143 0.384742
C9    C     C_R   0.594300 0.799698 0.533001 -0.119947
C10   C     C_R   0.903041 0.373811 0.656541 -0.353826
C11   C     C_R   0.210951 0.619951 0.377602 0.027032
C12   C     C_1   0.526658 0.492980 0.217094 -0.164765
C13   C     C_R   0.109322 0.647571 0.352180 -0.260660
C14   C     C_R   0.024417 0.606446 0.401935 -0.192424
C15   C     C_R   0.041472 0.537389 0.477863 0.032417
C16   C     C_R   0.440343 0.308621 0.487725 0.915616
C17   C     C_R   0.147160 0.513674 0.502350 0.221420
C18   C     C_R   0.958067 0.488841 0.528487 -0.015262
C19   C     C_R   0.983715 0.424758 0.607449 0.161728
C20   C     C_R   0.089019 0.406830 0.632938 -0.302559
C21   C     C_R   0.168569 0.447442 0.578247 -0.250895
C22   C     C_R   0.849335 0.498097 0.501946 -0.118768
C23   C     C_R   0.278547 0.045938 0.445106 0.385164
C24   C     C_R   0.796677 0.385061 0.626436 0.393618
C25   C     C_R   0.482927 0.502822 0.681563 0.896137
C26   C     C_1   0.470353 0.501863 0.782132 -0.195691
C27   C     C_2   0.446336 0.499797 0.969527 0.540200
C28   C     C_2   0.535012 0.487364 0.027911 -0.272620
C29   C     C_1   0.533359 0.489818 0.131128 0.077603
C30   C     C_1   0.457656 0.500937 0.866895 -0.180332
C31   C     C_3   0.715393 0.356327 0.777797 -0.783727
C32   C     C_3   0.261925 0.518586 0.939309 0.103826
C33   C     C_3   0.257789 0.626778 0.903185 -0.359347
C34   C     C_R   0.405990 0.198797 0.481187 -0.263871
C35   C     C_3   0.164414 0.630812 0.822896 -0.938221
C36   C     C_3   0.152971 0.231799 0.461844 0.156464
C37   C     C_3   0.052849 0.152504 0.455597 -0.364209
C38   C     C_3   0.961847 0.192216 0.502380 -0.974389
C39   C     C_3   0.190328 0.946684 0.314259 0.064598
C40   C     C_3   0.190026 0.019462 0.228383 -0.309937
C41   C     C_3   0.189590 0.962723 0.130304 -0.989822
C42   C     C_3   0.653831 0.097982 0.357994 0.097075
C43   C     C_3   0.748866 0.086745 0.299813 -0.368278
C44   C     C_3   0.715738 0.087763 0.189029 -0.955004
C45   C     C_R   0.702405 0.835868 0.526645 -0.278867
C46   C     C_R   0.732912 0.937499 0.510778 -0.230145
C47   C     C_R   0.655868 0.004111 0.497719 0.471793
C48   C     C_R   0.547841 0.971320 0.516223 -0.003062
C49   C     C_R   0.518543 0.868865 0.537939 0.035697
H1    H     H_    0.609717 0.476685 0.998586 0.119105
H2    H     H_    0.246819 0.860422 0.522611 0.178734
H3    H     H_    0.564047 0.171969 0.542388 0.237152
H4    H     H_    0.762363 0.784404 0.525910 0.184230
H5    H     H_    0.815461 0.962417 0.499385 0.157865
H6    H     H_    0.704696 0.255091 0.659698 0.215088
H7    H     H_    0.782382 0.324077 0.820737 0.214518
H8    H     H_    0.638657 0.323280 0.803910 0.239214
H9    H     H_    0.725159 0.439739 0.791433 0.256286
H10   H     H_    0.188669 0.496194 0.976113 0.158878
H11   H     H_    0.257855 0.462540 0.877047 0.133730
H12   H     H_    0.388297 0.767670 0.592964 0.176711
H13   H     H_    0.248279 0.677479 0.966273 0.224634
H14   H     H_    0.333811 0.655542 0.873295 0.226876
H15   H     H_    0.175651 0.584753 0.757219 0.283670
H16   H     H_    0.161337 0.710391 0.800694 0.263734
H17   H     H_    0.086992 0.601720 0.850241 0.262487
H18   H     H_    0.126497 0.304555 0.437356 0.184270
H19   H     H_    0.189897 0.243259 0.539919 0.099852
H20   H     H_    0.025047 0.130111 0.377322 0.248191
H21   H     H_    0.071901 0.085018 0.497152 0.254334
H22   H     H_    0.986767 0.209039 0.581911 0.270901
H23   H     H_    0.108845 0.355573 0.691105 0.151660
H24   H     H_    0.891358 0.133243 0.495934 0.297912
H25   H     H_    0.938348 0.260771 0.464845 0.280572
H26   H     H_    0.119610 0.887709 0.299319 0.161617
H27   H     H_    0.262684 0.906064 0.318340 0.132329
H28   H     H_    0.117666 0.059538 0.225634 0.238648
H29   H     H_    0.262658 0.076749 0.239532 0.229344
H30   H     H_    0.262106 0.923158 0.131068 0.264903
H31   H     H_    0.189911 0.017340 0.069712 0.272070
H32   H     H_    0.116467 0.906334 0.116010 0.264864
H33   H     H_    0.625489 0.172253 0.341228 0.176180
H34   H     H_    0.922298 0.323689 0.715842 0.148854
H35   H     H_    0.585056 0.038752 0.332275 0.126275
H36   H     H_    0.813807 0.150311 0.320512 0.238458
H37   H     H_    0.780703 0.014306 0.317813 0.221033
H38   H     H_    0.652192 0.023613 0.165902 0.264781
H39   H     H_    0.786416 0.079983 0.149033 0.266592
H40   H     H_    0.685204 0.160311 0.168922 0.265391
H41   H     H_    0.822295 0.545848 0.443979 0.141085
H42   H     H_    0.277373 0.651543 0.339207 0.143247
H43   H     H_    0.947147 0.630531 0.379985 0.136675
H44   H     H_    0.096262 0.700142 0.293808 0.139312
H45   H     H_    0.244307 0.419814 0.592298 0.210246
N1    N     N_R   0.773270 0.445590 0.549770 -0.117615
N2    N     N_R   0.227520 0.553880 0.450750 -0.132413
N3    N     N_2   0.712592 0.332207 0.673660 -0.257392
O1    O     O_R   0.631100 0.627590 0.523760 -0.618364
O2    O     O_3   0.226607 0.207843 0.396745 -0.630769
O3    O     O_3   0.179666 0.997917 0.403659 -0.667977
O4    O     O_3   0.686954 0.098148 0.460660 -0.682840
O5    O     O_R   0.455900 0.662370 0.491970 -0.627807
O6    O     O_R   0.600200 0.480080 0.377830 -0.619604
O7    O     O_R   0.425000 0.514870 0.346040 -0.596922
O8    O     O_R   0.544100 0.337630 0.508030 -0.604655
O9    O     O_R   0.368900 0.372410 0.476240 -0.609266
O10   O     O_R   0.575000 0.485130 0.653960 -0.584144
O11   O     O_R   0.399800 0.519920 0.622170 -0.645491
O12   O     O_3   0.352037 0.514769 0.010247 -0.635530
Zn1   Zn    Zn3+2 0.616980 0.476780 0.521230 0.956043
Zn2   Zn    Zn3+2 0.383020 0.523220 0.478770 0.934572

loop_
_geom_bond_atom_site_label_1
_geom_bond_atom_site_label_2
_ccdc_geom_bond_type
C11   N2    A    
C15   C18   A    
O8    Zn1   S    
C9    C45   A    
O1    Zn1   S    
C37   H20   S    
C12   C29   T    
C22   N1    A    
C3    C23   A    
C2    C7    A    
C42   H33   S    
C41   H31   S    
C36   H18   S    
C45   C46   A    
C25   O10   A    
O6    Zn1   S    
C47   O4    S    
C6    H12   S    
C28   C29   S    
C8    O2    S    
C7    H3    S    
C5    C6    A    
C33   C35   S    
C21   H45   S    
C35   H16   S    
C4    O6    A    
C10   H34   S    
C8    C23   A    
C18   C19   A    
C16   C34   S    
C38   H22   S    
C28   H1    S    
C19   C20   A    
C33   H13   S    
C35   H15   S    
C39   H26   S    
C31   H7    S    
C4    C12   S    
C44   H38   S    
C16   O9    A    
C23   O3    S    
C45   H4    S    
C13   C14   A    
C27   C30   S    
C46   H5    S    
O5    Zn2   S    
O9    Zn2   S    
N2    Zn2   S    
C32   O12   S    
C24   N3    S    
C43   H36   S    
C1    C9    S    
C9    C49   A    
C24   N1    A    
C39   C40   S    
C35   H17   S    
C2    C48   A    
C25   C26   S    
C17   C21   A    
C13   H44   S    
C43   C44   S    
C37   C38   S    
C47   C48   A    
C14   C15   A    
C10   C19   A    
C33   H14   S    
C41   H32   S    
H6    N3    S    
C22   H41   S    
C42   H35   S    
C17   N2    A    
C8    C34   A    
C39   H27   S    
C14   H43   S    
C16   O8    A    
C48   C49   A    
C26   C30   T    
O10   Zn1   S    
C40   H29   S    
C42   C43   S    
C32   H11   S    
C42   O4    S    
C31   H9    S    
C38   H25   S    
C15   C17   A    
C46   C47   A    
C36   C37   S    
C18   C22   A    
C43   H37   S    
C20   H23   S    
C3    C5    A    
N1    Zn1   S    
C1    O1    A    
C41   H30   S    
O7    Zn2   S    
C36   H19   S    
O11   Zn2   S    
C10   C24   A    
C32   C33   S    
C31   H8    S    
C2    C3    A    
C44   H39   S    
C11   C13   A    
C39   O3    S    
C4    O7    A    
C7    C34   A    
C36   O2    S    
C31   N3    S    
C6    C49   A    
C11   H42   S    
C20   C21   A    
C27   O12   S    
C27   C28   D    
C40   H28   S    
C5    H2    S    
C40   C41   S    
C32   H10   S    
C37   H21   S    
C1    O5    A    
C44   H40   S    
C25   O11   A    
C38   H24   S    
