data_mof_unit_55096.cif
_audit_creation_date              2013-03-05T16:11:04-0500
_audit_creation_method            fapswitch 2.2
_symmetry_space_group_name_H-M    P1
_symmetry_Int_Tables_number       1
_space_group_crystal_system       triclinic
_cell_length_a                    10.902061
_cell_length_b                    9.437566
_cell_length_c                    10.693316
_cell_angle_alpha                 90.222563
_cell_angle_beta                  90.011851
_cell_angle_gamma                 90.098007
_cell_volume                      1100.21380155

loop_
_atom_site_label
_atom_site_type_symbol
_atom_site_description
_atom_site_fract_x
_atom_site_fract_y
_atom_site_fract_z
_atom_type_partial_charge
O1    O     O_R   0.317570 0.620260 0.500070 -0.541091
O2    O     O_R   0.317570 0.379740 0.500070 -0.531850
C1    C     C_R   0.259001 0.499808 0.503899 1.009657
O3    O     O_R   0.499850 0.620240 0.316900 -0.588679
O4    O     O_R   0.499850 0.379760 0.316900 -0.557027
C2    C     C_R   0.501897 0.499519 0.259798 0.918890
Cu1   Cu    Cu3+1 0.499860 0.642410 0.500060 0.984207
Cu2   Cu    Cu3+1 0.499860 0.357590 0.500060 0.995931
O5    O     O_R   0.682190 0.620260 0.500030 -0.617437
O6    O     O_R   0.682190 0.379740 0.500030 -0.604839
O7    O     O_R   0.499910 0.620280 0.683200 -0.590403
O8    O     O_R   0.499910 0.379720 0.683200 -0.592034
C3    C     C_R   0.738417 0.500132 0.511033 0.812945
C4    C     C_R   0.500662 0.500645 0.740767 0.891339
C5    C     C_3   0.596104 0.581506 0.043902 -0.236955
C6    C     C_3   0.394780 0.551444 0.044711 -0.153714
C7    C     C_3   0.487877 0.631457 0.963434 0.400939
H1    H     H_    0.671729 0.648911 0.080415 0.207367
H2    H     H_    0.306670 0.594881 0.079219 0.255290
C8    C     C_3   0.501389 0.502343 0.877610 -0.172361
C9    C     C_3   0.610110 0.449707 0.957203 -0.300596
C10   C     C_3   0.408838 0.419206 0.958498 -0.140313
C11   C     C_3   0.517317 0.369767 0.038617 0.388390
C12   C     C_3   0.503285 0.498560 0.123835 -0.182690
H3    H     H_    0.698622 0.407824 0.923618 0.189527
H4    H     H_    0.333346 0.348434 0.928281 0.258284
C13   C     C_3   0.070021 0.631756 0.594995 0.448885
C14   C     C_3   0.067218 0.351547 0.575880 0.460062
C15   C     C_3   0.926072 0.641060 0.578088 -0.017219
C16   C     C_3   0.922163 0.365788 0.588857 -0.012097
H5    H     H_    0.903965 0.720619 0.505193 0.203205
H6    H     H_    0.879691 0.274641 0.539131 0.190412
H7    H     H_    0.869126 0.568876 0.323838 0.218469
H8    H     H_    0.889317 0.387979 0.342770 0.241461
C17   C     C_3   0.063734 0.508392 0.368559 0.480280
C18   C     C_3   0.119204 0.498350 0.509711 -0.488424
C19   C     C_3   0.874981 0.500336 0.518983 -0.220793
C20   C     C_3   0.920435 0.491462 0.381419 -0.523380
C21   C     C_3   0.623595 0.083706 0.473802 -0.199643
C22   C     C_3   0.621314 0.916493 0.465117 -0.204463
H9    H     H_    0.690220 0.115534 0.546936 0.142089
H10   H     H_    0.694663 0.874740 0.526434 0.162614
H11   H     H_    0.658683 0.128288 0.384604 0.214922
H12   H     H_    0.644213 0.882112 0.368227 0.188776
H13   H     H_    0.522323 0.125955 0.701288 0.166945
H14   H     H_    0.548559 0.887056 0.693621 0.180865
C23   C     C_3   0.463128 0.083072 0.625662 -0.141724
C24   C     C_3   0.473806 0.916764 0.628127 -0.142757
C25   C     C_3   0.417773 0.082844 0.405430 -0.137819
C26   C     C_3   0.408573 0.916525 0.414323 -0.131179
N1    N     N_3   0.500250 0.143650 0.502780 -0.187520
N2    N     N_3   0.500250 0.856350 0.502780 -0.193596
H15   H     H_    0.326400 0.131482 0.409865 0.244284
H16   H     H_    0.314832 0.887278 0.443998 0.251115
H17   H     H_    0.452251 0.110941 0.310977 0.210746
H18   H     H_    0.421433 0.870247 0.319586 0.200685
H19   H     H_    0.368090 0.115428 0.648728 0.244007
H20   H     H_    0.389494 0.869417 0.666287 0.255941
N3    N     N_R   0.472006 0.777929 0.924615 0.126943
O9    O     O_R   0.362140 0.827156 0.906574 -0.262184
O10   O     O_R   0.563380 0.866026 0.934573 -0.358069
N4    N     N_R   0.535605 0.224641 0.080131 0.130989
O11   O     O_R   0.637043 0.189545 0.135880 -0.361384
O12   O     O_R   0.453996 0.127988 0.055065 -0.285251
N5    N     N_R   0.120459 0.773626 0.559641 0.107387
O13   O     O_R   0.080241 0.842632 0.463043 -0.292544
O14   O     O_R   0.175600 0.850216 0.643987 -0.302731
N6    N     N_R   0.093639 0.222771 0.499341 0.118091
O15   O     O_R   0.024644 0.185765 0.405303 -0.325938
O16   O     O_R   0.161370 0.123552 0.547024 -0.292613
N7    N     N_R   0.107114 0.607072 0.727701 0.163834
O17   O     O_R   0.221586 0.622551 0.759916 -0.294462
O18   O     O_R   0.030257 0.571337 0.815141 -0.279875
N8    N     N_R   0.122812 0.324491 0.701455 0.194645
O19   O     O_R   0.076874 0.225446 0.771829 -0.249825
O20   O     O_R   0.237507 0.353055 0.721541 -0.369939
N9    N     N_2   0.861859 0.690642 0.690706 -0.414656
H21   H     H_    0.770869 0.663497 0.699562 0.251211
C27   C     C_3   0.883025 0.836662 0.727223 -0.481639
H22   H     H_    0.974930 0.848671 0.770087 0.309669
H23   H     H_    0.814154 0.869578 0.798174 0.220287
H24   H     H_    0.875425 0.907581 0.645141 0.194227
N10   N     N_2   0.877677 0.359392 0.718157 -0.351752
H25   H     H_    0.837689 0.448068 0.755506 0.283262
C28   C     C_3   0.815610 0.231149 0.757382 -0.578409
H26   H     H_    0.825145 0.218864 0.860079 0.275416
H27   H     H_    0.856610 0.136612 0.712577 0.232713
H28   H     H_    0.716857 0.237748 0.733887 0.191275
N11   N     N_R   0.095561 0.643488 0.306657 0.165856
O21   O     O_R   0.210156 0.673828 0.286032 -0.348616
O22   O     O_R   0.014081 0.715438 0.244483 -0.283631
N12   N     N_R   0.109647 0.396995 0.282301 0.171502
O23   O     O_R   0.226199 0.369544 0.275176 -0.355405
O24   O     O_R   0.043456 0.362361 0.185350 -0.256308

loop_
_geom_bond_atom_site_label_1
_geom_bond_atom_site_label_2
_geom_bond_distance
_ccdc_geom_bond_type
C5    H1    1.110411 S    
C21   N1    1.491895 S    
C13   C15   1.582312 S    
C17   C18   1.629066 S    
C14   N8    1.496171 S    
Cu1   Cu2   2.688007 S    
C21   H9    1.107518 S    
C28   H26   1.109608 S    
Cu1   O7    1.970287 S    
N4    O11   1.300224 A    
N8    O20   1.296393 A    
C14   N6    1.491121 S    
Cu1   N2    2.019167 S    
O4    C2    1.286874 A    
O7    C4    1.288109 A    
C23   H19   1.108243 S    
C7    C8    1.529944 S    
Cu1   O5    1.999090 S    
H13   C23   1.109329 S    
C16   N10   1.466762 S    
O5    C3    1.295495 A    
N4    O12   1.300270 A    
C11   N4    1.455450 S    
C23   C24   1.574374 S    
N6    O15   1.301929 A    
N5    O14   1.300216 A    
C26   N2    1.490605 S    
C11   C12   1.524247 S    
N11   O22   1.302885 A    
C22   H12   1.113026 S    
C3    C19   1.491228 S    
N9    H21   1.028581 S    
C17   N12   1.483593 S    
N9    C27   1.448960 S    
N3    O9    1.300077 A    
C6    C12   1.539224 S    
O1    Cu1   1.997944 S    
O3    Cu1   1.968923 S    
C28   H27   1.106123 S    
H14   C24   1.111459 S    
N3    O10   1.300534 A    
N8    O19   1.301880 A    
C4    C8    1.463348 S    
C17   C20   1.576226 S    
O3    C2    1.290759 A    
C21   C22   1.580601 S    
C27   H23   1.111347 S    
C6    C7    1.535754 S    
C21   H11   1.111697 S    
C25   N1    1.488183 S    
C22   N2    1.491913 S    
C26   H18   1.110640 S    
C16   C19   1.563563 S    
O1    C1    1.303659 A    
C19   C20   1.554333 S    
C13   N5    1.496486 S    
C27   H24   1.109043 S    
N10   H25   1.024047 S    
C24   N2    1.483103 S    
Cu2   O8    1.968673 S    
C2    C12   1.453967 S    
N12   O24   1.303312 A    
C26   H16   1.105053 S    
Cu2   N1    2.019407 S    
C7    N3    1.455459 S    
C17   N11   1.479610 S    
N6    O16   1.299217 A    
C5    C12   1.539543 S    
N10   C28   1.449097 S    
O8    C4    1.294583 A    
N5    O13   1.299764 A    
C9    C11   1.534061 S    
C13   N7    1.494725 S    
N7    O18   1.300722 A    
C28   H28   1.107398 S    
C5    C7    1.536051 S    
C9    H3    1.103049 S    
C6    C10   1.556495 S    
H8    C20   1.111475 S    
O2    Cu2   1.998655 S    
C8    C10   1.544268 S    
O6    C3    1.295037 A    
O4    Cu2   1.970540 S    
C23   N1    1.490817 S    
C24   H20   1.100556 S    
C13   C18   1.642541 S    
H7    C20   1.109302 S    
C14   C16   1.593363 S    
O2    C1    1.302135 A    
N7    O17   1.302416 A    
C15   H5    1.111104 S    
C25   H17   1.110694 S    
C16   H6    1.109998 S    
C1    C18   1.525389 S    
C6    H2    1.107808 S    
C25   H15   1.098489 S    
C22   H10   1.107936 S    
N12   O23   1.299426 A    
C27   H22   1.107192 S    
C5    C9    1.556207 S    
C15   N9    1.468462 S    
C8    C9    1.543031 S    
C14   C18   1.657252 S    
Cu2   O6    1.998379 S    
C25   C26   1.575919 S    
C10   H4    1.106434 S    
C15   C19   1.569824 S    
C10   C11   1.534583 S    
N11   O21   1.300321 A    
