data_mof_unit_25930.cif
_audit_creation_date              2012-12-10T19:48:41-0500
_audit_creation_method            fapswitch 2.2
_symmetry_space_group_name_H-M    P1
_symmetry_Int_Tables_number       1
_space_group_crystal_system       triclinic
_cell_length_a                    13.057744
_cell_length_b                    14.189512
_cell_length_c                    14.994708
_cell_angle_alpha                 89.470422
_cell_angle_beta                  90.745625
_cell_angle_gamma                 70.158601
_cell_volume                      2612.83828536

loop_
_atom_site_label
_atom_site_type_symbol
_atom_type_description
_atom_site_fract_x
_atom_site_fract_y
_atom_site_fract_z
_atom_type_partial_charge
C1    C     C_R   0.495724 0.501125 0.672533 0.883727
C2    C     C_R   0.984349 0.451418 0.459312 0.071199
C3    C     C_R   0.872139 0.475720 0.444058 0.094467
C4    C     C_R   0.029127 0.528594 0.452158 0.044612
C5    C     C_R   0.969690 0.621452 0.410031 0.115409
C6    C     C_R   0.863348 0.636925 0.379640 -0.256636
C7    C     C_R   0.814634 0.565698 0.397552 -0.176126
C8    C     C_R   0.128947 0.517304 0.492158 -0.258928
C9    C     C_R   0.122561 0.679523 0.436968 -0.279010
C10   C     C_R   0.821241 0.409555 0.477161 -0.196269
C11   C     C_R   0.484544 0.414054 0.906102 -0.187503
C12   C     C_R   0.704086 0.444910 0.493217 0.868428
C13   C     C_R   0.495465 0.414681 0.814805 -0.248415
C14   C     C_R   0.481404 0.504591 0.768633 -0.086949
C15   C     C_R   0.449551 0.596075 0.814980 0.206435
C16   C     C_R   0.441525 0.594225 0.907165 -0.238564
C17   C     C_R   0.462105 0.503193 0.953023 0.114801
C18   C     C_R   0.399945 0.579184 0.099043 -0.180115
C19   C     C_R   0.413815 0.580619 0.190335 -0.261468
C20   C     C_R   0.494936 0.501865 0.232993 -0.134297
C21   C     C_R   0.565065 0.421890 0.184759 0.478050
C22   C     C_R   0.551710 0.421833 0.093098 -0.252405
C23   C     C_R   0.499763 0.500333 0.328191 0.866561
C24   C     C_R   0.469614 0.500455 0.049867 0.058548
C25   C     C_R   0.583969 0.871383 0.530822 -0.436801
C26   C     C_R   0.584559 0.771074 0.537582 0.659343
C27   C     C_R   0.413466 0.820394 0.461086 -0.119125
C28   C     C_R   0.408606 0.921045 0.457873 -0.241498
C29   C     C_R   0.494865 0.948036 0.492960 0.118910
C30   C     C_R   0.457206 0.122198 0.420145 0.408245
C31   C     C_R   0.457640 0.221423 0.426728 -0.149033
C32   C     C_R   0.538251 0.187777 0.570736 0.352048
C33   C     C_R   0.532686 0.090474 0.569257 -0.414662
C34   C     C_R   0.295267 0.555455 0.498302 0.880247
C35   C     C_R   0.493063 0.055164 0.493723 0.009776
C36   C     C_R   0.017173 0.697287 0.402313 0.223061
C37   C     C_R   0.178617 0.588523 0.480393 -0.088155
C38   C     C_R   0.884579 0.311097 0.501547 -0.237700
C39   C     C_R   0.998037 0.279970 0.499538 0.286073
C40   C     C_R   0.047563 0.351275 0.482220 -0.277303
H1    H     H_    0.161818 0.734800 0.426771 0.149594
H2    H     H_    0.516343 0.344211 0.780773 0.177738
H3    H     H_    0.423408 0.663916 0.942746 0.133865
H4    H     H_    0.334594 0.639275 0.067107 0.139248
H5    H     H_    0.358859 0.641202 0.228113 0.160129
H6    H     H_    0.607218 0.361147 0.055947 0.144234
H7    H     H_    0.652788 0.890781 0.553958 0.160219
H8    H     H_    0.347098 0.800556 0.432676 0.145206
H9    H     H_    0.815356 0.705925 0.345997 0.178451
H10   H     H_    0.337255 0.977294 0.428948 0.186298
H11   H     H_    0.426319 0.273092 0.371424 0.175298
H12   H     H_    0.561328 0.042027 0.627218 0.166547
H13   H     H_    0.170674 0.451771 0.532700 0.162509
H14   H     H_    0.846200 0.258972 0.523926 0.163946
H15   H     H_    0.135530 0.326308 0.483396 0.139585
H16   H     H_    0.732158 0.581417 0.373199 0.164608
H17   H     H_    0.496657 0.343365 0.940200 0.138577
N1    N     N_R   0.500000 0.747530 0.500020 -0.114980
N2    N     N_R   0.499940 0.252470 0.500020 -0.120878
O1    O     O_R   0.499990 0.420530 0.630930 -0.599974
O2    O     O_R   0.499990 0.579480 0.630940 -0.562178
O3    O     O_R   0.653620 0.381060 0.499970 -0.612121
O4    O     O_R   0.653620 0.540010 0.499980 -0.553455
O5    O     O_R   0.500010 0.420520 0.369060 -0.596107
O6    O     O_R   0.500010 0.579470 0.369070 -0.642448
O7    O     O_R   0.346380 0.459990 0.500020 -0.616232
O8    O     O_R   0.346380 0.618940 0.500030 -0.626739
Zn1   Zn    Zn3+2 0.500000 0.393860 0.499990 0.955404
Zn2   Zn    Zn3+2 0.500000 0.606140 0.500010 0.975787
N3    N     N_2   0.423264 0.690026 0.769701 -0.284126
H18   H     H_    0.347928 0.739633 0.786240 0.215828
C41   C     C_3   0.507012 0.735096 0.776260 -0.759189
H19   H     H_    0.512663 0.760938 0.845295 0.214596
H20   H     H_    0.487078 0.800444 0.729785 0.231672
H21   H     H_    0.586759 0.680047 0.758021 0.251401
O9    O     O_3   0.640435 0.339380 0.226523 -0.656651
C42   C     C_3   0.731306 0.363281 0.257781 0.096048
H22   H     H_    0.759727 0.321029 0.321266 0.177057
H23   H     H_    0.712636 0.444144 0.273050 0.091913
C43   C     C_3   0.823640 0.329891 0.190821 -0.373832
H24   H     H_    0.842735 0.249015 0.176676 0.232397
H25   H     H_    0.797519 0.373133 0.127437 0.215105
C44   C     C_3   0.926016 0.346420 0.226918 -0.925302
H26   H     H_    0.909349 0.427168 0.239886 0.269345
H27   H     H_    0.991651 0.321259 0.177164 0.264244
H28   H     H_    0.954539 0.302728 0.289762 0.273238
O10   O     O_3   0.670966 0.693156 0.575750 -0.613263
C45   C     C_3   0.732778 0.722431 0.641404 0.032835
H29   H     H_    0.755524 0.663494 0.694447 0.160867
H30   H     H_    0.686268 0.792795 0.675968 0.120928
C46   C     C_3   0.838954 0.726094 0.601905 -0.326425
H31   H     H_    0.891393 0.648640 0.585987 0.236775
H32   H     H_    0.822307 0.771310 0.539198 0.225671
C47   C     C_3   0.900334 0.770259 0.667138 -0.969637
H33   H     H_    0.850740 0.848905 0.682280 0.261788
H34   H     H_    0.977825 0.769544 0.636963 0.271095
H35   H     H_    0.919463 0.725242 0.730020 0.265038
O11   O     O_3   0.420410 0.093025 0.341789 -0.658654
C48   C     C_3   0.510383 0.041541 0.288383 0.066494
H36   H     H_    0.484509 0.990911 0.244338 0.171564
H37   H     H_    0.581945 0.992523 0.328015 0.135726
C49   C     C_3   0.543710 0.115140 0.229669 -0.339193
H38   H     H_    0.471539 0.164022 0.191271 0.234317
H39   H     H_    0.575216 0.163256 0.272141 0.242545
C50   C     C_3   0.632431 0.059988 0.164837 -0.946358
H40   H     H_    0.705911 0.011612 0.202015 0.261854
H41   H     H_    0.655231 0.115301 0.124026 0.274525
H42   H     H_    0.602690 0.013026 0.119518 0.256400
N4    N     N_2   0.585638 0.217362 0.646141 -0.274568
H43   H     H_    0.565196 0.192485 0.705952 0.188246
C51   C     C_3   0.701321 0.199181 0.640135 -0.734767
H44   H     H_    0.747296 0.136743 0.686004 0.207032
H45   H     H_    0.718223 0.267708 0.659899 0.247186
H46   H     H_    0.731232 0.178801 0.571446 0.228273
N5    N     N_2   0.960137 0.790830 0.359719 -0.323531
H47   H     H_    0.976317 0.850496 0.387834 0.226141
C52   C     C_3   0.970539 0.790156 0.263786 -0.821357
H48   H     H_    0.056583 0.776873 0.245753 0.240840
H49   H     H_    0.918758 0.863718 0.235399 0.239934
H50   H     H_    0.943401 0.730971 0.234085 0.250850
N6    N     N_2   0.062400 0.179125 0.521733 -0.302500
H51   H     H_    0.143682 0.167729 0.534140 0.224540
C53   C     C_3   0.046351 0.103850 0.464105 -0.808084
H52   H     H_    0.099671 0.028314 0.487209 0.235337
H53   H     H_    0.067686 0.116107 0.394448 0.245012
H54   H     H_    0.960703 0.105745 0.465924 0.241667

loop_
_geom_bond_atom_site_label_1
_geom_bond_atom_site_label_2
_ccdc_geom_bond_type
C27   H8    S    
O7    Zn1   S    
O10   C45   S    
C52   H48   S    
C43   H24   S    
C34   C37   S    
C19   C20   A    
C4    C8    A    
C34   O7    A    
C53   H52   S    
C42   H22   S    
C33   H12   S    
C50   H41   S    
C21   O9    S    
C30   C35   A    
C44   H26   S    
C18   C24   A    
O5    Zn1   S    
C28   C29   A    
C3    C7    A    
C52   H49   S    
C30   C31   A    
C49   H39   S    
C53   H53   S    
N5    H47   S    
C5    C36   A    
C49   C50   S    
C18   C19   A    
C31   N2    A    
C28   H10   S    
O4    Zn2   S    
C26   O10   S    
N5    C52   S    
C9    C36   A    
C45   C46   S    
N3    H18   S    
C25   H7    S    
C21   C22   A    
C49   H38   S    
C7    H16   S    
C41   H21   S    
C13   H2    S    
C42   H23   S    
C25   C29   A    
C38   C39   A    
C50   H42   S    
C17   C24   S    
C32   N4    S    
O9    C42   S    
C41   H20   S    
C52   H50   S    
C39   C40   A    
C12   O4    A    
C16   C17   A    
C53   H54   S    
C47   H35   S    
C25   C26   A    
O8    Zn2   S    
C34   O8    A    
C2    C4    A    
C18   H4    S    
N2    Zn1   S    
C46   H32   S    
C12   O3    A    
C48   H36   S    
C38   H14   S    
C20   C23   S    
C40   H15   S    
C48   C49   S    
C9    C37   A    
C51   H45   S    
C45   H29   S    
C47   H34   S    
C26   N1    A    
C16   H3    S    
N6    H51   S    
C10   C12   S    
C43   H25   S    
C23   O5    A    
C22   H6    S    
C45   H30   S    
C22   C24   A    
C1    O1    A    
C8    C37   A    
C46   H31   S    
C43   C44   S    
C42   C43   S    
O2    Zn2   S    
C15   N3    S    
C30   O11   S    
C11   C17   A    
C51   H44   S    
C44   H27   S    
C31   H11   S    
C41   H19   S    
C27   N1    A    
C1    O2    A    
C8    H13   S    
C19   H5    S    
N1    Zn2   S    
C6    C7    A    
C50   H40   S    
C29   C35   S    
C9    H1    S    
C39   N6    S    
O3    Zn1   S    
C10   C38   A    
C32   C33   A    
C23   O6    A    
N4    C51   S    
C2    C3    A    
C3    C10   A    
C11   H17   S    
N4    H43   S    
C46   C47   S    
C11   C13   A    
C5    C6    A    
O6    Zn2   S    
C33   C35   A    
C51   H46   S    
C6    H9    S    
C47   H33   S    
N6    C53   S    
C2    C40   A    
C4    C5    A    
C44   H28   S    
C20   C21   A    
O1    Zn1   S    
O11   C48   S    
C27   C28   A    
C14   C15   A    
N3    C41   S    
C1    C14   S    
C32   N2    A    
C13   C14   A    
C36   N5    S    
C48   H37   S    
C15   C16   A    
