data_mof_unit_32171.cif
_audit_creation_date              2012-12-10T19:03:38-0500
_audit_creation_method            fapswitch 2.2
_symmetry_space_group_name_H-M    P1
_symmetry_Int_Tables_number       1
_space_group_crystal_system       triclinic
_cell_length_a                    15.887701
_cell_length_b                    10.860246
_cell_length_c                    9.534074
_cell_angle_alpha                 90.019144
_cell_angle_beta                  89.025648
_cell_angle_gamma                 89.982044
_cell_volume                      1644.81247993

loop_
_atom_site_label
_atom_site_type_symbol
_atom_type_description
_atom_site_fract_x
_atom_site_fract_y
_atom_site_fract_z
_atom_type_partial_charge
C1    C     C_R   0.500291 0.262661 0.499819 0.798761
C2    C     C_3   0.948848 0.433676 0.613612 -0.440920
C3    C     C_3   0.916672 0.515407 0.490987 0.246912
C4    C     C_3   0.948473 0.653505 0.507550 0.225144
C5    C     C_3   0.049571 0.648402 0.513649 0.014295
C6    C     C_1   0.824478 0.508136 0.491641 -0.080385
C7    C     C_1   0.175249 0.506402 0.502466 -0.076369
C8    C     C_1   0.250684 0.502895 0.503631 -0.190439
C9    C     C_R   0.498823 0.062046 0.621096 0.133837
C10   C     C_R   0.501826 0.130066 0.498071 -0.105446
C11   C     C_R   0.506570 0.064514 0.370227 -0.225475
C12   C     C_R   0.340217 0.500136 0.501193 0.826440
C13   C     C_R   0.506862 0.935344 0.370288 -0.224157
C14   C     C_R   0.502374 0.869918 0.498196 -0.107914
C15   C     C_R   0.499272 0.938088 0.621207 0.128569
C16   C     C_3   0.491494 0.929430 0.776860 -0.473878
C17   C     C_3   0.490878 0.071215 0.776645 -0.480409
C18   C     C_R   0.538787 0.592584 0.072711 0.259596
C19   C     C_R   0.455419 0.415141 0.075720 -0.072171
C20   C     C_R   0.455054 0.415481 0.926780 -0.088695
C21   C     C_R   0.539050 0.592270 0.925246 0.254115
C22   C     C_3   0.630174 0.625028 0.917437 -0.486999
C23   C     C_R   0.500631 0.737332 0.499844 0.800725
C24   C     C_3   0.629709 0.626255 0.076566 -0.516052
C25   C     C_R   0.659720 0.500208 0.498698 0.828802
C26   C     C_3   0.046034 0.437691 0.621684 -0.503269
C27   C     C_3   0.050140 0.445282 0.360444 -0.111139
C28   C     C_3   0.952800 0.458895 0.351584 -0.431787
C29   C     C_1   0.749124 0.503561 0.494989 -0.193333
C30   C     C_3   0.083031 0.511886 0.495875 0.237743
Cu1   Cu    Cu3+1 0.500000 0.499980 0.640670 0.935909
Cu2   Cu    Cu3+1 0.500000 0.500020 0.359330 0.940683
H1    H     H_    0.928986 0.336576 0.596350 0.184722
H2    H     H_    0.065954 0.477773 0.722879 0.179292
H3    H     H_    0.919935 0.460983 0.715719 0.187149
H4    H     H_    0.509603 0.112244 0.270537 0.165229
H5    H     H_    0.510087 0.887512 0.270624 0.165165
H6    H     H_    0.430663 0.888042 0.811657 0.201075
H7    H     H_    0.548535 0.889455 0.824817 0.187536
H8    H     H_    0.429573 0.111387 0.811051 0.188872
H9    H     H_    0.547496 0.112898 0.824435 0.200892
H10   H     H_    0.421062 0.344711 0.132703 0.131816
H11   H     H_    0.070979 0.341822 0.621132 0.184771
H12   H     H_    0.419787 0.345874 0.871906 0.131352
H13   H     H_    0.670067 0.550417 0.872099 0.226743
H14   H     H_    0.640672 0.717318 0.870532 0.186674
H15   H     H_    0.669500 0.552603 0.121888 0.222580
H16   H     H_    0.639535 0.719571 0.121366 0.185992
H17   H     H_    0.058223 0.344855 0.381275 0.126110
H18   H     H_    0.924704 0.366009 0.335577 0.156818
H19   H     H_    0.932793 0.512166 0.259300 0.172183
H20   H     H_    0.069327 0.677462 0.619202 0.131204
N1    N     N_R   0.500530 0.500930 0.147930 -0.181974
N2    N     N_R   0.500530 0.500890 0.852020 -0.182322
O1    O     O_R   0.500000 0.319640 0.618810 -0.582766
O2    O     O_R   0.500010 0.319680 0.381230 -0.592241
O3    O     O_R   0.379430 0.499990 0.618840 -0.585344
O4    O     O_R   0.379440 0.500030 0.381260 -0.566977
O5    O     O_R   0.499990 0.680320 0.618770 -0.580027
O6    O     O_R   0.500000 0.680360 0.381190 -0.585917
O7    O     O_R   0.620560 0.499970 0.618740 -0.576190
O8    O     O_R   0.620570 0.500010 0.381160 -0.580220
C31   C     C_3   0.920662 0.731350 0.377541 -0.902479
H21   H     H_    0.926703 0.831548 0.398740 0.230957
H22   H     H_    0.958317 0.712902 0.282461 0.230322
H23   H     H_    0.854708 0.712230 0.347969 0.217405
C32   C     C_R   0.101893 0.463595 0.224355 0.137336
C33   C     C_R   0.172488 0.386839 0.200072 -0.143059
C34   C     C_R   0.221657 0.397870 0.077864 -0.111488
C35   C     C_R   0.202234 0.486689 0.978117 -0.114101
C36   C     C_R   0.132605 0.562956 0.999430 -0.158857
C37   C     C_R   0.081719 0.549996 0.119764 -0.141383
H24   H     H_    0.189668 0.317672 0.276256 0.109631
H25   H     H_    0.274818 0.337257 0.060563 0.106536
H26   H     H_    0.240847 0.496032 0.884050 0.136452
H27   H     H_    0.118013 0.632262 0.922190 0.117858
H28   H     H_    0.027739 0.608736 0.129206 0.100982
C38   C     C_3   0.098315 0.743489 0.422474 -0.871606
H29   H     H_    0.072447 0.837323 0.439754 0.235025
H30   H     H_    0.165409 0.747361 0.453046 0.232221
H31   H     H_    0.097159 0.721297 0.309778 0.253235
C39   C     C_R   0.906682 0.713044 0.642413 0.117639
C40   C     C_R   0.938933 0.695353 0.778795 -0.196735
C41   C     C_R   0.899559 0.746134 0.897650 -0.119497
C42   C     C_R   0.826144 0.814658 0.885141 -0.102971
C43   C     C_R   0.791267 0.831395 0.753783 -0.155163
C44   C     C_R   0.829978 0.780453 0.634597 -0.126315
H32   H     H_    0.993305 0.639713 0.797275 0.107126
H33   H     H_    0.925716 0.731175 0.000269 0.115951
H34   H     H_    0.795598 0.853262 0.977502 0.120121
H35   H     H_    0.733278 0.882900 0.744134 0.121249
H36   H     H_    0.797725 0.793836 0.537177 0.128717

loop_
_geom_bond_atom_site_label_1
_geom_bond_atom_site_label_2
_ccdc_geom_bond_type
C2    H3    S    
C31   H22   S    
C18   C21   A    
Cu1   O7    S    
C19   C20   A    
Cu2   O4    S    
C3    C6    S    
C7    C8    T    
C42   C43   A    
C23   O5    A    
C4    C31   S    
C18   C24   S    
C21   C22   S    
C3    C28   S    
C1    O2    A    
C43   H35   S    
C21   N2    A    
C28   H19   S    
C38   H30   S    
C39   C44   A    
C32   C37   A    
Cu1   O5    S    
C18   N1    A    
C28   H18   S    
C26   H2    S    
C40   C41   A    
C16   C17   S    
C5    H20   S    
C35   C36   A    
C9    C10   A    
C13   H5    S    
C19   H10   S    
C12   O4    A    
C19   N1    A    
C40   H32   S    
C31   H23   S    
C7    C30   S    
C44   H36   S    
C27   C30   S    
C20   H12   S    
C26   H11   S    
C25   C29   S    
C23   O6    A    
C32   C33   A    
C24   H16   S    
C41   C42   A    
C20   N2    A    
C38   H29   S    
C33   C34   A    
C33   H24   S    
C17   H8    S    
C14   C23   S    
C37   H28   S    
Cu1   Cu2   S    
C8    C12   S    
C22   H13   S    
C34   H25   S    
C2    C26   S    
C25   O7    A    
C12   O3    A    
C2    H1    S    
C9    C17   S    
C22   H14   S    
C26   C30   S    
C22   C24   S    
C41   H33   S    
Cu2   O6    S    
C3    C4    S    
Cu2   N1    S    
C35   H26   S    
C5    C30   S    
C11   H4    S    
C43   C44   A    
C24   H15   S    
C1    C10   S    
C4    C5    S    
C42   H34   S    
Cu1   O3    S    
C2    C3    S    
C1    O1    A    
Cu2   O8    S    
C36   C37   A    
C11   C13   A    
C38   H31   S    
C36   H27   S    
C25   O8    A    
Cu1   N2    S    
C9    C15   A    
C34   C35   A    
C17   H9    S    
C27   C32   S    
C10   C11   A    
C16   H7    S    
C31   H21   S    
C27   H17   S    
C6    C29   T    
C4    C39   S    
C39   C40   A    
C27   C28   S    
C14   C15   A    
Cu1   O1    S    
C5    C38   S    
C13   C14   A    
Cu2   O2    S    
C15   C16   S    
C16   H6    S    
