data_mof_unit_7451.cif
_audit_creation_date              2013-03-05T16:12:53-0500
_audit_creation_method            fapswitch 2.2
_symmetry_space_group_name_H-M    P1
_symmetry_Int_Tables_number       1
_space_group_crystal_system       triclinic
_cell_length_a                    10.698854
_cell_length_b                    10.028082
_cell_length_c                    27.336812
_cell_angle_alpha                 90.124616
_cell_angle_beta                  90.277581
_cell_angle_gamma                 90.724196
_cell_volume                      2932.66278839

loop_
_atom_site_label
_atom_site_type_symbol
_atom_site_description
_atom_site_fract_x
_atom_site_fract_y
_atom_site_fract_z
_atom_type_partial_charge
O1    O     O_R   0.316770 0.614620 0.500000 -0.624828
O2    O     O_R   0.683230 0.385380 0.500000 -0.636838
O3    O     O_R   0.683230 0.614620 0.500000 -0.544947
O4    O     O_R   0.316770 0.385380 0.500000 -0.571047
C1    C     C_R   0.260503 0.499568 0.500722 0.928115
C2    C     C_R   0.739540 0.500503 0.500121 0.918686
O5    O     O_R   0.500030 0.614650 0.428760 -0.535275
O6    O     O_R   0.499970 0.385350 0.571240 -0.581959
O7    O     O_R   0.499970 0.614650 0.571240 -0.553118
O8    O     O_R   0.500030 0.385350 0.428760 -0.545961
C3    C     C_R   0.495737 0.500033 0.406300 0.957640
C4    C     C_R   0.499616 0.500172 0.593706 0.951286
Zn1   Zn    Zn3+2 0.500000 0.653120 0.500000 1.123963
Zn2   Zn    Zn3+2 0.500000 0.346880 0.500000 1.086392
C5    C     C_R   0.450787 0.374856 0.176591 0.535369
C6    C     C_R   0.356425 0.602968 0.817900 0.529986
O9    O     O_2   0.454649 0.260680 0.202600 -0.500658
O10   O     O_2   0.353193 0.718381 0.792613 -0.504968
N1    N     N_R   0.467065 0.494846 0.199640 -0.349046
N2    N     N_R   0.373251 0.485112 0.793860 -0.353754
C7    C     C_R   0.463095 0.612548 0.174676 0.525760
C8    C     C_R   0.372413 0.365865 0.817885 0.539809
C9    C     C_R   0.582171 0.452074 0.275618 -0.051476
C10   C     C_R   0.316787 0.519732 0.708177 -0.016409
C11   C     C_R   0.587246 0.453228 0.326423 -0.208290
C12   C     C_R   0.350903 0.525783 0.659362 -0.150005
C13   C     C_R   0.377905 0.547887 0.329290 0.444052
C14   C     C_R   0.565676 0.469685 0.681013 0.319975
C15   C     C_R   0.374436 0.545621 0.278359 -0.156647
C16   C     C_R   0.529890 0.463814 0.729956 -0.127569
C17   C     C_R   0.475649 0.498347 0.251685 0.208821
C18   C     C_R   0.406099 0.488010 0.743420 0.217637
C19   C     C_R   0.420615 0.490429 0.099731 -0.049188
C20   C     C_R   0.355939 0.483911 0.894894 -0.048008
C21   C     C_R   0.427620 0.370342 0.126167 -0.035066
C22   C     C_R   0.347501 0.604636 0.868914 -0.028534
C23   C     C_R   0.408659 0.248917 0.102090 -0.120364
C24   C     C_R   0.335320 0.724447 0.894354 -0.116850
C25   C     C_R   0.438887 0.612665 0.124370 -0.028050
C26   C     C_R   0.363597 0.362950 0.868922 -0.036563
C27   C     C_R   0.485946 0.500591 0.353401 -0.130424
C28   C     C_R   0.474328 0.500216 0.645536 -0.112653
H1    H     H_    0.292231 0.578634 0.258820 0.191944
H2    H     H_    0.598427 0.441365 0.757966 0.183267
C29   C     C_R   0.370397 0.362120 0.972391 0.047656
C30   C     C_R   0.386063 0.610614 0.022964 0.048576
C31   C     C_R   0.362051 0.608413 0.971996 0.047611
C32   C     C_R   0.382887 0.363978 0.024078 0.047862
C33   C     C_R   0.361366 0.484654 0.946678 0.075001
C34   C     C_R   0.395918 0.488320 0.048750 0.074493
C35   C     C_R   0.371094 0.241919 0.945101 -0.204255
C36   C     C_R   0.405956 0.731456 0.048845 -0.207234
C37   C     C_R   0.368136 0.242697 0.894369 -0.117173
C38   C     C_R   0.431833 0.732142 0.098553 -0.120906
O11   O     O_2   0.383244 0.251079 0.792449 -0.484664
O12   O     O_2   0.481469 0.729017 0.198693 -0.517887
C39   C     C_R   0.386376 0.245486 0.052081 -0.205519
C40   C     C_R   0.341528 0.726457 0.945010 -0.208103
H3    H     H_    0.221266 0.539270 0.718665 0.178612
H4    H     H_    0.660444 0.415112 0.254856 0.170644
H5    H     H_    0.372832 0.148287 0.875138 0.194648
H6    H     H_    0.446663 0.827322 0.116659 0.193303
H7    H     H_    0.378787 0.144969 0.961542 0.135886
H8    H     H_    0.406107 0.827841 0.031562 0.136735
H9    H     H_    0.371316 0.147701 0.036699 0.136310
H10   H     H_    0.330172 0.822649 0.961904 0.137988
C41   C     C_R   0.062522 0.379111 0.506476 -0.131180
C42   C     C_R   0.937566 0.621641 0.497530 -0.125617
C43   C     C_R   0.934593 0.379584 0.506123 -0.123964
C44   C     C_R   0.065458 0.621159 0.497856 -0.149600
C45   C     C_R   0.872336 0.500777 0.501236 -0.023187
C46   C     C_R   0.127746 0.499740 0.501927 -0.031396
C47   C     C_R   0.487542 0.069762 0.542545 0.209897
C48   C     C_R   0.514432 0.930082 0.457615 0.351137
C49   C     C_R   0.491522 0.068831 0.457341 0.236362
C50   C     C_R   0.510647 0.930812 0.542646 0.325135
N3    N     N_R   0.500000 0.857200 0.500000 -0.227711
N4    N     N_R   0.500000 0.142800 0.500000 -0.224650
S1    S     S_3+6 0.242523 0.601052 0.360746 0.069670
O13   O     O_2   0.275428 0.704678 0.398548 -0.238300
O14   O     O_2   0.150279 0.659223 0.325277 -0.271980
O15   O     O_3   0.176292 0.468504 0.388269 -0.541488
H11   H     H_    0.088667 0.494362 0.394341 0.378889
S2    S     S_3+6 0.724769 0.440730 0.667249 0.045246
O16   O     O_2   0.755463 0.299985 0.681158 -0.195546
O17   O     O_2   0.754095 0.460990 0.614104 -0.338159
O18   O     O_3   0.814705 0.544672 0.701016 -0.503661
H12   H     H_    0.784008 0.635054 0.693328 0.358729
S3    S     S_3+6 0.392936 0.124045 0.592160 0.132366
O19   O     O_2   0.302672 0.228751 0.576310 -0.287259
O20   O     O_2   0.317633 0.006844 0.610351 -0.212088
O21   O     O_3   0.479712 0.181407 0.639374 -0.436927
H13   H     H_    0.562363 0.204210 0.625514 0.388182
S4    S     S_3+6 0.608536 0.874513 0.408165 0.115857
O22   O     O_2   0.682331 0.991135 0.388566 -0.257806
O23   O     O_2   0.699709 0.771115 0.424398 -0.309826
O24   O     O_3   0.518429 0.813701 0.362586 -0.463829
H14   H     H_    0.577331 0.792152 0.335948 0.381085
S5    S     S_3+6 0.405586 0.123125 0.405383 0.141216
O25   O     O_2   0.492615 0.181799 0.368010 -0.200936
O26   O     O_2   0.338857 0.006075 0.382181 -0.199391
O27   O     O_3   0.296705 0.234275 0.420705 -0.474139
H15   H     H_    0.232568 0.182111 0.438680 0.348755
S6    S     S_3+6 0.597949 0.874602 0.594146 0.101895
O28   O     O_2   0.669150 0.990183 0.616181 -0.274229
O29   O     O_2   0.511250 0.818894 0.632293 -0.230672
O30   O     O_3   0.703813 0.760544 0.578329 -0.524082
H16   H     H_    0.752533 0.743894 0.608545 0.383528
H17   H     H_    0.411249 0.155363 0.121817 0.194562
H18   H     H_    0.324141 0.818038 0.875174 0.194665
H19   H     H_    0.280482 0.548720 0.632093 0.161606
H20   H     H_    0.670184 0.417274 0.344813 0.181426
H21   H     H_    0.109702 0.284695 0.510021 0.190627
H22   H     H_    0.890399 0.716110 0.493988 0.215289
H23   H     H_    0.885014 0.285215 0.509550 0.188827
H24   H     H_    0.114952 0.715544 0.494319 0.198881

loop_
_geom_bond_atom_site_label_1
_geom_bond_atom_site_label_2
_geom_bond_distance
_ccdc_geom_bond_type
C50   S6    1.782195 S    
O18   H12   0.990557 S    
C14   S2    1.772371 S    
C48   S4    1.782036 S    
S2    O18   1.681147 S    
O3    C2    1.299996 A    
N1    C17   1.425611 S    
S6    O29   1.502919 D    
O24   H14   0.990605 S    
C32   C39   1.415680 A    
C31   C33   1.419603 A    
C5    N1    1.365842 A    
C19   C25   1.408372 A    
O1    C1    1.294831 A    
N1    C7    1.365706 A    
S2    O17   1.501498 D    
C1    C46   1.420912 S    
C13   S1    1.775174 S    
C10   H3    1.082885 S    
C25   C38   1.394540 A    
C13   C15   1.392737 A    
C29   C35   1.416323 A    
C30   C36   1.415159 A    
C41   C46   1.394948 A    
C43   C45   1.399584 A    
O7    Zn1   1.986138 S    
C4    C28   1.443777 S    
C11   H20   1.083812 S    
C24   C40   1.386148 A    
C37   H5    1.083747 S    
C40   H10   1.077076 S    
C48   N3    1.379521 A    
C47   N4    1.381906 A    
S3    O20   1.503388 D    
C23   H17   1.083714 S    
O3    Zn1   2.002790 S    
C6    N2    1.365373 A    
C32   C34   1.421335 A    
C15   H1    1.082590 S    
C16   H2    1.083561 S    
O2    C2    1.295422 A    
C5    C21   1.399902 A    
S6    O28   1.502240 D    
O7    C4    1.303090 A    
C36   C38   1.385436 A    
C9    H4    1.082752 S    
Zn1   N3    2.046531 S    
C48   C49   1.415881 A    
O27   H15   0.990584 S    
C35   H7    1.075896 S    
S2    O16   1.502438 D    
O8    Zn2   1.986143 S    
C11   C27   1.401185 A    
S1    O14   1.504035 D    
C38   H6    1.083764 S    
S4    O24   1.680472 S    
C44   H24   1.083433 S    
C19   C34   1.417286 A    
C41   C43   1.368751 A    
C9    C17   1.396300 A    
O5    C3    1.302116 A    
C10   C18   1.393742 A    
C7    O12   1.350355 S    
C13   C27   1.415406 A    
S5    O25   1.501652 D    
C7    C25   1.398155 A    
C29   C33   1.421070 A    
O6    C4    1.303869 A    
C8    C26   1.399184 A    
S5    O27   1.676402 S    
C49   S5    1.778369 S    
C50   N3    1.381969 A    
S3    O21   1.682352 S    
S4    O23   1.498979 D    
C6    O10   1.350122 S    
S5    O26   1.503639 D    
N2    C8    1.365505 A    
C26   C37   1.394731 A    
C36   H8    1.076756 S    
C47   C50   1.418233 A    
C20   C26   1.407662 A    
C24   H18   1.083710 S    
O30   H16   0.990217 S    
C22   C24   1.394760 A    
C12   C28   1.401885 A    
N2    C18   1.424870 S    
C29   C32   1.418656 A    
C5    O9    1.350040 S    
C30   C31   1.415640 A    
C43   H23   1.083464 S    
C20   C33   1.416513 A    
O6    Zn2   1.984493 S    
C21   C23   1.395006 A    
C10   C12   1.386436 A    
C39   H9    1.076052 S    
O4    C1    1.300554 A    
S1    O15   1.679487 S    
C8    O11   1.350023 S    
C30   C34   1.420682 A    
C14   C16   1.394610 A    
C41   H21   1.082891 S    
C47   S3    1.784493 S    
C15   C17   1.395756 A    
C6    C22   1.398364 A    
C31   C40   1.415091 A    
C16   C18   1.400321 A    
C42   C45   1.395060 A    
C14   C28   1.410353 A    
O21   H13   0.988074 S    
C19   C21   1.408407 A    
C3    C27   1.449379 S    
C20   C22   1.408574 A    
Zn2   N4    2.046531 S    
O4    Zn2   2.002790 S    
S4    O22   1.503861 D    
O2    Zn2   1.993214 S    
C49   N4    1.382716 A    
O8    C3    1.306080 A    
S1    O13   1.501427 D    
O5    Zn1   1.984499 S    
C9    C11   1.389670 A    
O1    Zn1   1.993214 S    
C42   C44   1.368350 A    
O15   H11   0.990526 S    
C44   C46   1.399798 A    
C35   C37   1.387103 A    
S3    O19   1.498802 D    
C12   H19   1.084396 S    
S6    O30   1.677323 S    
C23   C39   1.386866 A    
C42   H22   1.083277 S    
C2    C45   1.420911 S    
