data_mof_unit_46503.cif
_audit_creation_date              2013-03-05T15:40:52-0500
_audit_creation_method            fapswitch 2.2
_symmetry_space_group_name_H-M    P1
_symmetry_Int_Tables_number       1
_space_group_crystal_system       triclinic
_cell_length_a                    16.714441
_cell_length_b                    16.862813
_cell_length_c                    16.83797
_cell_angle_alpha                 65.726818
_cell_angle_beta                  65.941029
_cell_angle_gamma                 66.702927
_cell_volume                      3799.47996253

loop_
_atom_site_label
_atom_site_type_symbol
_atom_site_description
_atom_site_fract_x
_atom_site_fract_y
_atom_site_fract_z
_atom_type_partial_charge
O1    O     O_R   0.982940 0.138950 0.510160 -0.611939
O2    O     O_R   0.017060 0.861050 0.489840 -0.645739
O3    O     O_R   0.138950 0.510160 0.982940 -0.645809
O4    O     O_R   0.861050 0.489840 0.017060 -0.644837
O5    O     O_R   0.510160 0.982940 0.138950 -0.656560
O6    O     O_R   0.489840 0.017060 0.861050 -0.644780
O7    O     O_R   0.489840 0.861050 0.017060 -0.654698
O8    O     O_R   0.510160 0.138950 0.982940 -0.654815
O9    O     O_R   0.017060 0.489840 0.861050 -0.650789
O10   O     O_R   0.982940 0.510160 0.138950 -0.651095
O11   O     O_R   0.861050 0.017060 0.489840 -0.651987
O12   O     O_R   0.138950 0.982940 0.510160 -0.667364
O13   O     O_R   0.867700 0.025880 0.612340 -0.558512
O14   O     O_R   0.132300 0.974120 0.387660 -0.558720
O15   O     O_R   0.025880 0.612340 0.867700 -0.574223
O16   O     O_R   0.974120 0.387660 0.132300 -0.572333
O17   O     O_R   0.612340 0.867700 0.025880 -0.566868
O18   O     O_R   0.387660 0.132300 0.974120 -0.545951
O19   O     O_R   0.387660 0.974120 0.132300 -0.563062
O20   O     O_R   0.612340 0.025880 0.867700 -0.558987
O21   O     O_R   0.132300 0.387660 0.974120 -0.564329
O22   O     O_R   0.867700 0.612340 0.025880 -0.554852
O23   O     O_R   0.974120 0.132300 0.387660 -0.544847
O24   O     O_R   0.025880 0.867700 0.612340 -0.572613
C1    C     C_R   0.402055 0.050107 0.662309 -0.196799
C2    C     C_R   0.594321 0.968901 0.330117 -0.304742
C3    C     C_R   0.952883 0.674530 0.454685 -0.299965
C4    C     C_R   0.067860 0.294571 0.561624 -0.176032
C5    C     C_R   0.661213 0.400545 0.056317 -0.189408
C6    C     C_R   0.336729 0.593688 0.957708 -0.272549
C7    C     C_R   0.334418 0.961468 0.594897 -0.141261
C8    C     C_R   0.664634 0.055312 0.399095 -0.312238
C9    C     C_R   0.595080 0.332438 0.966197 -0.192130
C10   C     C_R   0.404939 0.663771 0.043746 -0.296556
C11   C     C_R   0.010109 0.573725 0.323758 -0.293040
C12   C     C_R   0.096461 0.395888 0.649122 -0.279944
C13   C     C_R   0.007965 0.161581 0.424335 0.934679
C14   C     C_R   0.021649 0.822863 0.569276 0.993694
C15   C     C_R   0.179856 0.437551 0.963089 0.996914
C16   C     C_R   0.820493 0.560953 0.039897 0.925858
C17   C     C_R   0.437334 0.962379 0.180041 0.987850
C18   C     C_R   0.561939 0.039819 0.819779 0.891489
C19   C     C_R   0.562693 0.819937 0.037454 0.981445
C20   C     C_R   0.437969 0.179662 0.962625 0.898008
C21   C     C_R   0.040461 0.561381 0.820861 0.986719
C22   C     C_R   0.999416 0.426115 0.167371 0.965876
C23   C     C_R   0.820669 0.040659 0.560737 1.037080
C24   C     C_R   0.179446 0.961258 0.438662 0.864934
Zn1   Zn    Zn3+2 0.004880 0.004880 0.583590 1.140920
Zn2   Zn    Zn3+2 0.995120 0.995120 0.416410 1.050774
Zn3   Zn    Zn3+2 0.004880 0.583590 0.004880 1.046862
Zn4   Zn    Zn3+2 0.995120 0.416410 0.995120 1.098344
Zn5   Zn    Zn3+2 0.583590 0.004880 0.004880 1.070846
Zn6   Zn    Zn3+2 0.416410 0.995120 0.995120 1.085371
H1    H     H_    0.329433 0.058131 0.689367 0.194511
H2    H     H_    0.666907 0.961237 0.302095 0.134262
H3    H     H_    0.916617 0.709082 0.403822 0.142080
H4    H     H_    0.084316 0.255355 0.624766 0.186440
H5    H     H_    0.686525 0.328227 0.067575 0.181914
H6    H     H_    0.310798 0.666025 0.946600 0.134796
H7    H     H_    0.308081 0.951800 0.667489 0.186669
H8    H     H_    0.692610 0.064498 0.326556 0.144291
H9    H     H_    0.667141 0.305434 0.959627 0.186015
H10   H     H_    0.332443 0.690884 0.052339 0.139195
H11   H     H_    0.011784 0.643734 0.293063 0.139845
H12   H     H_    0.130278 0.324473 0.665784 0.142896
C25   C     C_R   0.442308 0.077751 0.701436 -0.009250
C26   C     C_R   0.554738 0.936124 0.295126 -0.015475
C27   C     C_R   0.947778 0.722492 0.508723 0.022199
C28   C     C_R   0.074737 0.246550 0.507391 0.010713
C29   C     C_R   0.700136 0.441280 0.083879 0.005290
C30   C     C_R   0.300137 0.553572 0.927497 0.003548
C31   C     C_R   0.296792 0.930403 0.556377 0.009830
C32   C     C_R   0.703338 0.083353 0.439398 -0.020690
C33   C     C_R   0.556601 0.295901 0.933777 -0.018901
C34   C     C_R   0.445410 0.701146 0.072767 -0.022018
C35   C     C_R   0.034826 0.521817 0.266248 0.025404
C36   C     C_R   0.107841 0.445240 0.691071 -0.010681
C37   C     C_R   0.539607 0.035701 0.537093 0.049088
C38   C     C_R   0.456950 0.983800 0.455504 0.040764
C39   C     C_R   0.025182 0.534575 0.550718 0.048760
C40   C     C_R   0.026265 0.436129 0.448432 0.037125
C41   C     C_R   0.540601 0.538563 0.031408 0.044358
C42   C     C_R   0.458512 0.456161 0.980368 0.047406
C43   C     C_R   0.584841 0.026577 0.448417 0.069630
C44   C     C_R   0.412109 0.993089 0.543932 -0.008481
C45   C     C_R   0.053913 0.438806 0.579419 0.063904
C46   C     C_R   0.005597 0.531607 0.416121 0.060774
C47   C     C_R   0.453538 0.584184 0.018021 0.065222
C48   C     C_R   0.545385 0.410665 0.993966 0.011555
C49   C     C_R   0.544968 0.996808 0.409032 0.070644
C50   C     C_R   0.451477 0.023478 0.582838 0.008293
C51   C     C_R   0.414010 0.544368 0.988838 0.073565
C52   C     C_R   0.584285 0.449938 0.024485 0.008978
C53   C     C_R   0.046692 0.389537 0.532291 0.010744
C54   C     C_R   0.994965 0.580844 0.472527 0.065085
C55   C     C_R   0.538022 0.065703 0.669371 -0.065763
C56   C     C_R   0.459267 0.947191 0.327190 0.017304
C57   C     C_R   0.000159 0.680230 0.571395 0.016089
C58   C     C_R   0.044487 0.292558 0.428501 -0.061481
C59   C     C_R   0.670376 0.536798 0.066543 -0.072445
C60   C     C_R   0.329815 0.458628 0.943277 0.043046
C61   C     C_R   0.327681 0.943939 0.460885 -0.099990
C62   C     C_R   0.670899 0.069031 0.535344 0.034927
C63   C     C_R   0.461279 0.327092 0.944977 -0.070178
C64   C     C_R   0.540629 0.670152 0.059802 0.012703
C65   C     C_R   0.026096 0.431810 0.304036 0.023223
C66   C     C_R   0.067263 0.539303 0.671848 0.003426
C67   C     C_R   0.589400 0.068248 0.718800 -0.239077
C68   C     C_R   0.409211 0.938580 0.280148 -0.164472
C69   C     C_R   0.026989 0.727150 0.607344 -0.208287
C70   C     C_R   0.033368 0.247364 0.379319 -0.230842
C71   C     C_R   0.720318 0.588183 0.067713 -0.249527
C72   C     C_R   0.280118 0.408711 0.939179 -0.125112
C73   C     C_R   0.279380 0.936340 0.411659 -0.232974
C74   C     C_R   0.720381 0.070261 0.586967 -0.153086
C75   C     C_R   0.410386 0.278952 0.939196 -0.247454
C76   C     C_R   0.591422 0.719763 0.062970 -0.162409
C77   C     C_R   0.022277 0.382158 0.253798 -0.176929
C78   C     C_R   0.065147 0.590955 0.721505 -0.115269
C79   C     C_R   0.674978 0.083115 0.672400 0.296683
C80   C     C_R   0.324664 0.922121 0.327193 0.350271
C81   C     C_R   0.065210 0.679286 0.678928 0.286660
C82   C     C_R   0.037551 0.288815 0.288462 0.302597
C83   C     C_R   0.676397 0.674374 0.077871 0.346506
C84   C     C_R   0.324504 0.323530 0.927202 0.328117
C85   C     C_R   0.583010 0.056488 0.580749 0.058396
C86   C     C_R   0.414062 0.959659 0.413973 0.047496
C87   C     C_R   0.030770 0.584621 0.597838 0.019659
C88   C     C_R   0.030011 0.387115 0.394521 0.058139
C89   C     C_R   0.584309 0.582105 0.051782 0.057054
C90   C     C_R   0.416083 0.413417 0.957357 0.051124
Cl1   Cl    Cl    0.723289 0.125249 0.717813 -0.538392
Cl2   Cl    Cl    0.275769 0.879560 0.282529 -0.528461
Cl3   Cl    Cl    0.116297 0.725185 0.717458 -0.531620
Cl4   Cl    Cl    0.075390 0.220676 0.215633 -0.540571
Cl5   Cl    Cl    0.726241 0.722314 0.116081 -0.535628
Cl6   Cl    Cl    0.273433 0.272692 0.893973 -0.556629
C91   C     C_2   0.381177 0.135522 0.761474 0.503061
H13   H     H_    0.407899 0.177585 0.773055 0.085686
O25   O     O_2   0.300839 0.137238 0.797812 -0.555386
C92   C     C_2   0.617253 0.869875 0.245207 0.521230
H14   H     H_    0.686845 0.872736 0.206892 0.060414
O26   O     O_2   0.592244 0.808387 0.250802 -0.503751
C93   C     C_2   0.875168 0.808912 0.508411 0.460388
H15   H     H_    0.851844 0.848994 0.448456 0.040284
O27   O     O_2   0.837246 0.833613 0.576793 -0.590803
C94   C     C_2   0.133682 0.152607 0.522547 0.467180
H16   H     H_    0.173134 0.126469 0.464820 0.039611
O28   O     O_2   0.140364 0.104875 0.598408 -0.560340
C95   C     C_2   0.759170 0.381875 0.144465 0.503065
H17   H     H_    0.773020 0.409823 0.183672 0.078684
O29   O     O_2   0.792341 0.301260 0.151874 -0.583100
C96   C     C_2   0.249683 0.614345 0.860403 0.494904
H18   H     H_    0.213147 0.683783 0.860410 0.099503
O30   O     O_2   0.252822 0.588091 0.801326 -0.500300
C97   C     C_2   0.239993 0.867909 0.618853 0.562202
H19   H     H_    0.230565 0.824398 0.592627 0.099736
O31   O     O_2   0.204355 0.863825 0.699309 -0.542447
C98   C     C_2   0.765082 0.141589 0.376339 0.494556
H20   H     H_    0.801089 0.137668 0.307325 0.088331
O32   O     O_2   0.773283 0.197122 0.399442 -0.541915
C99   C     C_2   0.619422 0.241205 0.871153 0.539452
H21   H     H_    0.593941 0.232562 0.826290 0.085094
O33   O     O_2   0.699561 0.206137 0.868510 -0.527633
C100  C     C_2   0.384275 0.751787 0.138728 0.522180
H22   H     H_    0.314827 0.789350 0.137233 0.067793
O34   O     O_2   0.410342 0.747430 0.198742 -0.506274
C101  C     C_2   0.096786 0.552876 0.174421 0.477096
H23   H     H_    0.088205 0.624623 0.139105 0.024033
O35   O     O_2   0.161257 0.498327 0.139921 -0.585774
C102  C     C_2   0.176334 0.397902 0.741070 0.478641
H24   H     H_    0.193664 0.324790 0.767063 0.136143
O36   O     O_2   0.218338 0.438832 0.747688 -0.525952

loop_
_geom_bond_atom_site_label_1
_geom_bond_atom_site_label_2
_geom_bond_distance
_ccdc_geom_bond_type
C46   C54   1.420219 A    
O9    C21   1.246003 A    
C97   H19   1.082944 S    
C56   C68   1.442034 A    
C48   C52   1.420657 A    
O17   Zn5   2.072147 S    
C27   C93   1.482075 S    
C101  H23   1.085692 S    
C7    H7    1.081017 S    
O11   C23   1.249053 A    
C99   H21   1.084076 S    
C1    C25   1.402138 A    
C55   C85   1.414074 A    
O12   Zn1   2.036777 S    
C43   C49   1.426408 A    
C77   C82   1.389861 A    
C6    C30   1.397957 A    
O4    Zn4   2.048810 S    
C4    C53   1.406281 A    
O5    Zn5   2.037845 S    
C99   O33   1.221612 D    
C18   C67   1.482906 S    
C60   C90   1.406119 A    
C70   C82   1.380630 A    
C6    C51   1.406707 A    
C8    C32   1.402266 A    
C5    C52   1.407864 A    
C72   C84   1.388360 A    
C12   H12   1.077741 S    
C7    C31   1.401107 A    
C71   C83   1.392347 A    
C11   H11   1.083641 S    
C31   C97   1.477871 S    
C59   C71   1.430935 A    
C36   C66   1.409480 A    
C66   C78   1.417495 A    
C80   Cl2   1.776911 S    
C13   C70   1.472838 S    
C38   C44   1.411462 A    
O2    Zn2   2.046971 S    
C34   C64   1.416463 A    
C62   C74   1.433365 A    
C9    C33   1.402669 A    
C29   C95   1.488787 S    
O4    C16   1.252592 A    
C102  O36   1.221476 D    
C6    H6    1.082173 S    
O10   C22   1.246804 A    
C32   C62   1.425085 A    
O24   C14   1.279568 A    
C95   H17   1.085443 S    
O5    C17   1.237141 A    
C34   C100  1.473480 S    
C76   C83   1.392420 A    
O7    C19   1.248508 A    
C40   C88   1.428495 A    
C25   C91   1.481600 S    
C75   C84   1.387247 A    
C96   O30   1.220403 D    
C3    C27   1.405868 A    
C78   C81   1.362087 A    
O12   C24   1.242133 A    
C56   C86   1.406087 A    
C29   C59   1.423057 A    
O3    C15   1.251527 A    
C97   O31   1.221729 D    
C7    C44   1.403528 A    
C64   C76   1.434881 A    
C100  O34   1.220247 D    
C101  O35   1.220521 D    
C63   C75   1.439021 A    
C3    C54   1.408508 A    
C64   C89   1.408073 A    
O9    Zn4   2.037116 S    
C42   C48   1.412415 A    
O6    Zn6   2.037846 S    
C65   C88   1.411318 A    
O10   Zn3   2.037116 S    
C65   C77   1.445436 A    
C93   O27   1.221244 D    
C28   C58   1.418472 A    
C93   H15   1.086000 S    
C63   C90   1.408677 A    
C12   C45   1.407857 A    
C23   C74   1.473047 S    
C41   C47   1.414095 A    
C30   C96   1.476147 S    
C74   C79   1.388667 A    
C57   C87   1.415067 A    
C69   C81   1.390145 A    
O16   Zn4   2.060684 S    
C35   C65   1.426613 A    
C94   H16   1.083349 S    
C3    H3    1.083530 S    
O16   C22   1.297410 A    
O13   C23   1.287999 A    
C39   C54   1.408238 A    
C82   Cl4   1.781939 S    
O22   C16   1.284521 A    
O23   Zn2   2.069837 S    
O14   C24   1.291879 A    
C38   C86   1.429071 A    
C83   Cl5   1.777324 S    
C2    C49   1.407430 A    
O23   C13   1.304460 A    
C41   C52   1.410975 A    
C42   C90   1.424975 A    
C81   Cl3   1.770978 S    
C98   O32   1.221306 D    
C61   C73   1.438748 A    
O17   C19   1.281820 A    
C41   C89   1.423447 A    
C60   C72   1.432053 A    
O18   C20   1.286016 A    
C55   C67   1.439901 A    
C11   C46   1.402633 A    
O2    C14   1.243382 A    
C39   C87   1.422559 A    
C16   C71   1.470706 S    
O21   C15   1.286161 A    
C9    H9    1.081316 S    
C15   C72   1.474176 S    
C57   C69   1.445411 A    
C10   H10   1.082343 S    
C96   H18   1.085552 S    
C26   C92   1.476120 S    
C61   C86   1.406943 A    
O8    C20   1.237938 A    
C66   C87   1.406091 A    
C39   C45   1.416441 A    
C24   C73   1.468323 S    
O13   Zn1   2.052011 S    
C59   C89   1.407481 A    
C33   C99   1.481863 S    
C33   C63   1.422794 A    
O15   Zn3   2.060684 S    
C17   C68   1.473192 S    
C100  H22   1.085546 S    
C92   O26   1.220290 D    
C28   C94   1.477628 S    
O15   C21   1.286327 A    
C27   C57   1.424585 A    
C37   C43   1.414621 A    
C102  H24   1.082911 S    
O19   Zn6   2.061244 S    
C37   C50   1.410716 A    
O24   Zn1   2.069839 S    
C37   C85   1.427336 A    
C45   C53   1.426167 A    
C84   Cl6   1.771783 S    
C1    C50   1.404982 A    
O3    Zn3   2.048810 S    
C40   C53   1.412959 A    
C4    C28   1.396984 A    
C1    H1    1.081256 S    
C94   O28   1.221406 D    
O20   Zn5   2.061243 S    
C2    H2    1.081956 S    
O8    Zn5   2.059665 S    
O20   C18   1.287507 A    
C91   H13   1.084424 S    
C58   C70   1.434421 A    
C4    H4    1.076963 S    
C36   C102  1.472085 S    
C32   C98   1.485826 S    
O18   Zn6   2.072149 S    
C2    C26   1.401840 A    
C98   H20   1.085546 S    
C38   C49   1.414305 A    
O1    C13   1.260544 A    
C10   C47   1.406173 A    
C8    H8    1.081924 S    
O11   Zn2   2.036777 S    
C12   C36   1.394892 A    
C9    C48   1.404424 A    
C68   C80   1.385019 A    
C91   O25   1.221582 D    
C67   C79   1.389483 A    
O14   Zn2   2.052011 S    
C62   C85   1.408669 A    
C30   C60   1.417561 A    
C20   C75   1.471778 S    
C40   C46   1.414448 A    
C8    C43   1.407291 A    
C11   C35   1.399725 A    
C22   C77   1.468227 S    
C58   C88   1.409231 A    
C42   C51   1.413802 A    
C95   O29   1.221355 D    
C47   C51   1.419707 A    
C26   C56   1.420401 A    
C25   C55   1.421612 A    
C19   C76   1.482738 S    
C31   C61   1.420780 A    
C21   C78   1.460034 S    
C35   C101  1.481606 S    
O6    C18   1.243463 A    
C73   C80   1.382846 A    
C5    H5    1.081337 S    
C92   H14   1.085585 S    
C44   C50   1.420894 A    
O7    Zn6   2.059666 S    
C79   Cl1   1.773553 S    
C14   C69   1.451184 S    
O1    Zn1   2.046971 S    
O21   Zn4   2.053780 S    
O19   C17   1.287653 A    
C10   C34   1.397698 A    
O22   Zn3   2.053779 S    
C5    C29   1.404366 A    
