data_mof_unit_48716.cif
_audit_creation_date              2012-12-10T17:08:10-0500
_audit_creation_method            fapswitch 2.2
_symmetry_space_group_name_H-M    P1
_symmetry_Int_Tables_number       1
_space_group_crystal_system       triclinic
_cell_length_a                    23.535064
_cell_length_b                    11.093936
_cell_length_c                    9.78146
_cell_angle_alpha                 111.302681
_cell_angle_beta                  97.903962
_cell_angle_gamma                 90.833299
_cell_volume                      2351.03894814

loop_
_atom_site_label
_atom_site_type_symbol
_atom_type_description
_atom_site_fract_x
_atom_site_fract_y
_atom_site_fract_z
_atom_type_partial_charge
C1    C     C_R   0.498607 0.254143 0.440445 0.773243
C2    C     C_R   0.508442 0.744902 0.559309 0.756447
C3    C     C_R   0.246009 0.537328 0.637690 -0.279615
C4    C     C_R   0.753186 0.461829 0.360486 -0.296372
C5    C     C_R   0.305760 0.538516 0.640673 0.421863
C6    C     C_R   0.693670 0.460060 0.358760 0.430341
C7    C     C_R   0.328350 0.505034 0.505888 -0.203961
C8    C     C_R   0.671585 0.501915 0.494480 -0.172945
C9    C     C_R   0.290502 0.476882 0.372049 -0.391700
C10   C     C_R   0.709772 0.541861 0.629000 -0.441377
C11   C     C_R   0.231070 0.476860 0.370137 0.499724
C12   C     C_R   0.769463 0.537652 0.630273 0.511801
C13   C     C_R   0.208805 0.508262 0.503806 0.207602
C14   C     C_R   0.790819 0.499928 0.494823 0.244491
C15   C     C_2   0.499001 0.114425 0.407272 0.204479
C16   C     C_2   0.528398 0.879682 0.591030 0.164999
C17   C     C_2   0.521356 0.070329 0.514025 0.311177
C18   C     C_2   0.500130 0.941497 0.508675 0.300566
C19   C     C_2   0.504885 0.510456 0.081486 -0.058737
C20   C     C_2   0.495136 0.489586 0.918595 -0.030658
C21   C     C_R   0.390893 0.501568 0.502162 0.863139
C22   C     C_R   0.609100 0.501690 0.498380 0.811717
C23   C     C_R   0.878373 0.592282 0.457763 0.556568
C24   C     C_R   0.120888 0.414082 0.536999 0.522004
C25   C     C_R   0.881578 0.407323 0.528500 0.578955
C26   C     C_R   0.117848 0.600224 0.468469 0.601205
C27   C     C_R   0.941277 0.406987 0.531205 -0.024869
C28   C     C_R   0.058045 0.599677 0.464122 -0.037715
C29   C     C_R   0.969593 0.502158 0.495974 -0.014153
C30   C     C_R   0.029678 0.504111 0.498578 -0.016971
C31   C     C_R   0.937980 0.595468 0.458314 -0.024328
C32   C     C_R   0.061263 0.410650 0.535935 -0.014007
C33   C     C_R   0.973190 0.314289 0.568398 -0.172572
C34   C     C_R   0.026095 0.692120 0.426451 -0.163582
C35   C     C_R   0.032585 0.316060 0.570669 -0.165039
C36   C     C_R   0.966646 0.689889 0.423304 -0.166929
Cu1   Cu    Cu3+1 0.509980 0.521810 0.644910 0.947874
Cu2   Cu    Cu3+1 0.490020 0.478190 0.355090 0.957233
H1    H     H_    0.556682 0.621458 0.934414 0.187195
H2    H     H_    0.443963 0.376991 0.065028 0.195629
H3    H     H_    0.228308 0.559061 0.739856 0.173504
H4    H     H_    0.770332 0.433439 0.256867 0.159512
H5    H     H_    0.306773 0.453944 0.267774 0.199333
H6    H     H_    0.693097 0.577506 0.733163 0.176768
H7    H     H_    0.461701 0.417952 0.845368 0.181244
H8    H     H_    0.538206 0.582315 0.154859 0.178185
N1    N     N_R   0.851612 0.499645 0.493309 -0.434799
N2    N     N_R   0.147839 0.507801 0.503471 -0.443603
N3    N     N_2   0.475010 0.445410 0.137370 -0.292623
N4    N     N_2   0.524990 0.554590 0.862630 -0.294006
O1    O     O_R   0.505330 0.332340 0.577400 -0.541460
O2    O     O_R   0.494670 0.667660 0.422600 -0.545685
O3    O     O_R   0.488470 0.295500 0.332650 -0.582881
O4    O     O_R   0.511530 0.704500 0.667350 -0.599956
O5    O     O_R   0.426310 0.518390 0.622390 -0.528845
O6    O     O_R   0.573690 0.481610 0.377610 -0.536611
O7    O     O_R   0.409450 0.481550 0.377650 -0.579582
O8    O     O_R   0.590550 0.518450 0.622350 -0.597443
O9    O     O_2   0.847415 0.681571 0.423337 -0.541387
O10   O     O_2   0.151687 0.323896 0.569954 -0.552125
O11   O     O_2   0.853583 0.316014 0.560200 -0.560049
O12   O     O_2   0.145912 0.692622 0.438735 -0.523440
H9    H     H_    0.952418 0.240213 0.596010 0.186494
H10   H     H_    0.046886 0.766410 0.399231 0.187363
H11   H     H_    0.055916 0.243240 0.599885 0.185706
H12   H     H_    0.943296 0.762555 0.393825 0.185904
O13   O     O_3   0.341949 0.565544 0.773899 -0.558813
C37   C     C_3   0.340569 0.697819 0.863462 0.042191
H13   H     H_    0.300289 0.714457 0.913295 0.149949
H14   H     H_    0.344012 0.762041 0.799214 0.131137
C38   C     C_3   0.391248 0.735882 0.988741 -0.711605
H15   H     H_    0.432082 0.725148 0.941986 0.251146
H16   H     H_    0.389564 0.838559 0.062452 0.232421
H17   H     H_    0.389947 0.673389 0.055061 0.260824
O14   O     O_3   0.657275 0.425919 0.224906 -0.560507
C39   C     C_3   0.654007 0.289836 0.151240 0.032898
H18   H     H_    0.649580 0.237703 0.228057 0.129216
H19   H     H_    0.692936 0.259875 0.097797 0.143797
C40   C     C_3   0.601313 0.249297 0.031485 -0.726983
H20   H     H_    0.604156 0.297910 0.951184 0.269152
H21   H     H_    0.598076 0.142740 0.971629 0.229777
H22   H     H_    0.561906 0.276302 0.082890 0.254263
O15   O     O_3   0.194677 0.452744 0.238241 -0.552004
C41   C     C_3   0.183590 0.317415 0.165305 0.046496
H23   H     H_    0.164860 0.273936 0.236997 0.160711
H24   H     H_    0.223709 0.270213 0.133118 0.146036
C42   C     C_3   0.140430 0.290119 0.024952 -0.727451
H25   H     H_    0.158033 0.330788 0.949843 0.265515
H26   H     H_    0.131336 0.183814 0.966268 0.201358
H27   H     H_    0.099651 0.334888 0.053861 0.247522
O16   O     O_3   0.808327 0.580079 0.761489 -0.569743
C43   C     C_3   0.794193 0.520781 0.859482 0.075537
H28   H     H_    0.778974 0.416546 0.799815 0.158352
H29   H     H_    0.760628 0.573696 0.922740 0.146893
C44   C     C_3   0.847413 0.527490 0.970342 -0.708613
H30   H     H_    0.863261 0.630168 0.034316 0.254720
H31   H     H_    0.836771 0.482330 0.048945 0.196035
H32   H     H_    0.881860 0.474729 0.910899 0.253278
O17   O     O_3   0.450279 0.881104 0.411756 -0.552222
C45   C     C_3   0.402648 0.918642 0.487335 0.066152
H33   H     H_    0.396488 0.023392 0.512125 0.148486
H34   H     H_    0.408010 0.900173 0.592965 0.104284
C46   C     C_3   0.348808 0.839726 0.389491 -0.719523
H35   H     H_    0.354321 0.734548 0.361103 0.249663
H36   H     H_    0.311262 0.865956 0.449247 0.207813
H37   H     H_    0.340455 0.859912 0.285647 0.247082
O18   O     O_3   0.559370 0.150858 0.636148 -0.570146
C47   C     C_3   0.616805 0.130571 0.608444 0.122283
H38   H     H_    0.622533 0.032776 0.525651 0.136016
H39   H     H_    0.643506 0.139662 0.714688 0.201021
C48   C     C_3   0.640987 0.234248 0.561479 -0.879730
H40   H     H_    0.640595 0.329894 0.651582 0.277002
H41   H     H_    0.686174 0.216666 0.543323 0.219186
H42   H     H_    0.615590 0.232578 0.456609 0.214166
O19   O     O_3   0.575679 0.941358 0.700100 -0.600197
C49   C     C_3   0.617271 0.853685 0.715573 0.069111
H43   H     H_    0.622252 0.778023 0.606587 0.127514
H44   H     H_    0.605253 0.807582 0.792059 0.181940
C50   C     C_3   0.676128 0.924785 0.783589 -0.831952
H45   H     H_    0.673379 0.008189 0.887475 0.240833
H46   H     H_    0.706190 0.857371 0.810224 0.230873
H47   H     H_    0.693854 0.958929 0.703591 0.237044
O20   O     O_3   0.470689 0.030176 0.271147 -0.571466
C51   C     C_3   0.507960 0.005987 0.163433 0.100857
H48   H     H_    0.536912 0.091847 0.178688 0.126981
H49   H     H_    0.481007 0.980492 0.053026 0.169847
C52   C     C_3   0.543757 0.891676 0.159853 -0.844699
H50   H     H_    0.515420 0.807000 0.149354 0.270043
H51   H     H_    0.567532 0.865113 0.063698 0.204760
H52   H     H_    0.575390 0.917856 0.262951 0.221232

loop_
_geom_bond_atom_site_label_1
_geom_bond_atom_site_label_2
_ccdc_geom_bond_type
C42   H25   S    
C27   C29   A    
C44   H30   S    
C47   H38   S    
C12   O16   S    
C19   C20   S    
C41   C42   S    
C5    O13   S    
C52   H51   S    
C44   H32   S    
C21   O5    A    
O20   C51   S    
C48   H41   S    
Cu2   N3    S    
C27   C33   A    
C23   O9    S    
C29   C30   A    
C15   O20   S    
C6    C8    A    
C51   H49   S    
C39   H19   S    
C17   O18   S    
Cu1   O1    S    
C36   H12   S    
Cu2   O2    S    
C35   H11   S    
O19   C49   S    
C49   H43   S    
C15   C17   D    
C1    O3    A    
C43   H28   S    
C20   N4    D    
O17   C45   S    
C49   H44   S    
C37   H13   S    
C8    C22   S    
O18   C47   S    
C39   C40   S    
C1    C15   S    
C46   H37   S    
C2    C16   S    
C25   N1    A    
C20   H7    S    
C3    C13   A    
C33   H9    S    
C28   C34   A    
C34   H10   S    
C50   H46   S    
C9    H5    S    
C23   N1    A    
C10   H6    S    
O13   C37   S    
C24   N2    A    
C32   C35   A    
C6    O14   S    
C39   H18   S    
C4    C6    A    
C2    O4    A    
O16   C43   S    
C5    C7    A    
C22   O6    A    
C11   O15   S    
C7    C21   S    
C45   C46   S    
C13   N2    S    
C23   C31   A    
O14   C39   S    
C24   C32   A    
C21   O7    A    
Cu1   Cu2   S    
C2    O2    A    
C38   H17   S    
Cu2   O7    S    
C9    C11   A    
C19   N3    D    
O15   C41   S    
C24   O10   S    
C45   H34   S    
C17   C18   S    
C46   H36   S    
C47   C48   S    
C25   O11   S    
C41   H23   S    
C1    O1    A    
C10   C12   A    
C51   C52   S    
Cu1   O4    S    
C16   C18   D    
C12   C14   A    
C42   H26   S    
C18   O17   S    
C52   H50   S    
C16   O19   S    
C40   H21   S    
C50   H47   S    
C7    C9    A    
C3    H3    S    
C48   H40   S    
Cu1   O8    S    
C41   H24   S    
C3    C5    A    
C22   O8    A    
C40   H22   S    
C19   H8    S    
C50   H45   S    
C44   H31   S    
C14   N1    S    
C26   N2    A    
C25   C27   A    
C26   C28   A    
C49   C50   S    
C28   C30   A    
C26   O12   S    
C52   H52   S    
C38   H15   S    
C29   C31   A    
C30   C32   A    
Cu1   N4    S    
C11   C13   A    
C43   H29   S    
Cu2   O3    S    
C4    H4    S    
C37   C38   S    
C45   H33   S    
C33   C35   A    
C47   H39   S    
C48   H42   S    
C34   C36   A    
C43   C44   S    
C4    C14   A    
C40   H20   S    
Cu1   O5    S    
H1    N4    S    
Cu2   O6    S    
C8    C10   A    
C42   H27   S    
C38   H16   S    
C46   H35   S    
C37   H14   S    
C31   C36   A    
H2    N3    S    
C51   H48   S    
