data_mof_unit_48622.cif
_audit_creation_date              2012-12-11T14:45:55-0500
_audit_creation_method            fapswitch 2.2
_symmetry_space_group_name_H-M    P1
_symmetry_Int_Tables_number       1
_space_group_crystal_system       triclinic
_cell_length_a                    10.921278
_cell_length_b                    10.948449
_cell_length_c                    18.793765
_cell_angle_alpha                 89.938189
_cell_angle_beta                  90.06552
_cell_angle_gamma                 120.029529
_cell_volume                      1945.54295748

loop_
_atom_site_label
_atom_site_type_symbol
_atom_type_description
_atom_site_fract_x
_atom_site_fract_y
_atom_site_fract_z
_atom_type_partial_charge
C1    C     C_R   0.863687 0.638891 0.602579 0.549845
C2    C     C_R   0.975850 0.201951 0.717395 0.012416
C3    C     C_R   0.974285 0.211793 0.792812 0.014172
C4    C     C_R   0.268280 0.631754 0.604264 0.555042
C5    C     C_R   0.726557 0.140866 0.714845 -0.033906
C6    C     C_R   0.738966 0.181582 0.786241 0.038862
C7    C     C_R   0.594119 0.088531 0.680867 -0.072934
C8    C     C_R   0.488599 0.108524 0.711008 0.086765
C9    C     C_R   0.512131 0.174555 0.776921 -0.065025
C10   C     C_R   0.637593 0.214094 0.814603 0.120971
C11   C     C_R   0.850595 0.170142 0.677342 -0.037726
C12   C     C_R   0.426121 0.636312 0.777685 -0.119560
C13   C     C_R   0.714405 0.552618 0.710537 -0.156212
C14   C     C_R   0.700977 0.572816 0.782350 -0.192536
C15   C     C_R   0.791950 0.703062 0.814564 0.045656
C16   C     C_R   0.862707 0.225698 0.603508 0.537959
C17   C     C_R   0.897037 0.814290 0.773382 0.085174
C18   C     C_R   0.900037 0.796783 0.700796 -0.121283
C19   C     C_R   0.816932 0.664292 0.670140 0.001328
C20   C     C_R   0.206014 0.514110 0.267708 -0.137474
C21   C     C_R   0.240677 0.538824 0.196240 -0.126567
C22   C     C_R   0.317967 0.677773 0.170489 0.024286
C23   C     C_R   0.405746 0.627811 0.705353 -0.133104
C24   C     C_R   0.348141 0.791058 0.215690 -0.145741
C25   C     C_R   0.311458 0.765893 0.287241 -0.139586
C26   C     C_R   0.244536 0.627250 0.313925 0.027482
C27   C     C_R   0.791020 0.256183 0.274928 -0.129817
C28   C     C_R   0.869199 0.637034 0.395734 0.538698
C29   C     C_R   0.790463 0.239616 0.202266 -0.136799
C30   C     C_R   0.850904 0.164775 0.173272 0.023868
C31   C     C_R   0.922533 0.116723 0.217287 -0.139946
C32   C     C_R   0.924541 0.135055 0.290541 -0.153917
C33   C     C_R   0.854527 0.200736 0.319518 0.028864
C34   C     C_R   0.316051 0.670010 0.676522 0.025598
C35   C     C_R   0.963796 0.725292 0.277844 -0.133409
C36   C     C_R   0.950067 0.724248 0.205209 -0.137428
C37   C     C_R   0.815836 0.650791 0.174492 0.023202
C38   C     C_R   0.696781 0.565611 0.216762 -0.140821
C39   C     C_R   0.711602 0.562828 0.290138 -0.147890
C40   C     C_R   0.209792 0.597746 0.389112 0.558332
C41   C     C_R   0.844735 0.646889 0.320917 0.031088
C42   C     C_R   0.810318 0.110634 0.897127 0.549329
C43   C     C_R   0.396128 0.701282 0.896364 0.531389
C44   C     C_R   0.776483 0.727648 0.889554 0.578233
C45   C     C_R   0.849609 0.183982 0.827235 -0.012693
C46   C     C_R   0.809082 0.107526 0.102232 0.544754
C47   C     C_R   0.391749 0.702897 0.102703 0.547106
C48   C     C_R   0.797983 0.692515 0.103901 0.556117
C49   C     C_R   0.863672 0.233609 0.394445 0.538609
C50   C     C_R   0.251539 0.726479 0.720394 -0.127854
C51   C     C_R   0.277584 0.740353 0.793141 -0.129602
C52   C     C_R   0.361607 0.690395 0.821836 0.042555
C53   C     C_R   0.099743 0.258738 0.832306 -0.067653
C54   C     C_R   0.226115 0.293785 0.798280 -0.118813
C55   C     C_R   0.227777 0.275684 0.725157 -0.124569
C56   C     C_R   0.103505 0.225083 0.685471 -0.078726
Cr1   Cr    Cr6+3 0.791660 0.390250 0.499930 1.007470
Cr2   Cr    Cr6+3 0.098520 0.708290 0.500540 0.999891
Cr3   Cr    Cr6+3 0.109770 0.401430 0.499480 1.003796
Cr4   Cr    Cr6+3 0.874790 0.925890 0.000070 1.016961
Cr5   Cr    Cr6+3 0.574120 0.948670 0.999300 1.032603
Cr6   Cr    Cr6+3 0.551420 0.625320 0.000920 0.998088
H1    H     H_    0.175542 0.752966 0.699168 0.141386
H2    H     H_    0.228387 0.783784 0.826842 0.114081
H3    H     H_    0.340389 0.855122 0.321990 0.134079
H4    H     H_    0.742119 0.313335 0.296243 0.143185
H5    H     H_    0.735779 0.278271 0.169138 0.132402
H6    H     H_    0.969095 0.057505 0.195760 0.141585
H7    H     H_    0.978181 0.096461 0.324428 0.123513
H8    H     H_    0.068732 0.787010 0.300167 0.137614
H9    H     H_    0.043558 0.789103 0.173572 0.133729
H10   H     H_    0.591819 0.508143 0.193825 0.138905
H11   H     H_    0.619797 0.497786 0.322733 0.126766
H12   H     H_    0.575306 0.039694 0.628858 0.134648
H13   H     H_    0.490376 0.597933 0.800107 0.130564
H14   H     H_    0.453959 0.581915 0.672611 0.124477
H15   H     H_    0.322455 0.332958 0.828944 0.107473
H16   H     H_    0.325407 0.298724 0.699234 0.129036
H17   H     H_    0.101581 0.274015 0.889306 0.122637
H18   H     H_    0.109321 0.199738 0.630617 0.142742
H19   H     H_    0.319582 0.973240 0.652283 0.240486
H20   H     H_    0.395021 0.142366 0.627126 0.221524
H21   H     H_    0.075514 0.912519 0.831246 0.238899
H22   H     H_    0.072045 0.009971 0.766299 0.234323
H23   H     H_    0.433441 0.196552 0.798424 0.108897
H24   H     H_    0.581637 0.307620 0.893470 0.214562
H25   H     H_    0.754655 0.393388 0.870901 0.230368
H26   H     H_    0.649219 0.448913 0.687584 0.143174
H27   H     H_    0.619680 0.486454 0.812588 0.115920
H28   H     H_    0.979433 0.883612 0.669548 0.135291
H29   H     H_    0.152591 0.406938 0.287388 0.132283
H30   H     H_    0.215039 0.449472 0.162085 0.131981
H31   H     H_    0.408371 0.899007 0.197062 0.134841
N1    N     N_3   0.363812 0.075990 0.671564 -0.666187
N2    N     N_3   0.008023 0.940339 0.805532 -0.582152
N3    N     N_3   0.666521 0.293724 0.879517 -0.592991
O1    O     O_R   0.766500 0.250040 0.579790 -0.514891
O2    O     O_R   0.413330 0.603360 0.920440 -0.541549
O3    O     O_R   0.676110 0.626250 0.926750 -0.524419
O4    O     O_R   0.798570 0.516780 0.574780 -0.497341
O5    O     O_R   0.895350 0.809870 0.080950 -0.523877
O6    O     O_R   0.872490 0.049760 0.073800 -0.511919
O7    O     O_R   0.691680 0.088070 0.079070 -0.516503
O8    O     O_R   0.451720 0.825250 0.074050 -0.502151
O9    O     O_R   0.413580 0.606370 0.080960 -0.523450
O10   O     O_R   0.676340 0.629040 0.075550 -0.498526
O11   O     O_3   0.666780 0.833290 0.000090 -0.262723
O12   O     O_R   0.218690 0.701900 0.425960 -0.508927
O13   O     O_R   0.984000 0.732950 0.581090 -0.531829
O14   O     O_R   0.218600 0.700890 0.574760 -0.510931
O15   O     O_R   0.249390 0.515350 0.579940 -0.514314
O16   O     O_R   0.982790 0.280900 0.573700 -0.509053
O17   O     O_R   0.766600 0.251130 0.419260 -0.522112
O18   O     O_R   0.798660 0.517790 0.425980 -0.509696
O19   O     O_R   0.984100 0.734040 0.420570 -0.531942
O20   O     O_R   0.249490 0.516440 0.419420 -0.510764
O21   O     O_R   0.982880 0.281910 0.424890 -0.522475
O22   O     O_3   0.999980 0.499990 0.499980 -0.260683
O23   O     O_R   0.895110 0.806860 0.920430 -0.496005
O24   O     O_R   0.872260 0.046970 0.925000 -0.502133
O25   O     O_R   0.691430 0.085060 0.918550 -0.470301
O26   O     O_R   0.451490 0.822460 0.925250 -0.496442

loop_
_geom_bond_atom_site_label_1
_geom_bond_atom_site_label_2
_ccdc_geom_bond_type
C49   O17   A    
C55   C56   A    
C35   C41   A    
H20   N1    S    
C6    C45   A    
C27   C29   A    
Cr2   O13   S    
C35   C36   A    
C43   O2    A    
C23   H14   S    
C48   O10   A    
C7    C8    A    
C39   C41   A    
Cr6   O9    S    
C53   C54   A    
C27   C33   A    
C46   O6    A    
C12   C23   A    
C29   C30   A    
C36   C37   A    
Cr5   O7    S    
C15   C44   S    
C5    C11   A    
C5    C6    A    
C44   O3    A    
C16   O1    A    
C33   C49   S    
C28   C41   S    
Cr2   O22   S    
Cr4   O23   S    
Cr5   O25   S    
C18   C19   A    
C9    H23   S    
C29   H5    S    
Cr3   O16   S    
C49   O21   A    
C35   H8    S    
Cr3   O20   S    
C47   O9    A    
Cr3   O15   S    
C26   C40   S    
C17   N2    S    
C9    C10   A    
C36   H9    S    
C40   O12   A    
C54   H15   S    
C1    O13   A    
C22   C47   S    
H21   N2    S    
Cr3   O21   S    
Cr6   O2    S    
C13   C14   A    
C50   H1    S    
Cr4   O6    S    
C2    C11   A    
C1    O4    A    
C12   C52   A    
C50   C51   A    
C7    H12   S    
C4    C34   S    
C31   H6    S    
C20   H29   S    
C38   H10   S    
C1    C19   S    
C34   C50   A    
C13   C19   A    
C51   C52   A    
C18   H28   S    
Cr5   O8    S    
C25   H3    S    
C24   C25   A    
C5    C7    A    
C55   H16   S    
C8    C9    A    
Cr1   O17   S    
Cr6   O11   S    
C44   O23   A    
C25   C26   A    
Cr1   O4    S    
C3    C45   A    
Cr5   O26   S    
H22   N2    S    
C38   C39   A    
C14   H27   S    
C37   C38   A    
C28   O19   A    
C11   C16   S    
C31   C32   A    
C10   N3    S    
C30   C31   A    
C23   C34   A    
Cr1   O1    S    
H25   N3    S    
C17   C18   A    
C8    N1    S    
C37   C48   S    
C43   O26   A    
C32   H7    S    
Cr4   O11   S    
H24   N3    S    
C4    O15   A    
Cr3   O22   S    
Cr2   O19   S    
C22   C24   A    
C12   H13   S    
Cr4   O5    S    
C16   O16   A    
C15   C17   A    
C4    O14   A    
C54   C55   A    
C47   O8    A    
C53   H17   S    
Cr2   O14   S    
C30   C46   S    
C51   H2    S    
C6    C10   A    
Cr1   O18   S    
Cr6   O10   S    
C46   O7    A    
C56   H18   S    
C32   C33   A    
C2    C3    A    
C27   H4    S    
C2    C56   A    
C24   H31   S    
H19   N1    S    
C3    C53   A    
C42   O24   A    
C40   O20   A    
C20   C26   A    
C48   O5    A    
C28   O18   A    
C13   H26   S    
Cr4   O24   S    
Cr2   O12   S    
C39   H11   S    
C43   C52   S    
Cr6   O3    S    
C20   C21   A    
Cr5   O11   S    
C14   C15   A    
C21   C22   A    
C42   C45   S    
C42   O25   A    
Cr1   O22   S    
C21   H30   S    
