data_mof_unit_16715.cif
_audit_creation_date              2013-03-05T15:45:21-0500
_audit_creation_method            fapswitch 2.2
_symmetry_space_group_name_H-M    P1
_symmetry_Int_Tables_number       1
_space_group_crystal_system       triclinic
_cell_length_a                    10.874157
_cell_length_b                    11.045114
_cell_length_c                    9.798105
_cell_angle_alpha                 111.10018
_cell_angle_beta                  99.21199
_cell_angle_gamma                 90.403751
_cell_volume                      1081.07546851

loop_
_atom_site_label
_atom_site_type_symbol
_atom_site_description
_atom_site_fract_x
_atom_site_fract_y
_atom_site_fract_z
_atom_type_partial_charge
O1    O     O_R   0.511700 0.332340 0.577400 -0.594540
O2    O     O_R   0.488300 0.667660 0.422600 -0.567031
O3    O     O_R   0.474680 0.295500 0.332650 -0.590021
O4    O     O_R   0.525320 0.704500 0.667350 -0.570690
C1    C     C_R   0.493868 0.254101 0.440706 0.853704
C2    C     C_R   0.510173 0.746051 0.559443 0.878661
O5    O     O_R   0.338170 0.518410 0.622370 -0.572772
O6    O     O_R   0.661830 0.481590 0.377630 -0.587407
O7    O     O_R   0.301150 0.481570 0.377630 -0.569452
O8    O     O_R   0.698850 0.518430 0.622370 -0.590952
C3    C     C_R   0.261231 0.496194 0.498760 0.798417
C4    C     C_R   0.736290 0.483492 0.497562 0.800877
Cu1   Cu    Cu3+1 0.521920 0.521810 0.644910 0.926819
Cu2   Cu    Cu3+1 0.478080 0.478190 0.355090 0.946436
C5    C     C_R   0.150688 0.632477 0.761420 -0.287629
C6    C     C_R   0.832775 0.303020 0.240957 -0.326759
C7    C     C_R   0.116975 0.657877 0.900360 0.434304
C8    C     C_R   0.874905 0.235539 0.108651 0.407026
C9    C     C_R   0.007679 0.592939 0.907988 0.374537
C10   C     C_R   0.003214 0.241627 0.104801 0.423458
C11   C     C_R   0.926486 0.522363 0.774969 -0.308052
C12   C     C_R   0.085573 0.318304 0.232565 -0.263629
C13   C     C_R   0.956024 0.508554 0.634671 0.033175
C14   C     C_R   0.043612 0.397183 0.364840 0.015282
C15   C     C_R   0.078421 0.542967 0.629350 -0.013218
C16   C     C_R   0.914097 0.388148 0.367268 -0.003718
C17   C     C_R   0.869552 0.456964 0.499412 -0.133565
C18   C     C_R   0.125511 0.483119 0.495105 -0.119616
H1    H     H_    0.234611 0.684376 0.759623 0.197063
H2    H     H_    0.735896 0.283480 0.243615 0.189629
H3    H     H_    0.845788 0.469834 0.782440 0.182882
H4    H     H_    0.182325 0.308974 0.223334 0.200155
H5    H     H_    0.516088 0.866259 0.371661 0.182316
H6    H     H_    0.503201 0.133862 0.629862 0.178455
C19   C     C_2   0.500193 0.115644 0.407785 -0.357965
C20   C     C_2   0.514571 0.885293 0.593341 -0.348491
C21   C     C_2   0.506571 0.069521 0.516707 -0.165363
C22   C     C_2   0.514266 0.931281 0.485107 -0.169999
H7    H     H_    0.515528 0.950562 0.707273 0.154594
H8    H     H_    0.501040 0.051211 0.293962 0.157775
H9    H     H_    0.424723 0.409826 0.841712 0.167976
H10   H     H_    0.577226 0.587678 0.157448 0.156277
N1    N     N_2   0.445130 0.445420 0.137360 -0.279415
N2    N     N_2   0.554870 0.554580 0.862640 -0.297598
C23   C     C_2   0.508629 0.511835 0.082175 -0.064409
C24   C     C_2   0.491957 0.487254 0.917406 -0.071284
H11   H     H_    0.613867 0.631042 0.937589 0.182236
H12   H     H_    0.381103 0.373211 0.063138 0.205045
O9    O     O_3   0.051105 0.186249 0.974598 -0.583053
C25   C     C_3   0.026566 0.049792 0.913720 0.102135
H13   H     H_    0.934776 0.023617 0.838471 0.203805
H14   H     H_    0.027794 0.006840 0.000516 0.127392
C26   C     C_3   0.125298 0.989630 0.820636 -0.819335
H15   H     H_    0.219008 0.008873 0.891858 0.248425
H16   H     H_    0.103579 0.883068 0.766048 0.206029
H17   H     H_    0.126386 0.031495 0.733290 0.253404
O10   O     O_3   0.988996 0.589380 0.043545 -0.573887
C27   C     C_3   0.868525 0.626169 0.071434 0.021594
H18   H     H_    0.801133 0.539589 0.020692 0.155640
H19   H     H_    0.836412 0.703422 0.028253 0.126249
C28   C     C_3   0.870357 0.679376 0.238329 -0.791882
H20   H     H_    0.933250 0.769300 0.292610 0.224899
H21   H     H_    0.775173 0.703455 0.261647 0.196935
H22   H     H_    0.903405 0.606148 0.286294 0.269538
O11   O     O_3   0.201357 0.735208 0.024646 -0.571922
C29   C     C_3   0.141283 0.819351 0.136882 0.128650
H23   H     H_    0.132514 0.773953 0.219521 0.208828
H24   H     H_    0.047509 0.843721 0.093459 0.111060
C30   C     C_3   0.221552 0.945449 0.217681 -0.849865
H25   H     H_    0.238688 0.992419 0.139030 0.253312
H26   H     H_    0.174813 0.013201 0.304976 0.207849
H27   H     H_    0.311705 0.923341 0.270294 0.268208
O12   O     O_3   0.791467 0.153827 0.988113 -0.616026
C31   C     C_3   0.719747 0.227168 0.916500 0.075469
H28   H     H_    0.714512 0.330949 0.988070 0.135055
H29   H     H_    0.622329 0.183314 0.882411 0.153861
C32   C     C_3   0.770258 0.219891 0.777742 -0.817773
H30   H     H_    0.766506 0.117132 0.700609 0.253507
H31   H     H_    0.713226 0.275960 0.720493 0.224156
H32   H     H_    0.868394 0.261323 0.808177 0.274218

loop_
_geom_bond_atom_site_label_1
_geom_bond_atom_site_label_2
_geom_bond_distance
_ccdc_geom_bond_type
C29   H24   1.113876 S    
C28   H22   1.108099 S    
H6    C21   1.087052 S    
O12   C31   1.414101 S    
C26   H15   1.110413 S    
C9    O10   1.389530 S    
C15   C18   1.422564 A    
O5    C3    1.298362 A    
C11   H3    1.075169 S    
C16   C17   1.409329 A    
C21   C22   1.450498 S    
C12   H4    1.072840 S    
O1    C1    1.288165 A    
C9    C11   1.405777 A    
C14   C16   1.415784 A    
C30   H25   1.109150 S    
C5    C15   1.418394 A    
C29   C30   1.515305 S    
C27   H19   1.116177 S    
C28   H21   1.109099 S    
O4    Cu1   1.948914 S    
C30   H26   1.110681 S    
C31   C32   1.522372 S    
C25   H14   1.111498 S    
H9    C24   1.084829 S    
C13   C17   1.419507 A    
N1    H12   1.030616 S    
N2    H11   1.029117 S    
C32   H30   1.110356 S    
C26   H17   1.111081 S    
C27   C28   1.522273 S    
C32   H31   1.107663 S    
C29   H23   1.110187 S    
Cu1   Cu2   2.664861 S    
O2    C2    1.289622 A    
O8    C4    1.277484 A    
N2    C24   1.306371 D    
C5    H1    1.080167 S    
C26   H16   1.108839 S    
C6    C16   1.413430 A    
C25   C26   1.520952 S    
C31   H28   1.115296 S    
C4    C17   1.479013 S    
O4    C2    1.284632 A    
C27   H18   1.108989 S    
C23   C24   1.517549 S    
H10   C23   1.082737 S    
C30   H27   1.103911 S    
O7    Cu2   1.970516 S    
C10   O9    1.388606 S    
N1    C23   1.305851 D    
O6    C4    1.309299 A    
C25   H13   1.109195 S    
O7    C3    1.284926 A    
O3    Cu2   1.948914 S    
C31   H29   1.109678 S    
C10   C12   1.397659 A    
O11   C29   1.415099 S    
C8    O12   1.382224 S    
C11   C13   1.416763 A    
C12   C14   1.424406 A    
O1    Cu1   1.950865 S    
C32   H32   1.109105 S    
C5    C7    1.397357 A    
O6    Cu2   1.973416 S    
C19   C21   1.330990 D    
C20   H7    1.087528 S    
C14   C18   1.440495 A    
O3    C1    1.285584 A    
O8    Cu1   1.970515 S    
C7    O11   1.391672 S    
H5    C22   1.088213 S    
C20   C22   1.330181 D    
C19   H8    1.087315 S    
O10   C27   1.413537 S    
C3    C18   1.475334 S    
C1    C19   1.449443 S    
C7    C9    1.409829 A    
C2    C20   1.450511 S    
C8    C10   1.403574 A    
C13   C15   1.395709 A    
C28   H20   1.109373 S    
O2    Cu2   1.950864 S    
O5    Cu1   1.973416 S    
C6    C8    1.394710 A    
O9    C25   1.412329 S    
C6    H2    1.080137 S    
Cu1   N2    2.002003 S    
Cu2   N1    2.002003 S    
