data_mof_unit_8538.cif
_audit_creation_date              2012-12-10T19:49:28-0500
_audit_creation_method            fapswitch 2.2
_symmetry_space_group_name_H-M    P1
_symmetry_Int_Tables_number       1
_space_group_crystal_system       triclinic
_cell_length_a                    14.969268
_cell_length_b                    14.260913
_cell_length_c                    14.872128
_cell_angle_alpha                 90.25791
_cell_angle_beta                  88.200392
_cell_angle_gamma                 89.631658
_cell_volume                      3173.16728571

loop_
_atom_site_label
_atom_site_type_symbol
_atom_type_description
_atom_site_fract_x
_atom_site_fract_y
_atom_site_fract_z
_atom_type_partial_charge
C1    C     C_R   0.327989 0.500460 0.500066 0.933785
C2    C     C_R   0.817501 0.429465 0.465390 -0.230232
C3    C     C_R   0.808033 0.572543 0.554367 -0.182840
C4    C     C_R   0.185657 0.433017 0.549735 -0.222601
C5    C     C_R   0.232161 0.502370 0.502764 -0.226162
C6    C     C_R   0.767292 0.500365 0.507431 -0.211179
C7    C     C_R   0.047776 0.508712 0.512588 -0.182079
C8    C     C_R   0.951328 0.506167 0.511506 -0.174223
C9    C     C_R   0.530760 0.103291 0.423172 0.263862
C10   C     C_R   0.549916 0.895174 0.562017 0.276821
C11   C     C_R   0.469732 0.104356 0.576811 0.266074
C12   C     C_R   0.671892 0.499886 0.501801 0.928076
C13   C     C_R   0.449913 0.895266 0.437620 0.273665
C14   C     C_R   0.530871 0.203467 0.425268 0.388857
C15   C     C_R   0.540471 0.796219 0.567015 0.347767
C16   C     C_R   0.469682 0.204451 0.574958 0.373526
C17   C     C_R   0.458689 0.795853 0.433124 0.355798
C18   C     C_R   0.500279 0.052764 0.499954 -0.109119
C19   C     C_R   0.500025 0.946634 0.499830 -0.156960
C20   C     C_R   0.500575 0.499970 0.327240 1.024085
C21   C     C_R   0.501113 0.500117 0.672747 1.012861
C22   C     C_R   0.579010 0.472779 0.810954 0.299007
C23   C     C_R   0.337861 0.519166 0.051805 0.504554
C24   C     C_R   0.420421 0.490608 0.188872 0.327097
C25   C     C_R   0.501284 0.500333 0.768223 -0.233949
C26   C     C_R   0.501261 0.500567 0.231856 -0.227298
C27   C     C_R   0.424659 0.531141 0.815293 0.299304
C28   C     C_R   0.581832 0.515574 0.184875 0.289494
C29   C     C_R   0.421986 0.523570 0.908912 -0.011194
C30   C     C_R   0.583369 0.504913 0.091423 -0.023395
C31   C     C_R   0.502323 0.505211 0.953236 -0.060962
C32   C     C_R   0.501520 0.505646 0.046812 -0.071657
C33   C     C_R   0.583178 0.485716 0.904143 -0.074438
C34   C     C_R   0.664778 0.479237 0.949338 0.522187
C35   C     C_R   0.418885 0.505677 0.096018 -0.065522
C36   C     C_R   0.341183 0.532528 0.958502 -0.345518
C37   C     C_R   0.663781 0.489633 0.042773 -0.337204
C38   C     C_3   0.654552 0.344446 0.757290 0.155781
C39   C     C_3   0.732559 0.311762 0.696064 -0.304272
C40   C     C_3   0.732292 0.205630 0.683179 -0.977284
C41   C     C_3   0.326920 0.374409 0.234523 0.115311
C42   C     C_3   0.247044 0.350474 0.296475 -0.317288
C43   C     C_3   0.224767 0.246352 0.291845 -0.971682
C44   C     C_3   0.184836 0.487030 0.067259 0.086400
C45   C     C_R   0.095061 0.577924 0.462474 0.431367
C46   C     C_3   0.116277 0.559775 0.037819 -0.321299
C47   C     C_3   0.035365 0.513433 0.997255 -0.992004
C48   C     C_3   0.809432 0.523391 0.908197 0.088806
C49   C     C_3   0.788745 0.607108 0.847801 -0.365775
C50   C     C_3   0.867951 0.673567 0.839165 -0.906310
C51   C     C_3   0.631405 0.007344 0.343988 0.085764
C52   C     C_3   0.659116 0.976366 0.248465 -0.330828
C53   C     C_3   0.745282 0.918507 0.247764 -0.964258
C54   C     C_3   0.686489 0.961921 0.586975 0.099185
C55   C     C_3   0.746495 0.874487 0.575225 -0.352275
C56   C     C_R   0.909567 0.433331 0.463406 0.471548
C57   C     C_3   0.841238 0.900966 0.544747 -0.920240
C58   C     C_3   0.367746 0.012075 0.655522 0.082662
C59   C     C_3   0.339456 0.981947 0.750788 -0.332977
C60   C     C_3   0.253383 0.925132 0.750687 -0.966276
C61   C     C_3   0.315660 0.970023 0.414108 0.109997
C62   C     C_3   0.252537 0.887321 0.433204 -0.355432
C63   C     C_3   0.160904 0.921489 0.467717 -0.920889
C64   C     C_3   0.647483 0.240659 0.327393 0.084960
C65   C     C_3   0.681266 0.324244 0.273180 -0.301057
C66   C     C_3   0.776802 0.308769 0.236865 -0.941028
C67   C     C_R   0.899990 0.574933 0.559403 0.421928
C68   C     C_3   0.530453 0.767468 0.717869 0.142706
C69   C     C_3   0.586507 0.737269 0.796555 -0.347904
C70   C     C_3   0.537225 0.753980 0.886682 -0.976874
C71   C     C_3   0.357350 0.247346 0.677289 0.099849
C72   C     C_3   0.329695 0.331317 0.736132 -0.309818
C73   C     C_3   0.236577 0.319210 0.779191 -0.949255
C74   C     C_3   0.457515 0.764219 0.281476 0.124924
C75   C     C_3   0.390673 0.744578 0.208305 -0.303991
C76   C     C_3   0.434042 0.753439 0.114464 -0.967345
C77   C     C_R   0.093728 0.437200 0.558496 0.461518
C78   C     C_R   0.187394 0.575102 0.460473 -0.167569
H1    H     H_    0.279792 0.546607 0.924786 0.165839
H2    H     H_    0.796607 0.333317 0.725619 0.236438
H3    H     H_    0.737642 0.169814 0.748976 0.273087
H4    H     H_    0.790082 0.184233 0.638955 0.265726
H5    H     H_    0.669805 0.183450 0.650952 0.272144
H6    H     H_    0.385908 0.333210 0.256482 0.169355
H7    H     H_    0.311455 0.353524 0.164459 0.131209
H8    H     H_    0.262856 0.368426 0.366705 0.237198
H9    H     H_    0.187780 0.392352 0.277403 0.228644
H10   H     H_    0.207072 0.226442 0.222371 0.265313
H11   H     H_    0.166904 0.231424 0.338010 0.277494
H12   H     H_    0.725341 0.478720 0.077583 0.165323
H13   H     H_    0.282709 0.203410 0.312657 0.268436
H14   H     H_    0.323784 0.615213 0.802361 0.331851
H15   H     H_    0.698805 0.573097 0.192594 0.338448
H16   H     H_    0.153692 0.444606 0.122108 0.165498
H17   H     H_    0.201787 0.436498 0.011708 0.113422
H18   H     H_    0.093773 0.602569 0.097063 0.239726
H19   H     H_    0.147250 0.607710 0.987333 0.214615
H20   H     H_    0.055896 0.472050 0.936508 0.271507
H21   H     H_    0.987508 0.568717 0.977455 0.262028
H22   H     H_    0.001647 0.466762 0.047171 0.270316
H23   H     H_    0.224275 0.628280 0.423234 0.203166
H24   H     H_    0.873345 0.490985 0.883634 0.181771
H25   H     H_    0.820295 0.547438 0.978192 0.114344
H26   H     H_    0.771749 0.581918 0.779662 0.272525
H27   H     H_    0.730888 0.646305 0.877779 0.203816
H28   H     H_    0.884930 0.701496 0.906301 0.251520
H29   H     H_    0.850443 0.733236 0.795180 0.279749
H30   H     H_    0.927088 0.636537 0.808725 0.284110
H31   H     H_    0.989763 0.637979 0.411963 0.348499
H32   H     H_    0.018091 0.384014 0.402799 0.341506
H33   H     H_    0.000591 0.634093 0.618108 0.346211
H34   H     H_    0.785152 0.372659 0.431170 0.177328
H35   H     H_    0.989400 0.388290 0.624923 0.340990
H36   H     H_    0.624646 0.942829 0.384544 0.134910
H37   H     H_    0.685618 0.050872 0.371826 0.094219
H38   H     H_    0.605205 0.933382 0.219834 0.223608
H39   H     H_    0.669224 0.038578 0.204794 0.216853
H40   H     H_    0.800623 0.960498 0.275002 0.268596
H41   H     H_    0.763742 0.897230 0.177678 0.269415
H42   H     H_    0.735959 0.854279 0.288941 0.266036
H43   H     H_    0.718905 0.010208 0.634491 0.177861
H44   H     H_    0.681804 0.000729 0.522875 0.099029
H45   H     H_    0.768166 0.626156 0.588961 0.195024
H46   H     H_    0.748961 0.836289 0.640103 0.253153
H47   H     H_    0.719087 0.826913 0.523736 0.218017
H48   H     H_    0.840290 0.938228 0.479323 0.256783
H49   H     H_    0.882687 0.836472 0.536247 0.302273
H50   H     H_    0.871988 0.946756 0.595704 0.264620
H51   H     H_    0.373395 0.947494 0.614174 0.136057
H52   H     H_    0.314289 0.057595 0.628325 0.095946
H53   H     H_    0.393124 0.938511 0.779769 0.223369
H54   H     H_    0.328948 0.044519 0.794616 0.215271
H55   H     H_    0.198216 0.967591 0.723087 0.269953
H56   H     H_    0.220952 0.376660 0.581704 0.176515
H57   H     H_    0.234409 0.904573 0.820596 0.268976
H58   H     H_    0.263117 0.860485 0.709451 0.264797
H59   H     H_    0.283618 0.017148 0.365157 0.169027
H60   H     H_    0.324337 0.012896 0.475437 0.099330
H61   H     H_    0.244641 0.845871 0.370524 0.254349
H62   H     H_    0.280848 0.840832 0.485001 0.214810
H63   H     H_    0.167336 0.961775 0.531288 0.255397
H64   H     H_    0.116987 0.860315 0.481112 0.296236
H65   H     H_    0.129429 0.966726 0.416827 0.265927
H66   H     H_    0.656469 0.178792 0.283207 0.177169
H67   H     H_    0.591499 0.316143 0.730829 0.188526
H68   H     H_    0.688700 0.233168 0.388304 0.101900
H69   H     H_    0.637220 0.335276 0.215399 0.239563
H70   H     H_    0.678713 0.387441 0.316821 0.262311
H71   H     H_    0.822266 0.292580 0.292321 0.289360
H72   H     H_    0.800647 0.373182 0.202271 0.280025
H73   H     H_    0.779092 0.249806 0.187769 0.258043
H74   H     H_    0.466289 0.728539 0.719589 0.161109
H75   H     H_    0.514415 0.843094 0.727469 0.168924
H76   H     H_    0.603111 0.661876 0.789108 0.229914
H77   H     H_    0.649996 0.777328 0.795207 0.230646
H78   H     H_    0.663572 0.315310 0.825792 0.160287
H79   H     H_    0.525634 0.830206 0.897856 0.272301
H80   H     H_    0.578014 0.726430 0.941913 0.269536
H81   H     H_    0.471890 0.717609 0.888502 0.272919
H82   H     H_    0.347086 0.184474 0.719124 0.175637
H83   H     H_    0.313812 0.244429 0.617821 0.102898
H84   H     H_    0.378230 0.339506 0.790608 0.228633
H85   H     H_    0.330553 0.395684 0.694576 0.254894
H86   H     H_    0.186494 0.307138 0.727006 0.296135
H87   H     H_    0.217546 0.383523 0.817812 0.277849
H88   H     H_    0.236076 0.258790 0.826077 0.254190
H89   H     H_    0.727664 0.345373 0.629315 0.238446
H90   H     H_    0.516872 0.717816 0.271415 0.161571
H91   H     H_    0.481258 0.837408 0.272647 0.162520
H92   H     H_    0.363420 0.672926 0.216871 0.267484
H93   H     H_    0.334082 0.795203 0.215206 0.229927
H94   H     H_    0.457754 0.826207 0.103158 0.268120
H95   H     H_    0.384473 0.736226 0.062999 0.279894
H96   H     H_    0.491584 0.704295 0.106374 0.267200
N1    N     N_R   0.500000 0.252470 0.500000 -0.199560
N2    N     N_R   0.500000 0.747530 0.500000 -0.201048
O1    O     O_R   0.369060 0.579480 0.500010 -0.587986
O2    O     O_3   0.343282 0.471835 0.239390 -0.611467
O3    O     O_3   0.352997 0.563516 0.767566 -0.797392
O4    O     O_3   0.656966 0.537617 0.232299 -0.805855
O5    O     O_3   0.259283 0.533729 0.102697 -0.605831
O6    O     O_3   0.743198 0.453305 0.903094 -0.623729
O7    O     O_3   0.054842 0.648296 0.414085 -0.760504
O8    O     O_3   0.955384 0.364932 0.414087 -0.766096
O9    O     O_3   0.936139 0.645720 0.610366 -0.774458
O10   O     O_3   0.051835 0.369201 0.610336 -0.767095
O11   O     O_3   0.549363 0.057496 0.341799 -0.573414
O12   O     O_R   0.630940 0.420520 0.499990 -0.637832
O13   O     O_3   0.601187 0.940458 0.624752 -0.583059
O14   O     O_3   0.450700 0.059371 0.657964 -0.573584
O15   O     O_3   0.398543 0.940615 0.374834 -0.585612
O16   O     O_3   0.555448 0.253147 0.348835 -0.585307
O17   O     O_3   0.578814 0.747821 0.636331 -0.600147
O18   O     O_3   0.449007 0.254643 0.652739 -0.597838
O19   O     O_3   0.416006 0.746582 0.366826 -0.594003
O20   O     O_R   0.630940 0.579480 0.499990 -0.595716
O21   O     O_R   0.369060 0.420520 0.500010 -0.638829
O22   O     O_R   0.499980 0.579490 0.367850 -0.587681
O23   O     O_R   0.500020 0.420510 0.632150 -0.590393
O24   O     O_R   0.500020 0.579490 0.632150 -0.581262
O25   O     O_R   0.499980 0.420510 0.367850 -0.585535
O26   O     O_3   0.652809 0.443564 0.759479 -0.633040
Zn1   Zn    Zn3+2 0.500000 0.606140 0.500000 1.025774
Zn2   Zn    Zn3+2 0.500000 0.393860 0.500000 0.995990

loop_
_geom_bond_atom_site_label_1
_geom_bond_atom_site_label_2
_ccdc_geom_bond_type
C30   C32   A    
C49   C50   S    
C11   C18   A    
C54   O13   S    
C27   C29   A    
C34   C37   A    
C41   C42   S    
C40   H5    S    
C38   H78   S    
C75   C76   S    
C3    C6    A    
C8    C56   A    
C49   H26   S    
C74   H90   S    
C53   H42   S    
C7    C8    S    
C71   H82   S    
C29   C36   A    
C2    H34   S    
C69   H77   S    
C47   H20   S    
C37   H12   S    
C1    C5    S    
C43   H10   S    
C7    C45   A    
C76   H95   S    
C27   O3    S    
N1    Zn2   S    
C66   H72   S    
C73   H86   S    
C10   C15   A    
C6    C12   S    
C38   C39   S    
C61   H60   S    
C58   H51   S    
C12   O12   A    
C47   H21   S    
O21   Zn2   S    
C70   H81   S    
C46   C47   S    
C76   H94   S    
C74   H91   S    
C54   C55   S    
C1    O1    A    
C72   H85   S    
C55   H47   S    
C44   C46   S    
C68   C69   S    
C22   C25   A    
C58   O14   S    
O1    Zn1   S    
C68   O17   S    
C42   H8    S    
C50   H28   S    
C62   H61   S    
C65   H69   S    
C60   H58   S    
C61   C62   S    
C17   N2    A    
C7    C77   A    
C14   O16   S    
C52   H39   S    
H31   O7    S    
C54   H44   S    
H32   O8    S    
C59   C60   S    
C16   O18   S    
C78   H23   S    
C50   H30   S    
C77   O10   S    
C12   O20   A    
N2    Zn1   S    
C2    C6    A    
C21   O23   A    
C64   O16   S    
H15   O4    S    
C3    H45   S    
C52   H38   S    
C1    O21   A    
C59   H54   S    
H33   O9    S    
C51   H36   S    
C74   C75   S    
C22   O26   S    
C51   C52   S    
C24   C35   A    
C32   C35   A    
C40   H4    S    
C41   O2    S    
C44   H16   S    
C66   H71   S    
C73   H87   S    
C68   H75   S    
C39   C40   S    
C13   C19   A    
C53   H40   S    
C4    C5    A    
C71   O18   S    
C49   H27   S    
C64   H66   S    
C58   C59   S    
C41   H6    S    
O12   Zn2   S    
C43   H13   S    
C47   H22   S    
C30   C37   A    
C70   H80   S    
C9    C14   A    
C38   H67   S    
C14   N1    A    
C68   H74   S    
H14   O3    S    
C11   C16   A    
C31   C32   A    
C10   C19   A    
C48   H24   S    
C62   C63   S    
C31   C33   A    
C33   C34   A    
C63   H63   S    
C43   H11   S    
C65   H70   S    
C28   O4    S    
C60   H57   S    
C20   O22   A    
C45   C78   A    
C75   H92   S    
C38   O26   S    
C15   N2    A    
C16   N1    A    
C48   C49   S    
C54   H43   S    
C65   C66   S    
C23   C35   A    
C55   C57   S    
C24   O2    S    
C50   H29   S    
C57   H50   S    
C17   O19   S    
C42   C43   S    
C21   O24   A    
C57   H48   S    
C41   H7    S    
C52   C53   S    
C45   O7    S    
C4    H56   S    
C59   H53   S    
C22   C33   A    
C21   C25   S    
C74   O19   S    
C72   H84   S    
C71   H83   S    
C64   H68   S    
C40   H3    S    
C46   H19   S    
C3    C67   A    
C24   C26   A    
C72   C73   S    
C9    O11   S    
C36   H1    S    
C57   H49   S    
C53   H41   S    
C23   O5    S    
C20   O25   A    
C25   C27   A    
C56   O8    S    
C75   H93   S    
C26   C28   A    
C69   H76   S    
C13   O15   S    
C13   C17   A    
C70   H79   S    
O20   Zn1   S    
C39   H2    S    
C11   O14   S    
C28   C30   A    
C66   H73   S    
C29   C31   A    
C44   H17   S    
C2    C56   A    
C64   C65   S    
C48   O6    S    
C48   H25   S    
C61   H59   S    
O23   Zn2   S    
C20   C26   S    
C58   H52   S    
O24   Zn1   S    
H35   O10   S    
C44   O5    S    
C76   H96   S    
O25   Zn2   S    
C63   H64   S    
C10   O13   S    
C34   O6    S    
C39   H89   S    
C69   C70   S    
C73   H88   S    
C51   H37   S    
C51   O11   S    
C15   O17   S    
C4    C77   A    
C9    C18   A    
C71   C72   S    
C46   H18   S    
C8    C67   A    
C23   C36   A    
C55   H46   S    
O22   Zn1   S    
C61   O15   S    
C18   C19   S    
C63   H65   S    
C42   H9    S    
C62   H62   S    
C5    C78   A    
C60   H55   S    
C67   O9    S    
