data_mof_unit_49027.cif
_audit_creation_date              2012-12-11T16:26:29-0500
_audit_creation_method            fapswitch 2.2
_symmetry_space_group_name_H-M    P1
_symmetry_Int_Tables_number       1
_space_group_crystal_system       triclinic
_cell_length_a                    6.945456
_cell_length_b                    17.519724
_cell_length_c                    19.480073
_cell_angle_alpha                 108.444425
_cell_angle_beta                  89.560539
_cell_angle_gamma                 90.48464
_cell_volume                      2248.50757641

loop_
_atom_site_label
_atom_site_type_symbol
_atom_type_description
_atom_site_fract_x
_atom_site_fract_y
_atom_site_fract_z
_atom_type_partial_charge
O1    O     O_R   0.494330 0.415720 0.413720 -0.538406
O2    O     O_R   0.819330 0.430070 0.560210 -0.543471
O3    O     O_R   0.994320 0.584280 0.586280 -0.537799
C1    C     C_R   0.650438 0.417359 0.583749 0.702065
O4    O     O_R   0.823730 0.406300 0.412670 -0.539426
O5    O     O_R   0.998760 0.560340 0.437690 -0.539088
C2    C     C_R   0.654420 0.381024 0.386736 0.697140
O6    O     O_R   0.489890 0.439660 0.562310 -0.548356
O7    O     O_3   0.662340 0.550560 0.508380 -0.365973
V1    V     V_3+5 0.935370 0.490620 0.498450 1.409656
O8    O     O_R   0.328750 0.569930 0.439790 -0.537458
C3    C     C_R   0.160865 0.584153 0.417723 0.704514
O9    O     O_R   0.324340 0.593700 0.587330 -0.539287
C4    C     C_R   0.155503 0.616406 0.615071 0.693537
V2    V     V_3+5 0.435940 0.509380 0.501550 1.412590
O10   O     O_3   0.159100 0.449440 0.491620 -0.371729
H1    H     H_    0.789265 0.838905 0.578485 0.109277
C5    C     C_R   0.349911 0.611467 0.745130 -0.134227
C6    C     C_R   0.449061 0.608003 0.805885 -0.144841
C7    C     C_R   0.436177 0.670946 0.870315 -0.135218
C8    C     C_R   0.324729 0.737938 0.874426 -0.131627
C9    C     C_R   0.229685 0.745175 0.812659 0.071446
C10   C     C_R   0.242374 0.680390 0.746486 0.067834
C11   C     C_R   0.121246 0.814820 0.816275 -0.189861
C12   C     C_R   0.029440 0.820255 0.753067 0.071191
C13   C     C_R   0.041883 0.755414 0.686936 0.072564
C14   C     C_R   0.146152 0.684954 0.683787 -0.191483
C15   C     C_R   0.930130 0.890803 0.753550 -0.143915
C16   C     C_R   0.842798 0.896733 0.691361 -0.124941
C17   C     C_R   0.855022 0.833596 0.626967 -0.124123
C18   C     C_R   0.954510 0.764047 0.624316 -0.132084
H2    H     H_    0.358899 0.559147 0.697547 0.122895
H3    H     H_    0.532869 0.555319 0.803344 0.117200
H4    H     H_    0.511259 0.667454 0.917656 0.117004
H5    H     H_    0.314593 0.783553 0.926727 0.108896
H6    H     H_    0.921015 0.942902 0.801367 0.117024
H7    H     H_    0.767422 0.951130 0.692977 0.118736
H8    H     H_    0.964461 0.718059 0.572200 0.108341
C19   C     C_R   0.236861 0.603483 0.298692 -0.176333
C20   C     C_R   0.153370 0.632363 0.367888 -0.089218
C21   C     C_R   0.061312 0.706976 0.389197 -0.210440
C22   C     C_R   0.056828 0.753897 0.342705 0.143541
C23   C     C_R   0.136168 0.724078 0.272159 0.004260
C24   C     C_R   0.224548 0.647660 0.249359 0.002842
C25   C     C_R   0.975785 0.830696 0.366159 -0.185312
C26   C     C_R   0.978551 0.879123 0.321512 -0.196803
C27   C     C_R   0.058219 0.851206 0.251305 0.067802
C28   C     C_R   0.130396 0.771712 0.225383 -0.031931
C29   C     C_R   0.202118 0.741109 0.153861 -0.003230
C30   C     C_R   0.289744 0.664112 0.130793 0.232338
C31   C     C_R   0.303101 0.618131 0.178702 0.246660
C32   C     C_R   0.068542 0.901510 0.206955 0.227915
C33   C     C_R   0.114089 0.867378 0.132658 -0.092765
C34   C     C_R   0.183216 0.788224 0.107210 -0.262124
H9    H     H_    0.308439 0.545832 0.283550 0.150584
H10   H     H_    0.998016 0.729428 0.442850 0.100832
H11   H     H_    0.912751 0.854004 0.419761 0.119190
H12   H     H_    0.913195 0.937944 0.341861 0.137259
H13   H     H_    0.225849 0.764850 0.050951 0.124577
C35   C     C_R   0.782114 0.183536 0.868063 -0.212817
C36   C     C_R   0.622444 0.133891 0.868562 -0.088093
C37   C     C_R   0.466661 0.132158 0.822242 -0.217931
C38   C     C_R   0.470009 0.178826 0.775507 0.102007
C39   C     C_R   0.629616 0.229363 0.775948 0.047105
C40   C     C_R   0.785320 0.232114 0.822808 0.056351
C41   C     C_R   0.316121 0.176002 0.728493 -0.199781
C42   C     C_R   0.319852 0.222920 0.682254 -0.174118
C43   C     C_R   0.477165 0.273773 0.682407 0.108320
C44   C     C_R   0.633091 0.277234 0.729590 -0.015236
C45   C     C_R   0.791575 0.328750 0.730710 0.055935
C46   C     C_R   0.942248 0.334393 0.780641 0.293167
C47   C     C_R   0.939759 0.284715 0.824897 -0.263422
C48   C     C_R   0.481031 0.321068 0.636141 -0.167415
C49   C     C_R   0.641598 0.369785 0.634526 -0.091252
C50   C     C_R   0.795863 0.373126 0.681732 -0.213431
H14   H     H_    0.901609 0.185847 0.904184 0.126275
H15   H     H_    0.343309 0.093702 0.822006 0.124355
H16   H     H_    0.192353 0.137622 0.727620 0.133147
H17   H     H_    0.198901 0.219788 0.646628 0.132347
H18   H     H_    0.361190 0.318409 0.600097 0.129783
H19   H     H_    0.918908 0.411052 0.680378 0.163408
H20   H     H_    0.057104 0.288723 0.862297 0.132767
H21   H     H_    0.496471 0.112785 0.425327 0.135261
C51   C     C_R   0.730384 0.404905 0.250563 -0.141389
C52   C     C_R   0.768749 0.419644 0.185616 -0.118643
C53   C     C_R   0.761785 0.357145 0.120574 -0.131260
C54   C     C_R   0.713994 0.279556 0.119978 -0.137461
C55   C     C_R   0.672146 0.262909 0.185075 0.069540
C56   C     C_R   0.682382 0.326549 0.251964 0.062560
C57   C     C_R   0.615222 0.184893 0.183903 -0.171744
C58   C     C_R   0.565397 0.170467 0.249441 0.027885
C59   C     C_R   0.590793 0.231834 0.317805 0.020294
C60   C     C_R   0.644186 0.311589 0.318508 -0.174843
C61   C     C_R   0.498245 0.093337 0.247709 -0.143715
C62   C     C_R   0.477930 0.073093 0.310533 -0.200976
C63   C     C_R   0.511684 0.129984 0.376787 -0.088494
C64   C     C_R   0.565327 0.208495 0.381873 0.189794
H22   H     H_    0.737831 0.455967 0.299420 0.112873
H23   H     H_    0.803032 0.480107 0.185869 0.120072
H24   H     H_    0.791771 0.368968 0.070241 0.114531
H25   H     H_    0.707610 0.233125 0.067879 0.095556
H26   H     H_    0.471312 0.045849 0.197518 0.138408
H27   H     H_    0.440783 0.012086 0.307736 0.138025
O11   O     O_R   0.775200 0.060470 0.937800 -0.543635
O12   O     O_R   0.441110 0.093720 0.087350 -0.536745
O13   O     O_R   0.266330 0.939630 0.062280 -0.541234
C65   C     C_R   0.609281 0.117482 0.114323 0.689734
O14   O     O_R   0.445750 0.069950 0.939820 -0.541349
O15   O     O_R   0.271000 0.915700 0.913700 -0.537828
C66   C     C_R   0.614755 0.084832 0.918065 0.702701
O16   O     O_R   0.770530 0.084400 0.086380 -0.543122
O17   O     O_3   0.602830 0.949510 0.991680 -0.367812
V3    V     V_3+5 0.329710 0.009370 0.001550 1.410269
O18   O     O_R   0.940990 0.906170 0.912570 -0.538605
C67   C     C_R   0.110221 0.883166 0.885122 0.690063
O19   O     O_R   0.936350 0.929940 0.060100 -0.544505
C68   C     C_R   0.104880 0.915406 0.082113 0.736822
V4    V     V_3+5 0.829160 0.990450 0.998310 1.399415
O20   O     O_3   0.105910 0.050480 0.008320 -0.370221
N1    N     N_2   0.074481 0.986839 0.239679 -0.555336
H28   H     H_    0.112426 0.007870 0.293438 0.256829
C69   C     C_3   0.930536 0.034637 0.220048 -0.496943
H29   H     H_    0.875112 0.079840 0.269815 0.195159
H30   H     H_    0.809157 0.996780 0.190878 0.194604
H31   H     H_    0.998144 0.067687 0.186000 0.216028
N2    N     N_2   0.373815 0.633003 0.060633 -0.521254
H32   H     H_    0.456552 0.673574 0.044694 0.249135
C70   C     C_3   0.244718 0.585840 0.005220 -0.564089
H33   H     H_    0.328801 0.555311 0.955596 0.199401
H34   H     H_    0.135609 0.625092 0.992200 0.193076
H35   H     H_    0.170172 0.539025 0.023078 0.212336
N3    N     N_2   0.403991 0.543536 0.156586 -0.514177
H36   H     H_    0.523685 0.541231 0.124302 0.280155
C71   C     C_3   0.286504 0.471148 0.134607 -0.541823
H37   H     H_    0.331752 0.430330 0.164867 0.214633
H38   H     H_    0.306233 0.439445 0.075843 0.191705
H39   H     H_    0.131250 0.484664 0.145377 0.188737
N4    N     N_2   0.093526 0.391803 0.788593 -0.522044
H40   H     H_    0.222341 0.374209 0.804741 0.265582
C72   C     C_3   0.040885 0.472178 0.832733 -0.587910
H41   H     H_    0.005816 0.472973 0.888714 0.195704
H42   H     H_    0.914868 0.493947 0.809675 0.205846
H43   H     H_    0.162834 0.513892 0.834798 0.212553
N5    N     N_3   0.598839 0.260432 0.453518 -0.698789
H44   H     H_    0.493146 0.304539 0.466504 0.240126
H45   H     H_    0.738524 0.283807 0.457354 0.230822

loop_
_geom_bond_atom_site_label_1
_geom_bond_atom_site_label_2
_ccdc_geom_bond_type
O11   C66   A    
C54   C55   A    
N2    H32   S    
C48   C49   A    
C37   H15   S    
C62   C63   A    
C72   H43   S    
C1    O6    A    
C70   H33   S    
C71   H39   S    
O18   C67   A    
C21   H10   S    
C33   C34   A    
N1    H28   S    
C12   C15   A    
O12   C65   A    
C25   H11   S    
C13   C14   A    
C16   C17   A    
O16   V4    S    
O12   V3    S    
C15   C16   A    
C72   H42   S    
C57   C65   S    
O5    C3    A    
C17   C18   A    
C33   C68   S    
C29   C34   A    
O19   C68   A    
C5    C6    A    
C21   C22   A    
V4    O20   S    
V3    O20   S    
O8    V2    S    
C51   C52   A    
C19   H9    S    
C6    C7    A    
C62   H27   S    
C43   C44   A    
C45   C46   A    
C30   N2    S    
C10   C14   A    
C4    C14   S    
C53   H24   S    
C23   C28   A    
C1    C49   S    
C36   C37   A    
O15   V3    S    
C7    H4    S    
C55   C56   A    
C41   C42   A    
C38   C41   A    
C13   C18   A    
C54   H25   S    
O9    C4    A    
C26   H12   S    
C56   C60   A    
H1    C17   S    
C44   C45   A    
C2    C60   S    
C36   C66   S    
O17   V3    S    
N1    C69   S    
C59   C64   A    
C46   N4    S    
O11   V4    S    
C34   H13   S    
C41   H16   S    
C49   C50   A    
O13   V3    S    
C5    C10   A    
C42   H17   S    
C72   H41   S    
N5    H45   S    
C6    H3    S    
C19   C20   A    
O4    C2    A    
C53   C54   A    
C50   H19   S    
C71   H38   S    
C43   C48   A    
C52   C53   A    
C35   H14   S    
C42   C43   A    
C35   C36   A    
C22   C25   A    
O14   V3    S    
C3    C20   S    
O2    C1    A    
C23   C24   A    
C64   N5    S    
C37   C38   A    
C52   H23   S    
C27   C28   A    
C31   N3    S    
C63   C64   A    
C30   C31   A    
C39   C44   A    
C11   C12   A    
C15   H6    S    
O18   V4    S    
O3    C4    A    
N4    C72   S    
O1    V2    S    
C32   N1    S    
C24   C31   A    
C20   C21   A    
C55   C57   A    
C35   C40   A    
O6    V2    S    
O9    V2    S    
O13   C68   A    
C9    C11   A    
C5    H2    S    
C51   C56   A    
C19   C24   A    
C69   H30   S    
O2    V1    S    
C70   H35   S    
C58   C59   A    
C32   C33   A    
O7    V1    S    
C26   C27   A    
C28   C29   A    
N2    C70   S    
O1    C2    A    
C65   O16   A    
N5    H44   S    
C70   H34   S    
O5    V1    S    
O8    C3    A    
O14   C66   A    
C27   C32   A    
C8    H5    S    
C40   C47   A    
C71   H37   S    
C18   H8    S    
C51   H22   S    
C39   C40   A    
C69   H31   S    
C12   C13   A    
O4    V1    S    
O3    V1    S    
V1    O10   S    
C58   C61   A    
O17   V4    S    
C57   C58   A    
H21   C63   S    
C59   C60   A    
C48   H18   S    
O19   V4    S    
N3    H36   S    
O7    V2    S    
C61   C62   A    
N4    H40   S    
O15   C67   A    
C38   C39   A    
C25   C26   A    
C46   C47   A    
C7    C8    A    
C61   H26   S    
C11   C67   S    
N3    C71   S    
C29   C30   A    
C22   C23   A    
C16   H7    S    
C45   C50   A    
C9    C10   A    
C69   H29   S    
C8    C9    A    
C47   H20   S    
V2    O10   S    
