data_mof_unit_60843.cif
_audit_creation_date              2012-12-11T14:24:10-0500
_audit_creation_method            fapswitch 2.2
_symmetry_space_group_name_H-M    P1
_symmetry_Int_Tables_number       1
_space_group_crystal_system       triclinic
_cell_length_a                    6.953579
_cell_length_b                    17.454695
_cell_length_c                    18.873364
_cell_angle_alpha                 105.351101
_cell_angle_beta                  89.650061
_cell_angle_gamma                 90.438958
_cell_volume                      2208.89604518

loop_
_atom_site_label
_atom_site_type_symbol
_atom_type_description
_atom_site_fract_x
_atom_site_fract_y
_atom_site_fract_z
_atom_type_partial_charge
O1    O     O_R   0.494360 0.416740 0.414860 -0.539346
O2    O     O_R   0.818980 0.432970 0.557290 -0.525698
O3    O     O_R   0.994290 0.583260 0.585140 -0.538731
C1    C     C_R   0.649955 0.415955 0.580621 0.719677
O4    O     O_R   0.823740 0.407570 0.413690 -0.536940
O5    O     O_R   0.999090 0.557670 0.440510 -0.522779
C2    C     C_R   0.654903 0.386611 0.385649 0.746513
O6    O     O_R   0.489560 0.442330 0.559490 -0.521861
O7    O     O_3   0.662450 0.549280 0.508970 -0.363012
V1    V     V_3+5 0.935350 0.490860 0.498340 1.409768
O8    O     O_R   0.329100 0.567030 0.442710 -0.525507
C3    C     C_R   0.160995 0.584051 0.419382 0.717298
O9    O     O_R   0.324330 0.592430 0.586310 -0.537463
C4    C     C_R   0.154857 0.614976 0.613477 0.745474
V2    V     V_3+5 0.435960 0.509140 0.501660 1.408034
O10   O     O_3   0.158990 0.450720 0.491030 -0.362085
C5    C     C_2   0.278460 0.788405 0.784856 -0.127702
C6    C     C_2   0.113652 0.817211 0.819740 -0.312201
H1    H     H_    0.976060 0.791235 0.799633 0.128609
C7    C     C_2   0.290794 0.720574 0.717329 -0.132750
C8    C     C_2   0.138026 0.682391 0.680053 -0.309948
H2    H     H_    0.434535 0.701927 0.697626 0.134935
H3    H     H_    0.993163 0.700106 0.698170 0.130165
C9    C     C_1   0.110599 0.863967 0.132680 -0.213100
C10   C     C_1   0.118200 0.821403 0.176248 0.001448
C11   C     C_1   0.127785 0.771183 0.228132 -0.000125
C12   C     C_1   0.135983 0.728888 0.271920 -0.000296
C13   C     C_1   0.145560 0.678654 0.323793 0.001014
C14   C     C_1   0.153149 0.636065 0.367341 -0.212625
C15   C     C_1   0.641252 0.364029 0.632668 -0.212677
C16   C     C_1   0.636875 0.321446 0.676245 0.000977
C17   C     C_1   0.633221 0.271209 0.728137 -0.000034
C18   C     C_1   0.630465 0.228890 0.771953 -0.000126
C19   C     C_1   0.626815 0.178651 0.823843 0.000731
C20   C     C_1   0.622448 0.136060 0.867413 -0.213198
C21   C     C_2   0.766341 0.217425 0.211607 -0.138863
C22   C     C_2   0.610371 0.170194 0.188824 0.014786
C23   C     C_2   0.785101 0.277887 0.283732 -0.135963
C24   C     C_2   0.639173 0.324982 0.315391 -0.319633
H4    H     H_    0.501522 0.320147 0.287938 0.149847
O11   O     O_R   0.774180 0.057760 0.940580 -0.522092
O12   O     O_R   0.439830 0.092440 0.086330 -0.534338
O13   O     O_R   0.264640 0.942310 0.059470 -0.523171
C25   C     C_R   0.607748 0.112585 0.115174 0.723996
O14   O     O_R   0.444740 0.067040 0.942730 -0.525417
O15   O     O_R   0.269590 0.916730 0.914840 -0.534545
C26   C     C_R   0.613765 0.084110 0.919439 0.718219
O16   O     O_R   0.769230 0.083340 0.085210 -0.544917
O17   O     O_3   0.601340 0.950770 0.991070 -0.362799
V3    V     V_3+5 0.328370 0.009130 0.001660 1.410481
O18   O     O_R   0.939550 0.907490 0.913620 -0.541865
C27   C     C_R   0.108496 0.884957 0.886452 0.745476
O19   O     O_R   0.934640 0.932890 0.057220 -0.524662
C28   C     C_R   0.102740 0.915941 0.080608 0.718220
V4    V     V_3+5 0.827780 0.990750 0.998250 1.404440
O20   O     O_3   0.104690 0.049230 0.008930 -0.361538
H5    H     H_    0.414343 0.815354 0.806731 0.136793
H6    H     H_    0.891672 0.210540 0.175881 0.113237
C29   C     C_3   0.440539 0.167041 0.238725 -0.755282
H7    H     H_    0.376234 0.106454 0.224780 0.195056
H8    H     H_    0.484263 0.179876 0.297171 0.221863
H9    H     H_    0.327711 0.208986 0.231607 0.197775
H10   H     H_    0.926834 0.287011 0.308522 0.138456

loop_
_geom_bond_atom_site_label_1
_geom_bond_atom_site_label_2
_ccdc_geom_bond_type
O5    V1    S    
O16   V4    S    
O2    C1    A    
O8    C3    A    
O13   V3    S    
O1    V2    S    
O9    C4    A    
C3    C14   S    
O7    V1    S    
O15   V3    S    
O13   C28   A    
O18   V4    S    
C16   C17   S    
O9    V2    S    
C1    O6    A    
C20   C26   S    
C17   C18   T    
C22   C25   S    
C8    H3    S    
C5    C6    D    
O7    V2    S    
C6    C27   S    
O4    V1    S    
O3    V1    S    
V1    O10   S    
O19   C28   A    
C9    C10   T    
O5    C3    A    
C25   O16   A    
C11   C12   T    
C22   C29   S    
O3    C4    A    
O12   C25   A    
O14   V3    S    
O12   V3    S    
C4    C8    S    
C21   C23   S    
C13   C14   T    
C7    H2    S    
C18   C19   S    
O6    V2    S    
C21   H6    S    
O19   V4    S    
O11   C26   A    
C15   C16   T    
C19   C20   T    
O17   V3    S    
V3    O20   S    
V4    O20   S    
C29   H8    S    
C9    C28   S    
V2    O10   S    
O2    V1    S    
O15   C27   A    
C29   H7    S    
C5    C7    S    
C23   C24   D    
C7    C8    D    
C21   C22   D    
C6    H1    S    
O14   C26   A    
C24   H4    S    
O4    C2    A    
C2    C24   S    
O11   V4    S    
C29   H9    S    
C10   C11   S    
O1    C2    A    
O8    V2    S    
C23   H10   S    
C1    C15   S    
O18   C27   A    
C5    H5    S    
C12   C13   S    
O17   V4    S    
