data_mof_unit_48978.cif
_audit_creation_date              2012-12-10T18:54:29-0500
_audit_creation_method            fapswitch 2.2
_symmetry_space_group_name_H-M    P1
_symmetry_Int_Tables_number       1
_space_group_crystal_system       triclinic
_cell_length_a                    19.465196
_cell_length_b                    18.319022
_cell_length_c                    9.040218
_cell_angle_alpha                 89.854879
_cell_angle_beta                  93.890611
_cell_angle_gamma                 90.779149
_cell_volume                      3215.86064156

loop_
_atom_site_label
_atom_site_type_symbol
_atom_type_description
_atom_site_fract_x
_atom_site_fract_y
_atom_site_fract_z
_atom_type_partial_charge
C1    C     C_R   0.367616 0.499507 0.510282 0.767868
C2    C     C_R   0.631745 0.500313 0.499768 0.784560
C3    C     C_R   0.465830 0.725410 0.388268 0.324504
C4    C     C_R   0.541835 0.278213 0.603691 0.349100
C5    C     C_R   0.532615 0.722010 0.618799 0.328670
C6    C     C_R   0.457740 0.276126 0.398602 0.304027
C7    C     C_R   0.456658 0.801434 0.406829 -0.310543
C8    C     C_R   0.536738 0.201458 0.615301 -0.281357
C9    C     C_R   0.527074 0.798671 0.630825 -0.286518
C10   C     C_R   0.455686 0.198658 0.406707 -0.255856
C11   C     C_R   0.488786 0.839329 0.525705 0.037449
C12   C     C_R   0.493850 0.160454 0.516887 0.020017
C13   C     C_R   0.549667 0.961304 0.570740 -0.183198
C14   C     C_R   0.430538 0.038194 0.485339 -0.184526
C15   C     C_R   0.429214 0.961331 0.487897 -0.180266
C16   C     C_R   0.551146 0.038019 0.567191 -0.175576
C17   C     C_R   0.491681 0.078009 0.524008 0.137275
C18   C     C_R   0.488813 0.921583 0.530378 0.138034
C19   C     C_R   0.499620 0.500040 0.220687 0.850843
C20   C     C_R   0.500255 0.499937 0.779304 0.820628
C21   C     C_1   0.499843 0.500049 0.065598 -0.205957
C22   C     C_1   0.500077 0.499873 0.934388 -0.204948
C23   C     C_R   0.738911 0.492550 0.366903 0.125982
C24   C     C_R   0.253772 0.564711 0.538385 0.123821
C25   C     C_R   0.254467 0.430262 0.542227 0.129603
C26   C     C_R   0.746715 0.505103 0.637895 0.119036
C27   C     C_R   0.810762 0.489717 0.370288 -0.200925
C28   C     C_R   0.181654 0.561613 0.529977 -0.210672
C29   C     C_R   0.182409 0.430415 0.534506 -0.208524
C30   C     C_R   0.818392 0.501066 0.637579 -0.179090
C31   C     C_R   0.850567 0.493928 0.504777 0.024166
C32   C     C_R   0.146084 0.495223 0.524648 0.039625
C33   C     C_R   0.706670 0.500379 0.501502 -0.074275
C34   C     C_R   0.291667 0.498181 0.530497 -0.095204
C35   C     C_R   0.963742 0.448915 0.610275 -0.185769
C36   C     C_R   0.032793 0.537068 0.413650 -0.185556
C37   C     C_R   0.035379 0.449407 0.615459 -0.180699
C38   C     C_R   0.961106 0.536295 0.407951 -0.181126
C39   C     C_R   0.070370 0.493716 0.517575 0.124292
C40   C     C_R   0.926136 0.492524 0.506818 0.125431
Cu1   Cu    Cu3+1 0.500000 0.573360 0.500000 0.915460
Cu2   Cu    Cu3+1 0.500000 0.426640 0.500000 0.901756
H1    H     H_    0.835795 0.483442 0.267631 0.135594
H2    H     H_    0.152443 0.611511 0.532648 0.130868
H3    H     H_    0.153840 0.379271 0.537163 0.128612
H4    H     H_    0.849410 0.504886 0.741530 0.140297
H5    H     H_    0.937654 0.414428 0.686874 0.127697
H6    H     H_    0.058970 0.571293 0.336728 0.129067
H7    H     H_    0.063502 0.416080 0.697423 0.130388
H8    H     H_    0.932997 0.570876 0.328264 0.127904
H9    H     H_    0.429517 0.832761 0.319922 0.140140
H10   H     H_    0.567710 0.173640 0.701550 0.140621
H11   H     H_    0.554122 0.827046 0.722841 0.144121
H12   H     H_    0.425915 0.167047 0.324033 0.157954
H13   H     H_    0.597047 0.932992 0.600890 0.126325
H14   H     H_    0.383296 0.066448 0.453763 0.126649
H15   H     H_    0.381253 0.932895 0.457175 0.128390
H16   H     H_    0.599709 0.065855 0.594677 0.126242
N1    N     N_R   0.500000 0.683620 0.500000 -0.194221
N2    N     N_R   0.500000 0.316380 0.500000 -0.209172
O1    O     O_R   0.400190 0.561980 0.499980 -0.572787
O2    O     O_R   0.599810 0.438020 0.500020 -0.583998
O3    O     O_R   0.599810 0.561980 0.500020 -0.602512
O4    O     O_R   0.400190 0.438020 0.499980 -0.594160
O5    O     O_R   0.500000 0.561940 0.288400 -0.581063
O6    O     O_R   0.500000 0.438060 0.711600 -0.603436
O7    O     O_R   0.500000 0.561940 0.711600 -0.577932
O8    O     O_R   0.500000 0.438060 0.288400 -0.598904
C41   C     C_3   0.698434 0.488420 0.218051 -0.420915
C42   C     C_3   0.679417 0.409718 0.176227 -0.821830
H17   H     H_    0.646904 0.384558 0.259210 0.274770
H18   H     H_    0.650106 0.408730 0.066435 0.233498
H19   H     H_    0.726709 0.377001 0.169171 0.244762
H20   H     H_    0.651199 0.521734 0.217363 0.196211
H21   H     H_    0.729826 0.511855 0.131228 0.206743
C43   C     C_3   0.286266 0.639963 0.566396 -0.372829
C44   C     C_3   0.320810 0.646063 0.723131 -0.782061
H22   H     H_    0.360036 0.603392 0.745308 0.259503
H23   H     H_    0.346451 0.700358 0.737384 0.234318
H24   H     H_    0.281508 0.640394 0.806099 0.233383
H25   H     H_    0.246664 0.683194 0.555953 0.177331
H26   H     H_    0.322159 0.655059 0.481728 0.227014
C45   C     C_3   0.287574 0.356400 0.572522 -0.380487
C46   C     C_3   0.322890 0.352589 0.728724 -0.770540
H27   H     H_    0.361628 0.397001 0.748538 0.261940
H28   H     H_    0.283940 0.357110 0.812423 0.231333
H29   H     H_    0.349186 0.299426 0.744257 0.234233
H30   H     H_    0.248337 0.311632 0.564824 0.178255
H31   H     H_    0.322887 0.342050 0.487180 0.227899
C47   C     C_3   0.715293 0.514906 0.785423 -0.419848
C48   C     C_3   0.734507 0.589687 0.851747 -0.858412
H32   H     H_    0.726107 0.633157 0.766944 0.255319
H33   H     H_    0.702138 0.601200 0.945129 0.237845
H34   H     H_    0.789397 0.591114 0.894122 0.245353
H35   H     H_    0.658367 0.509604 0.775701 0.187134
H36   H     H_    0.734165 0.471384 0.863186 0.202357
C49   C     C_3   0.450151 0.700205 0.228835 -0.340822
C50   C     C_3   0.380716 0.661332 0.199765 -0.822349
H37   H     H_    0.371067 0.652068 0.078700 0.227905
H38   H     H_    0.379245 0.607564 0.254204 0.274576
H39   H     H_    0.338788 0.695810 0.237244 0.223307
H40   H     H_    0.447793 0.748316 0.153268 0.159344
H41   H     H_    0.493899 0.671663 0.185293 0.217376
C51   C     C_3   0.597961 0.313139 0.706136 -0.369260
C52   C     C_3   0.669498 0.295560 0.656793 -0.865594
H42   H     H_    0.678984 0.235977 0.663500 0.242098
H43   H     H_    0.674643 0.314310 0.541060 0.272133
H44   H     H_    0.709340 0.324020 0.730163 0.238446
H45   H     H_    0.595595 0.372228 0.715687 0.250166
H46   H     H_    0.593499 0.292268 0.820763 0.167303
C53   C     C_3   0.581558 0.688238 0.736078 -0.346904
C54   C     C_3   0.552599 0.689756 0.889506 -0.854452
H47   H     H_    0.498493 0.669463 0.884669 0.272639
H48   H     H_    0.584219 0.654936 0.967509 0.237611
H49   H     H_    0.553973 0.746211 0.934064 0.230054
H50   H     H_    0.597034 0.632947 0.709472 0.254499
H51   H     H_    0.630707 0.720089 0.742047 0.157073
C55   C     C_3   0.419062 0.312021 0.265709 -0.352669
C56   C     C_3   0.355411 0.270341 0.199252 -0.970133
H52   H     H_    0.370704 0.223534 0.131559 0.259717
H53   H     H_    0.322755 0.250835 0.287770 0.255545
H54   H     H_    0.324218 0.307104 0.124267 0.256265
H55   H     H_    0.399728 0.365472 0.295486 0.247352
H56   H     H_    0.455216 0.320006 0.176935 0.212250

loop_
_geom_bond_atom_site_label_1
_geom_bond_atom_site_label_2
_ccdc_geom_bond_type
C15   C18   A    
C14   H14   S    
C11   C18   S    
Cu1   Cu2   S    
C23   C41   S    
C20   O7    A    
C53   C54   S    
C46   H29   S    
Cu1   O1    S    
C4    C8    A    
C35   H5    S    
C54   H48   S    
C49   C50   S    
C47   H35   S    
Cu1   O7    S    
C44   H22   S    
C7    C11   A    
C52   H43   S    
C13   C18   A    
C20   O6    A    
C35   C37   A    
C46   H28   S    
C29   C32   A    
C3    C7    A    
C51   H45   S    
C56   H54   S    
C31   C40   S    
C32   C39   S    
C55   C56   S    
C51   C52   S    
C16   C17   A    
C23   C33   A    
C12   C17   S    
C19   O5    A    
C53   H50   S    
C23   C27   A    
Cu2   O2    S    
C49   H40   S    
C25   C34   A    
C44   H23   S    
C45   H30   S    
C38   C40   A    
C21   C22   T    
Cu2   O8    S    
C15   H15   S    
C14   C17   A    
C54   H47   S    
C1    C34   S    
C56   H53   S    
C25   C29   A    
C45   H31   S    
C52   H44   S    
C5    N1    A    
C27   C31   A    
C6    N2    A    
C28   C32   A    
C46   H27   S    
Cu1   N1    S    
Cu2   N2    S    
C48   H32   S    
C24   C43   S    
C16   H16   S    
C5    C53   S    
C28   H2    S    
C24   C34   A    
C29   H3    S    
C5    C9    A    
C48   H33   S    
C37   H7    S    
C3    C49   S    
C26   C33   A    
C45   C46   S    
C8    C12   A    
C4    N2    A    
C42   H19   S    
C19   O8    A    
C55   H56   S    
C43   C44   S    
C9    C11   A    
C49   H41   S    
C10   C12   A    
C2    C33   S    
C20   C22   S    
C26   C30   A    
C50   H38   S    
C9    H11   S    
Cu1   O3    S    
C41   H21   S    
C43   H26   S    
C1    O4    A    
Cu2   O4    S    
C42   H17   S    
C2    O3    A    
Cu2   O6    S    
C44   H24   S    
C8    H10   S    
C19   C21   S    
C14   C15   A    
C30   H4    S    
C36   C39   A    
C24   C28   A    
C1    O1    A    
C43   H25   S    
C6    C10   A    
Cu1   O5    S    
C56   H52   S    
C47   H36   S    
C38   H8    S    
C26   C47   S    
C50   H39   S    
C52   H42   S    
C53   H51   S    
C36   C38   A    
C35   C40   A    
C7    H9    S    
C37   C39   A    
C48   H34   S    
C51   H46   S    
C47   C48   S    
C30   C31   A    
C4    C51   S    
C36   H6    S    
C55   H55   S    
C41   C42   S    
C10   H12   S    
C27   H1    S    
C50   H37   S    
C13   C16   A    
C25   C45   S    
C41   H20   S    
C42   H18   S    
C6    C55   S    
C54   H49   S    
C2    O2    A    
C13   H13   S    
C3    N1    A    
