data_mof_unit_21541.cif
_audit_creation_date              2012-12-10T17:24:11-0500
_audit_creation_method            fapswitch 2.2
_symmetry_space_group_name_H-M    P1
_symmetry_Int_Tables_number       1
_space_group_crystal_system       triclinic
_cell_length_a                    19.377797
_cell_length_b                    10.761832
_cell_length_c                    9.641477
_cell_angle_alpha                 90.068333
_cell_angle_beta                  90.898327
_cell_angle_gamma                 94.375998
_cell_volume                      2004.52578886

loop_
_atom_site_label
_atom_site_type_symbol
_atom_type_description
_atom_site_fract_x
_atom_site_fract_y
_atom_site_fract_z
_atom_type_partial_charge
C1    C     C_R   0.499123 0.262787 0.499853 0.781587
C2    C     C_R   0.290203 0.504825 0.500512 -0.116027
C3    C     C_R   0.928698 0.514424 0.511495 0.396644
C4    C     C_R   0.068425 0.515542 0.510956 0.428021
C5    C     C_R   0.814995 0.463493 0.622509 -0.161018
C6    C     C_R   0.742990 0.460461 0.620100 -0.196185
C7    C     C_R   0.707911 0.503340 0.503327 -0.027508
C8    C     C_R   0.745761 0.550577 0.389613 -0.190872
C9    C     C_R   0.817813 0.555857 0.393138 -0.154545
C10   C     C_R   0.852901 0.511731 0.509299 0.064637
C11   C     C_R   0.380366 0.114375 0.605241 -0.203446
C12   C     C_R   0.367151 0.500474 0.499488 0.813264
C13   C     C_R   0.323590 0.042396 0.656713 -0.200924
C14   C     C_R   0.323077 0.912505 0.657610 0.206640
C15   C     C_R   0.379756 0.854978 0.606964 -0.138599
C16   C     C_R   0.437972 0.926345 0.555054 0.038444
C17   C     C_R   0.438450 0.057619 0.554272 0.069246
C18   C     C_R   0.496365 0.128291 0.499422 -0.128911
C19   C     C_R   0.552313 0.069524 0.443795 0.139310
C20   C     C_R   0.550955 0.940997 0.444503 -0.173387
C21   C     C_R   0.495105 0.869977 0.500302 -0.130845
C22   C     C_R   0.581426 0.682027 0.153268 -0.166880
C23   C     C_R   0.498314 0.736751 0.499992 0.771267
C24   C     C_R   0.608201 0.790455 0.093607 -0.300542
C25   C     C_R   0.606872 0.801868 0.951928 0.124986
C26   C     C_R   0.582314 0.699293 0.869228 0.210044
C27   C     C_R   0.540125 0.594874 0.928401 0.131620
C28   C     C_R   0.540023 0.591267 0.077960 0.124712
C29   C     C_R   0.461080 0.413473 0.072056 0.260640
C30   C     C_R   0.461719 0.413312 0.924262 -0.105811
C31   C     C_R   0.632197 0.500389 0.500874 0.765856
C32   C     C_R   0.255113 0.507733 0.628794 0.141844
C33   C     C_R   0.183150 0.512096 0.631251 0.108708
C34   C     C_R   0.144408 0.512945 0.506672 -0.080730
C35   C     C_R   0.178473 0.512000 0.378340 -0.065097
C36   C     C_R   0.251104 0.507888 0.374926 0.072631
Cu1   Cu    Cu3+1 0.500000 0.499990 0.640660 0.958064
Cu2   Cu    Cu3+1 0.500000 0.500010 0.359340 0.964103
H1    H     H_    0.377721 0.214403 0.604345 0.145346
H2    H     H_    0.279631 0.087744 0.695016 0.135906
H3    H     H_    0.377197 0.754323 0.607284 0.153690
H4    H     H_    0.594554 0.895992 0.403650 0.138727
H5    H     H_    0.594646 0.674733 0.259757 0.206052
H6    H     H_    0.634630 0.862802 0.157365 0.166674
H7    H     H_    0.430198 0.342419 0.867543 0.141032
H8    H     H_    0.841043 0.429398 0.713443 0.144359
H9    H     H_    0.714741 0.423477 0.708907 0.151412
H10   H     H_    0.719743 0.584865 0.298738 0.142769
H11   H     H_    0.846018 0.592741 0.304244 0.147933
N1    N     N_R   0.035568 0.599506 0.434491 -0.220443
N2    N     N_R   0.966912 0.598620 0.434243 -0.240844
N3    N     N_R   0.961595 0.431266 0.589028 -0.252623
N4    N     N_R   0.030199 0.431426 0.588138 -0.260117
N5    N     N_R   0.500660 0.501210 0.147910 -0.179334
N6    N     N_R   0.500680 0.501290 0.852040 -0.184416
O1    O     O_R   0.499990 0.319640 0.618810 -0.585379
O2    O     O_R   0.500000 0.319660 0.381240 -0.553565
O3    O     O_R   0.400140 0.499970 0.618820 -0.560840
O4    O     O_R   0.400150 0.500000 0.381250 -0.517889
O5    O     O_R   0.500000 0.680340 0.618760 -0.560110
O6    O     O_R   0.500010 0.680360 0.381190 -0.589314
O7    O     O_R   0.599850 0.500000 0.618750 -0.549354
O8    O     O_R   0.599860 0.500030 0.381180 -0.610117
N7    N     N_3   0.292333 0.506070 0.758793 -0.553323
H12   H     H_    0.283464 0.586410 0.814829 0.255336
H13   H     H_    0.273502 0.428210 0.815400 0.217811
N8    N     N_3   0.264766 0.837680 0.708571 -0.607190
H14   H     H_    0.257025 0.863783 0.811312 0.213150
H15   H     H_    0.221121 0.858206 0.650342 0.219626
N9    N     N_3   0.418364 0.320512 0.142565 -0.517496
H16   H     H_    0.434068 0.233287 0.114382 0.193460
H17   H     H_    0.367466 0.325391 0.106741 0.193301
N10   N     N_3   0.639896 0.911581 0.889975 -0.609627
H18   H     H_    0.614971 0.988497 0.924320 0.232829
H19   H     H_    0.691310 0.921986 0.925396 0.222107
N11   N     N_3   0.615245 0.694314 0.738800 -0.503559
H20   H     H_    0.611883 0.778202 0.685309 0.231955
H21   H     H_    0.667915 0.684264 0.757174 0.202502
N12   N     N_3   0.150709 0.519694 0.763332 -0.601391
H22   H     H_    0.120276 0.595832 0.762756 0.225045
H23   H     H_    0.119607 0.437646 0.779762 0.242488
C37   C     C_R   0.137536 0.511930 0.247172 0.123524
C38   C     C_R   0.133100 0.622937 0.172372 -0.118113
C39   C     C_R   0.087821 0.626456 0.058380 -0.110658
C40   C     C_R   0.047048 0.519268 0.018219 -0.109173
C41   C     C_R   0.052356 0.407840 0.090503 -0.124310
C42   C     C_R   0.097324 0.404056 0.204967 -0.140155
H24   H     H_    0.163086 0.707273 0.204933 0.120245
H25   H     H_    0.083867 0.712533 0.001891 0.122459
H26   H     H_    0.011753 0.522324 0.930346 0.135622
H27   H     H_    0.020973 0.324832 0.058911 0.132476
H28   H     H_    0.099685 0.318169 0.262694 0.127684
N13   N     N_3   0.284991 0.504895 0.243709 -0.550865
H29   H     H_    0.276357 0.586360 0.189350 0.220869
H30   H     H_    0.263341 0.428494 0.186714 0.213732
N14   N     N_3   0.612110 0.138592 0.389471 -0.594093
H31   H     H_    0.632790 0.200440 0.465761 0.213931
H32   H     H_    0.596903 0.189858 0.303804 0.239302

loop_
_geom_bond_atom_site_label_1
_geom_bond_atom_site_label_2
_ccdc_geom_bond_type
C8    C9    A    
C24   C25   A    
N13   H29   S    
C4    N4    A    
N10   H18   S    
C30   H7    S    
C35   C36   A    
C2    C12   S    
Cu1   O7    S    
C7    C8    A    
C40   C41   A    
C1    C18   S    
C29   C30   A    
C1    O1    A    
N11   H21   S    
C18   C19   A    
C41   H27   S    
C5    C6    A    
C27   N6    A    
C29   N5    A    
C37   C42   A    
C2    C32   A    
C34   C35   A    
C13   H2    S    
Cu2   O8    S    
Cu1   O1    S    
C36   N13   S    
C19   C20   A    
C16   C17   A    
N14   H32   S    
C26   N11   S    
C14   N8    S    
N9    H16   S    
C9    C10   A    
Cu1   O3    S    
Cu2   O6    S    
C12   O3    A    
C38   H24   S    
N13   H30   S    
C22   C28   A    
C42   H28   S    
N10   H19   S    
C31   O7    A    
C35   C37   S    
N1    N2    A    
C23   O5    A    
C4    C34   S    
C7    C31   S    
C6    H9    S    
N8    H14   S    
C31   O8    A    
C9    H11   S    
C39   C40   A    
C15   H3    S    
N12   H23   S    
C3    N2    A    
C41   C42   A    
C33   N12   S    
C25   C26   A    
Cu2   O4    S    
C4    N1    A    
N8    H15   S    
N7    H13   S    
C8    H10   S    
Cu1   Cu2   S    
C1    O2    A    
Cu2   O2    S    
C38   C39   A    
Cu2   N5    S    
C3    N3    A    
N14   H31   S    
C17   C18   A    
C26   C27   A    
N11   H20   S    
C11   H1    S    
C32   N7    S    
C21   C23   S    
C24   H6    S    
C22   C24   A    
C39   H25   S    
N3    N4    A    
C29   N9    S    
C30   N6    A    
C2    C36   A    
C11   C17   A    
C28   N5    A    
C20   H4    S    
C40   H26   S    
C16   C21   A    
C6    C7    A    
C5    H8    S    
C32   C33   A    
C5    C10   A    
C3    C10   S    
N7    H12   S    
C11   C13   A    
C33   C34   A    
C25   N10   S    
C12   O4    A    
Cu1   O5    S    
N12   H22   S    
Cu1   N6    S    
C23   O6    A    
C20   C21   A    
C37   C38   A    
C27   C28   A    
C14   C15   A    
N9    H17   S    
C13   C14   A    
C22   H5    S    
C19   N14   S    
C15   C16   A    
