data_mof_unit_6985.cif
_audit_creation_date              2012-12-11T14:30:13-0500
_audit_creation_method            fapswitch 2.2
_symmetry_space_group_name_H-M    P1
_symmetry_Int_Tables_number       1
_space_group_crystal_system       triclinic
_cell_length_a                    12.911441
_cell_length_b                    12.925769
_cell_length_c                    26.808024
_cell_angle_alpha                 90.41108
_cell_angle_beta                  90.306223
_cell_angle_gamma                 119.462679
_cell_volume                      3895.10239627

loop_
_atom_site_label
_atom_site_type_symbol
_atom_type_description
_atom_site_fract_x
_atom_site_fract_y
_atom_site_fract_z
_atom_type_partial_charge
C1    C     C_R   0.566027 0.454718 0.824098 0.556716
C2    C     C_R   0.457150 0.555216 0.179639 0.563479
C3    C     C_R   0.155039 0.420911 0.490878 -0.085671
C4    C     C_R   0.425939 0.147983 0.042982 -0.071546
C5    C     C_R   0.550373 0.732804 0.494704 -0.091315
C6    C     C_R   0.283275 0.858072 0.538506 -0.073935
C7    C     C_R   0.862383 0.273465 0.985880 -0.087282
C8    C     C_R   0.550014 0.718386 0.546123 -0.068760
C9    C     C_R   0.420937 0.155467 0.991343 -0.087440
C10   C     C_R   0.147592 0.425768 0.542522 -0.074302
C11   C     C_R   0.733726 0.548090 0.994658 -0.089106
C12   C     C_R   0.439484 0.897024 0.322550 0.564209
C13   C     C_R   0.098439 0.542905 0.179180 0.565951
C14   C     C_R   0.964443 0.486513 0.978084 -0.015723
C15   C     C_R   0.497954 0.970537 0.531106 -0.010231
C16   C     C_R   0.522333 0.463149 0.981597 -0.013901
C17   C     C_R   0.036409 0.531009 0.533304 -0.000843
C18   C     C_R   0.534861 0.053766 0.981420 -0.000117
C19   C     C_R   0.465622 0.506214 0.533491 -0.013269
C20   C     C_R   0.485893 0.961871 0.478623 -0.014979
C21   C     C_R   0.900777 0.443291 0.679436 0.583880
C22   C     C_R   0.973360 0.498424 0.030551 -0.009492
C23   C     C_R   0.465273 0.521616 0.481385 -0.012488
C24   C     C_R   0.532132 0.037755 0.033498 0.003667
C25   C     C_R   0.051925 0.533472 0.481194 0.007396
C26   C     C_R   0.507122 0.463771 0.033748 -0.009349
C27   C     C_R   0.090402 0.698420 0.969909 0.164468
C28   C     C_R   0.713092 0.084131 0.521779 0.107445
C29   C     C_R   0.314022 0.399911 0.969031 0.156973
C30   C     C_R   0.937648 0.649825 0.524325 0.087554
C31   C     C_R   0.663489 0.966518 0.973177 0.113208
C32   C     C_R   0.545255 0.108830 0.823752 0.549847
C33   C     C_R   0.380961 0.293719 0.519253 0.102284
C34   C     C_R   0.697939 0.088900 0.470437 0.166203
C35   C     C_R   0.086501 0.713383 0.021341 0.108643
C36   C     C_R   0.401858 0.313584 0.468407 0.154047
C37   C     C_R   0.651626 0.939694 0.024204 0.084489
C38   C     C_R   0.963474 0.660950 0.473201 0.086943
C39   C     C_R   0.294323 0.377944 0.019793 0.103255
C40   C     C_R   0.001568 0.575623 0.895797 -0.086259
C41   C     C_R   0.623566 0.059575 0.603324 -0.122659
C42   C     C_R   0.438544 0.428240 0.897630 -0.089721
C43   C     C_R   0.555376 0.456843 0.679554 0.577696
C44   C     C_R   0.934451 0.556373 0.603089 -0.123251
C45   C     C_R   0.598095 0.030808 0.898895 -0.123068
C46   C     C_R   0.442148 0.377542 0.602200 -0.127201
C47   C     C_R   0.574902 0.002415 0.396133 -0.080475
C48   C     C_R   0.061622 0.623823 0.102902 -0.149079
C49   C     C_R   0.428943 0.438210 0.397274 -0.099868
C50   C     C_R   0.557338 0.935398 0.103071 -0.141811
C51   C     C_R   0.028215 0.596203 0.398722 -0.124361
C52   C     C_R   0.378324 0.440372 0.102580 -0.136284
C53   C     C_R   0.029344 0.523506 0.132401 0.010385
C54   C     C_R   0.897218 0.439656 0.822408 0.566235
C55   C     C_R   0.461834 0.944824 0.374404 0.002687
C56   C     C_R   0.477229 0.503485 0.133945 0.015025
C57   C     C_R   0.070785 0.526297 0.376719 -0.049915
C58   C     C_R   0.490818 0.968955 0.133340 0.016457
C59   C     C_R   0.474021 0.551000 0.377485 -0.036980
C60   C     C_R   0.523206 0.028010 0.632813 0.000901
C61   C     C_R   0.945923 0.462729 0.873989 -0.002632
C62   C     C_R   0.504081 0.476309 0.633727 0.023727
C63   C     C_R   0.527175 0.072237 0.876954 -0.014962
C64   C     C_R   0.968512 0.490306 0.633245 0.023832
C65   C     C_R   0.542807 0.098106 0.679293 0.551458
C66   C     C_R   0.551356 0.473095 0.877660 -0.002515
C67   C     C_R   0.018353 0.587853 0.947772 -0.010537
C68   C     C_R   0.612484 0.033312 0.552542 -0.038996
C69   C     C_R   0.424197 0.428815 0.949264 -0.016941
C70   C     C_R   0.970666 0.580997 0.553859 -0.021308
C71   C     C_R   0.597875 0.014971 0.950796 -0.029068
C72   C     C_R   0.423831 0.391205 0.552183 -0.036352
C73   C     C_R   0.587201 0.017393 0.448223 -0.006806
C74   C     C_R   0.035817 0.612823 0.052072 -0.038956
C75   C     C_R   0.430574 0.423716 0.448873 -0.020524
C76   C     C_R   0.454892 0.565964 0.324044 0.552123
C77   C     C_R   0.582293 0.972090 0.053885 -0.026985
C78   C     C_R   0.012269 0.595758 0.450659 -0.029719
C79   C     C_R   0.392023 0.421613 0.052597 -0.034539
C80   C     C_R   0.926865 0.364826 0.903967 0.232406
C81   C     C_R   0.409182 0.945174 0.613985 0.236423
C82   C     C_R   0.652489 0.534246 0.909958 0.203988
C83   C     C_R   0.054658 0.461572 0.616156 0.272276
C84   C     C_R   0.449307 0.093877 0.907883 0.226445
C85   C     C_R   0.526864 0.589663 0.617925 0.283942
C86   C     C_R   0.363332 0.922945 0.404697 0.221565
C87   C     C_R   0.443446 0.900854 0.179442 0.570714
C88   C     C_R   0.946885 0.409582 0.113360 0.261125
C89   C     C_R   0.535710 0.651740 0.409947 0.146019
C90   C     C_R   0.462044 0.055136 0.116418 0.277726
C91   C     C_R   0.092301 0.448394 0.407546 0.176580
C92   C     C_R   0.590928 0.526380 0.118055 0.278642
C93   C     C_R   0.915524 0.373635 0.955780 0.014325
C94   C     C_R   0.395813 0.920758 0.561808 0.033838
C95   C     C_R   0.637014 0.512313 0.961746 0.011378
C96   C     C_R   0.082087 0.474206 0.564554 0.027535
C97   C     C_R   0.469164 0.102942 0.959957 0.015084
C98   C     C_R   0.108438 0.545119 0.323651 0.533901
C99   C     C_R   0.512185 0.605619 0.566470 0.030088
C100  C     C_R   0.372696 0.911679 0.456474 0.012418
C101  C     C_R   0.923704 0.396276 0.061119 0.030118
C102  C     C_R   0.514611 0.636254 0.461721 0.011736
C103  C     C_R   0.474821 0.082811 0.064861 0.035530
C104  C     C_R   0.101590 0.468325 0.459615 0.026207
C105  C     C_R   0.606704 0.510836 0.066607 0.036210
C106  C     C_R   0.862014 0.283897 0.037664 -0.078581
C107  C     C_R   0.272549 0.857627 0.486730 -0.092204
C108  C     C_R   0.719478 0.548071 0.046137 -0.064867
Cr1   Cr    Cr6+3 0.487630 0.241180 0.750000 1.156343
Cr2   Cr    Cr6+3 0.753550 0.512370 0.750000 1.147344
Cr3   Cr    Cr6+3 0.758820 0.246450 0.750000 1.123007
Cr4   Cr    Cr6+3 0.241180 0.487630 0.250000 1.161131
Cr5   Cr    Cr6+3 0.512370 0.753550 0.250000 1.176219
Cr6   Cr    Cr6+3 0.246450 0.758820 0.250000 1.146969
H1    H     H_    0.120413 0.710978 0.118418 0.178681
H2    H     H_    0.647469 0.004705 0.874513 0.205050
H3    H     H_    0.871793 0.581229 0.617442 0.176028
H4    H     H_    0.362262 0.395904 0.872776 0.198540
H5    H     H_    0.823327 0.202595 0.058591 0.172626
H6    H     H_    0.185611 0.817588 0.470180 0.170041
H7    H     H_    0.798997 0.584922 0.068983 0.191944
H8    H     H_    0.201949 0.378313 0.475560 0.175583
H9    H     H_    0.381467 0.184702 0.064829 0.199523
H10   H     H_    0.582959 0.821021 0.480776 0.163005
H11   H     H_    0.201940 0.819214 0.559537 0.198096
H12   H     H_    0.652511 0.036581 0.372636 0.211714
H13   H     H_    0.823152 0.186877 0.969153 0.172013
H14   H     H_    0.587212 0.797825 0.568984 0.198973
H15   H     H_    0.377527 0.201559 0.976086 0.176364
H16   H     H_    0.184819 0.381695 0.564228 0.201528
H17   H     H_    0.821973 0.581039 0.980567 0.162292
H18   H     H_    0.869765 0.124167 0.135989 0.366969
H19   H     H_    0.253500 0.083949 0.328635 0.393917
H20   H     H_    0.882955 0.719233 0.172107 0.377482
H21   H     H_    0.925102 0.292070 0.340064 0.351507
H22   H     H_    0.255781 0.135536 0.173555 0.381025
H23   H     H_    0.291204 0.419743 0.115642 0.176037
H24   H     H_    0.723757 0.638052 0.372997 0.334241
H25   H     H_    0.375290 0.835622 0.716619 0.372091
H26   H     H_    0.885888 0.109778 0.829272 0.382033
H27   H     H_    0.562579 0.724521 0.742645 0.377618
H28   H     H_    0.239909 0.170468 0.845727 0.387227
H29   H     H_    0.160769 0.426906 0.739108 0.391338
H30   H     H_    0.914736 0.756911 0.840433 0.385265
H31   H     H_    0.001931 0.645382 0.374360 0.204539
H32   H     H_    0.582461 0.872964 0.117326 0.175983
H33   H     H_    0.394805 0.361977 0.372292 0.207010
H34   H     H_    0.710833 0.118548 0.618735 0.181681
H35   H     H_    0.034237 0.653121 0.872453 0.205414
H36   H     H_    0.422039 0.290722 0.615255 0.175543
I1    I     I_    0.153073 0.888511 0.050143 -0.180418
I2    I     I_    0.799474 0.957867 0.933614 -0.029271
I3    I     I_    0.855419 0.743704 0.557345 -0.174023
I4    I     I_    0.230303 0.486110 0.935413 -0.221988
I5    I     I_    0.802939 0.253417 0.436412 -0.264995
I6    I     I_    0.117794 0.271032 0.044595 -0.217899
I7    I     I_    0.952576 0.795140 0.433675 -0.003943
I8    I     I_    0.744592 0.856207 0.056731 -0.201339
I9    I     I_    0.481904 0.226029 0.432601 -0.231908
I10   I     I_    0.888626 0.151102 0.550529 -0.164725
I11   I     I_    0.255115 0.801883 0.935341 -0.196911
I12   I     I_    0.276102 0.117076 0.544074 -0.177819
O1    O     O_R   0.460870 0.120930 0.805240 -0.401994
O2    O     O_R   0.120930 0.460870 0.194760 -0.437893
O3    O     O_R   0.539130 0.660060 0.305240 -0.408943
O4    O     O_R   0.339940 0.879070 0.194760 -0.449055
O5    O     O_R   0.498910 0.350470 0.801870 -0.468811
O6    O     O_R   0.851560 0.501090 0.698130 -0.506170
O7    O     O_R   0.649530 0.148440 0.801870 -0.488451
O8    O     O_R   0.498910 0.350470 0.698130 -0.507341
O9    O     O_R   0.851560 0.501090 0.801870 -0.459094
O10   O     O_R   0.649530 0.148440 0.698130 -0.513702
O11   O     O_R   0.350470 0.498910 0.301870 -0.467663
O12   O     O_R   0.660060 0.539130 0.694760 -0.447840
O13   O     O_R   0.501090 0.851560 0.198130 -0.509293
O14   O     O_R   0.148440 0.649530 0.301870 -0.477144
O15   O     O_R   0.350470 0.498910 0.198130 -0.513250
O16   O     O_R   0.501090 0.851560 0.301870 -0.466139
O17   O     O_R   0.148440 0.649530 0.198130 -0.517841
O18   O     O_3   0.666667 0.333333 0.750000 -0.329290
O19   O     O_3   0.333333 0.666667 0.250000 -0.332892
O20   O     O_2   0.877398 0.331051 0.207512 -0.180585
O21   O     O_2   0.741098 0.219218 0.139729 -0.288602
O22   O     O_3   0.930890 0.199037 0.151929 -0.473534
O23   O     O_R   0.879070 0.339940 0.805240 -0.423841
O24   O     O_2   0.153415 0.851110 0.357461 -0.269692
O25   O     O_2   0.209620 0.004732 0.422680 -0.216866
O26   O     O_3   0.316562 0.064956 0.337978 -0.448279
O27   O     O_2   0.663405 0.543907 0.214852 -0.203065
O28   O     O_2   0.766315 0.491071 0.152425 -0.265469
O29   O     O_3   0.809715 0.709820 0.155821 -0.491567
O30   O     O_2   0.189744 0.328196 0.362732 -0.260200
O31   O     O_2   0.040724 0.219422 0.425348 -0.190976
O32   O     O_3   0.969713 0.248062 0.339293 -0.396558
O33   O     O_2   0.451901 0.119864 0.212171 -0.196312
O34   O     O_R   0.460870 0.120930 0.694760 -0.434791
O35   O     O_2   0.481106 0.261914 0.147058 -0.279525
O36   O     O_3   0.270930 0.077349 0.155402 -0.494615
O37   O     O_2   0.659616 0.855348 0.357005 -0.230402
O38   O     O_2   0.750031 0.844425 0.434131 -0.228789
O39   O     O_3   0.746669 0.715924 0.357767 -0.415882
O40   O     O_2   0.206899 0.923404 0.651026 -0.201319
O41   O     O_2   0.218011 0.740868 0.641646 -0.273529
O42   O     O_3   0.333268 0.882230 0.715067 -0.445112
O43   O     O_2   0.065265 0.320170 0.842861 -0.257171
O44   O     O_2   0.011930 0.213205 0.921348 -0.217190
O45   O     O_R   0.660060 0.539130 0.805240 -0.413258
O46   O     O_3   0.851017 0.146753 0.851015 -0.518162
O47   O     O_2   0.696457 0.793156 0.659049 -0.245479
O48   O     O_2   0.496533 0.769142 0.651572 -0.305229
O49   O     O_3   0.533539 0.653257 0.720832 -0.477839
O50   O     O_2   0.257544 0.971064 0.847206 -0.203658
O51   O     O_2   0.219158 0.038875 0.926348 -0.226632
O52   O     O_3   0.321348 0.192357 0.857116 -0.524617
O53   O     O_2   0.079647 0.285586 0.656537 -0.243722
O54   O     O_2   0.260819 0.477484 0.646470 -0.273387
O55   O     O_3   0.119774 0.458506 0.717960 -0.464227
O56   O     O_R   0.879070 0.339940 0.694760 -0.449717
O57   O     O_2   0.709178 0.738220 0.866971 -0.242562
O58   O     O_2   0.841296 0.748835 0.935590 -0.243194
O59   O     O_3   0.863146 0.673145 0.850243 -0.506280
O60   O     O_R   0.120930 0.460870 0.305240 -0.429879
O61   O     O_R   0.539130 0.660060 0.194760 -0.445063
O62   O     O_R   0.339940 0.879070 0.305240 -0.414664
S1    S     S_3+6 0.870222 0.288161 0.154670 0.080533
S2    S     S_3+6 0.307565 0.071053 0.884926 0.061009
S3    S     S_3+6 0.131214 0.418090 0.659327 0.064802
S4    S     S_3+6 0.768817 0.676862 0.891519 0.043805
S5    S     S_3+6 0.254704 0.958638 0.381418 0.073783
S6    S     S_3+6 0.708462 0.565483 0.162252 0.071283
S7    S     S_3+6 0.075209 0.308882 0.384344 0.085662
S8    S     S_3+6 0.418815 0.132191 0.159569 0.068628
S9    S     S_3+6 0.674951 0.772577 0.390603 0.068029
S10   S     S_3+6 0.287338 0.870545 0.655391 0.079355
S11   S     S_3+6 0.967297 0.259737 0.880193 0.053769
S12   S     S_3+6 0.565673 0.706323 0.662485 0.048669

loop_
_geom_bond_atom_site_label_1
_geom_bond_atom_site_label_2
_ccdc_geom_bond_type
C3    C104  A    
H20   O29   S    
O30   S7    D    
C12   O16   A    
C32   O7    A    
C4    C103  A    
C35   C74   A    
C81   C94   A    
C106  H5    S    
C45   C71   A    
C85   S12   S    
C45   H2    S    
C108  H7    S    
C84   S2    S    
C58   C87   S    
O21   S1    D    
C15   C94   A    
C88   C101  A    
O24   S5    D    
C83   S3    S    
C34   I5    S    
C44   C64   A    
O59   S4    S    
C30   C38   A    
C22   C101  A    
C46   C62   A    
Cr3   O56   S    
C18   C24   A    
C84   C97   A    
C76   O11   A    
C28   C68   A    
C8    C99   A    
H25   O42   S    
O37   S9    D    
Cr5   O3    S    
C89   C102  A    
H24   O39   S    
O36   S8    S    
C87   O4    A    
C66   C82   A    
C51   H31   S    
C61   C80   A    
O27   S6    D    
C32   O1    A    
C28   I10   S    
C33   C36   A    
O49   S12   S    
O58   S4    D    
Cr1   O34   S    
Cr3   O10   S    
C59   C89   A    
C89   S9    S    
C12   O62   A    
C21   C64   S    
O42   S10   S    
O51   S2    D    
Cr1   O5    S    
H19   O26   S    
Cr2   O6    S    
C8    H14   S    
C30   I3    S    
Cr5   O61   S    
O32   S7    S    
C6    C94   A    
C40   C67   A    
C20   C73   A    
C6    C107  A    
C49   C75   A    
C44   C70   A    
Cr2   O45   S    
C51   C57   A    
C2    O15   A    
Cr2   O18   S    
O57   S4    D    
C52   C79   A    
C86   C100  A    
C91   C104  A    
C14   C93   A    
C13   C53   S    
C33   C72   A    
C3    H8    S    
Cr5   O13   S    
C65   O34   A    
O50   S2    D    
Cr2   O9    S    
C50   H32   S    
C31   C71   A    
Cr5   O16   S    
C28   C34   A    
C17   C70   A    
C59   C76   S    
C23   C102  A    
C80   S11   S    
C90   S8    S    
C19   C72   A    
C15   C20   A    
C35   I1    S    
O22   S1    S    
C7    C93   A    
H26   O46   S    
C26   C105  A    
C30   C70   A    
C43   O8    A    
Cr6   O4    S    
C41   C68   A    
C29   C69   A    
Cr2   O12   S    
C16   C26   A    
C48   C53   A    
Cr4   O2    S    
C62   C85   A    
Cr5   O19   S    
Cr3   O23   S    
O54   S3    D    
C65   O10   A    
C25   C78   A    
C50   C58   A    
C48   C74   A    
O43   S11   D    
O38   S9    D    
H28   O52   S    
O41   S10   D    
Cr1   O1    S    
C23   C75   A    
C19   C99   A    
C42   H4    S    
C38   C78   A    
C27   C35   A    
C13   O17   A    
C82   S4    S    
C45   C63   A    
C42   C69   A    
C40   C61   A    
C31   C37   A    
C4    H9    S    
C91   S7    S    
O44   S11   D    
O28   S6    D    
C1    C66   S    
C37   I8    S    
C19   C23   A    
C10   H16   S    
C64   C83   A    
C85   C99   A    
C36   C75   A    
C5    H10   S    
O40   S10   D    
C98   O14   A    
C60   C81   A    
C24   C77   A    
O39   S9    S    
C88   S1    S    
C20   C100  A    
C10   C96   A    
C14   C67   A    
C29   C39   A    
C52   H23   S    
C7    C106  A    
C76   O3    A    
C25   C104  A    
C17   C96   A    
C105  C108  A    
C21   O6    A    
O46   S11   S    
C47   C73   A    
H30   O59   S    
C58   C90   A    
C48   H1    S    
O33   S8    D    
C18   C97   A    
O55   S3    S    
C60   C65   S    
O48   S12   D    
C21   O56   A    
O47   S12   D    
Cr3   O18   S    
C49   H33   S    
C22   C74   A    
O26   S5    S    
C50   C77   A    
C107  H6    S    
C101  C106  A    
Cr1   O8    S    
C13   O2    A    
C47   C55   A    
O35   S8    D    
C11   C95   A    
C18   C71   A    
H27   O49   S    
C5    C102  A    
C100  C107  A    
C9    C97   A    
C82   C95   A    
C57   C91   A    
C46   H36   S    
C92   S6    S    
C86   S5    S    
H22   O36   S    
C54   O9    A    
C1    O45   A    
C16   C69   A    
C41   C60   A    
Cr4   O60   S    
C11   H17   S    
C5    C8    A    
O20   S1    D    
Cr4   O19   S    
C54   C61   S    
C9    H15   S    
C32   C63   S    
Cr6   O19   S    
C87   O13   A    
C63   C84   A    
C15   C68   A    
C26   C79   A    
C49   C59   A    
C47   H12   S    
C39   I6    S    
Cr6   O62   S    
C24   C103  A    
C17   C25   A    
C38   I7    S    
C55   C86   A    
C33   I12   S    
C80   C93   A    
C51   C78   A    
C3    C10   A    
C2    C56   S    
H18   O22   S    
H21   O32   S    
C31   I2    S    
C16   C95   A    
Cr1   O18   S    
C14   C22   A    
C41   H34   S    
C83   C96   A    
C44   H3    S    
O29   S6    S    
C57   C98   S    
C98   O60   A    
Cr6   O14   S    
C2    O61   A    
C43   O12   A    
C40   H35   S    
Cr4   O11   S    
C53   C88   A    
O53   S3    D    
O52   S2    S    
Cr3   O7    S    
C90   C103  A    
C36   I9    S    
C12   C55   S    
C27   C67   A    
C34   C73   A    
C54   O23   A    
O25   S5    D    
C92   C105  A    
C56   C92   A    
C37   C77   A    
Cr6   O17   S    
C11   C108  A    
C42   C66   A    
C1    O5    A    
C81   S10   S    
Cr4   O15   S    
C46   C72   A    
O31   S7    D    
C7    H13   S    
C4    C9    A    
H29   O55   S    
C6    H11   S    
C27   I11   S    
C52   C56   A    
C43   C62   S    
C39   C79   A    
C29   I4    S    
