data_mof_unit_56075.cif
_audit_creation_date              2012-12-10T17:35:49-0500
_audit_creation_method            fapswitch 2.2
_symmetry_space_group_name_H-M    P1
_symmetry_Int_Tables_number       1
_space_group_crystal_system       triclinic
_cell_length_a                    10.7433
_cell_length_b                    12.227896
_cell_length_c                    12.938775
_cell_angle_alpha                 93.266354
_cell_angle_beta                  94.893711
_cell_angle_gamma                 88.455299
_cell_volume                      1690.37585034

loop_
_atom_site_label
_atom_site_type_symbol
_atom_type_description
_atom_site_fract_x
_atom_site_fract_y
_atom_site_fract_z
_atom_type_partial_charge
C1    C     C_R   0.498414 0.521442 0.701034 0.988574
C2    C     C_R   0.561569 0.163020 0.611809 -0.103506
C3    C     C_R   0.517443 0.867393 0.560713 0.528742
C4    C     C_R   0.471726 0.136775 0.438691 0.522784
C5    C     C_R   0.498770 0.982298 0.549249 -0.204609
C6    C     C_R   0.478858 0.020536 0.449814 -0.207998
C7    C     C_R   0.742516 0.502934 0.500861 1.022636
C8    C     C_R   0.258554 0.497626 0.503493 1.032384
C9    C     C_3   0.958432 0.422742 0.558384 -0.310942
C10   C     C_3   0.044761 0.578616 0.453604 -0.297252
C11   C     C_3   0.050665 0.510882 0.604536 0.365902
C12   C     C_R   0.513847 0.478596 0.300714 0.918896
C13   C     C_3   0.953385 0.490381 0.406689 0.356749
C14   C     C_3   0.124913 0.490299 0.509500 -0.358404
C15   C     C_3   0.877950 0.510800 0.501259 -0.346945
C16   C     C_3   0.033835 0.402487 0.462297 0.379635
C17   C     C_3   0.969473 0.598243 0.549216 0.362110
C18   C     C_R   0.549336 0.467290 0.192281 -0.156514
C19   C     C_R   0.511023 0.534242 0.815259 -0.130188
C20   C     C_R   0.529797 0.647977 0.973457 0.366915
C21   C     C_R   0.637330 0.371805 0.041328 0.397206
C22   C     C_R   0.479600 0.633239 0.870632 -0.165178
C23   C     C_R   0.568295 0.447535 0.871158 -0.112773
C24   C     C_R   0.615086 0.374668 0.148461 -0.168136
C25   C     C_2   0.665995 0.284088 0.212470 1.150076
C26   C     C_2   0.381670 0.713669 0.832814 1.097690
C27   C     C_2   0.667130 0.206226 0.681460 0.999655
C28   C     C_2   0.351706 0.771166 0.307787 0.983045
C29   C     C_R   0.529132 0.559695 0.133964 -0.107189
C30   C     C_R   0.584573 0.456145 0.980054 -0.004367
C31   C     C_R   0.547765 0.554662 0.029680 -0.031271
C32   C     C_R   0.464944 0.941054 0.366227 0.282199
C33   C     C_R   0.516023 0.060821 0.632632 0.373271
C34   C     C_R   0.433036 0.833930 0.387405 -0.063521
H1    H     H_    0.924725 0.356316 0.602427 0.268639
H2    H     H_    0.247006 0.755500 0.723298 0.400037
H3    H     H_    0.661844 0.920037 0.016841 0.421817
H4    H     H_    0.904445 0.173553 0.036212 0.412057
H5    H     H_    0.273721 0.322467 0.269056 0.384127
H6    H     H_    0.618996 0.905139 0.819708 0.431133
H7    H     H_    0.789895 0.326206 0.718478 0.382521
H8    H     H_    0.284096 0.749637 0.157664 0.364569
H9    H     H_    0.396168 0.983326 0.163908 0.408205
H10   H     H_    0.249802 0.969793 0.759311 0.408383
H11   H     H_    0.080381 0.645558 0.410597 0.293847
H12   H     H_    0.494055 0.635781 0.168183 0.210521
H13   H     H_    0.591392 0.371249 0.830525 0.219439
H14   H     H_    0.051358 0.414488 0.867213 0.415008
H15   H     H_    0.986804 0.586859 0.148153 0.413252
H16   H     H_    0.944209 0.114613 0.442597 0.408733
H17   H     H_    0.068895 0.880966 0.593137 0.402694
H18   H     H_    0.741080 0.235420 0.349989 0.385738
N1    N     N_R   0.523490 0.207800 0.519350 -0.191056
N2    N     N_R   0.476510 0.792200 0.480650 -0.191210
O1    O     O_R   0.506270 0.421700 0.658830 -0.602154
O2    O     O_2   0.096088 0.614185 0.794760 -0.228297
O3    O     O_3   0.014463 0.417183 0.794554 -0.504118
O4    O     O_2   0.902784 0.395772 0.215114 -0.215938
O5    O     O_2   0.787887 0.566218 0.260259 -0.271742
O6    O     O_3   0.019618 0.577689 0.221122 -0.515951
O7    O     O_2   0.058139 0.240304 0.313308 -0.172805
O8    O     O_2   0.166896 0.214853 0.486645 -0.198804
O9    O     O_3   0.928335 0.192543 0.463707 -0.556617
O10   O     O_2   0.849708 0.788886 0.517217 -0.212064
O11   O     O_2   0.922699 0.752579 0.698935 -0.146956
O12   O     O_R   0.493730 0.578300 0.341170 -0.621104
O13   O     O_3   0.086030 0.802789 0.573843 -0.547756
O14   O     O_2   0.664614 0.190022 0.175297 -0.447841
O15   O     O_R   0.718946 0.305145 0.313503 -0.748641
O16   O     O_2   0.357053 0.794309 0.888483 -0.517580
O17   O     O_R   0.312606 0.696084 0.737305 -0.727705
O18   O     O_2   0.730076 0.721782 0.094306 -0.191098
O19   O     O_2   0.731707 0.734545 0.907396 -0.219283
O20   O     O_3   0.588869 0.871646 0.005475 -0.417624
O21   O     O_2   0.671184 0.176527 0.943953 -0.203731
O22   O     O_2   0.806726 0.324032 0.902663 -0.298440
O23   O     O_R   0.491200 0.609310 0.646410 -0.557975
O24   O     O_3   0.857741 0.231706 0.074137 -0.447644
O25   O     O_2   0.444558 0.183587 0.236021 -0.299466
O26   O     O_2   0.272076 0.096521 0.304158 -0.253325
O27   O     O_3   0.299465 0.301922 0.340886 -0.479384
O28   O     O_2   0.679408 0.719787 0.657782 -0.212234
O29   O     O_2   0.733597 0.911617 0.666499 -0.248664
O30   O     O_3   0.561868 0.855072 0.777210 -0.489279
O31   O     O_2   0.720523 0.147324 0.745255 -0.503055
O32   O     O_R   0.713044 0.309362 0.670396 -0.773617
O33   O     O_2   0.282603 0.702339 0.333709 -0.576480
O34   O     O_R   0.508800 0.390690 0.353590 -0.575312
O35   O     O_R   0.345446 0.796432 0.203494 -0.786321
O36   O     O_2   0.667578 0.025674 0.299030 -0.238955
O37   O     O_2   0.620298 0.837086 0.243165 -0.197095
O38   O     O_3   0.485991 0.990073 0.154769 -0.362882
O39   O     O_2   0.326225 0.166368 0.717017 -0.237190
O40   O     O_2   0.474009 0.069387 0.835133 -0.188674
O41   O     O_3   0.316735 0.954574 0.712015 -0.528340
O42   O     O_R   0.693580 0.406210 0.506230 -0.557180
O43   O     O_R   0.306420 0.593790 0.493770 -0.563263
O44   O     O_R   0.678510 0.593830 0.493810 -0.560868
O45   O     O_R   0.321490 0.406170 0.506190 -0.533051
O46   O     O_2   0.236701 0.460977 0.747979 -0.305029
S1    S     S_3+6 0.104140 0.503611 0.738886 0.089258
S2    S     S_3+6 0.407524 0.064962 0.728238 0.108791
S3    S     S_3+6 0.910939 0.505508 0.272054 0.091014
S4    S     S_3+6 0.051335 0.259304 0.428368 0.137773
S5    S     S_3+6 0.951974 0.739336 0.587462 0.136586
S6    S     S_3+6 0.650213 0.744331 0.996463 0.134093
S7    S     S_3+6 0.743972 0.274153 0.987141 0.099484
S8    S     S_3+6 0.371971 0.180077 0.328750 0.108624
S9    S     S_3+6 0.627089 0.833967 0.665075 0.132232
S10   S     S_3+6 0.563730 0.948707 0.264620 0.155148
Zn1   Zn    Zn3+2 0.510060 0.374730 0.508290 1.111525
Zn2   Zn    Zn3+2 0.489940 0.625270 0.491710 1.128875

loop_
_geom_bond_atom_site_label_1
_geom_bond_atom_site_label_2
_ccdc_geom_bond_type
C6    C32   A    
H3    O20   S    
O21   S7    D    
H16   O9    S    
C7    O44   A    
C4    N1    A    
C27   O32   S    
C1    O23   A    
H6    O30   S    
H14   O3    S    
C7    O42   A    
C4    S8    S    
H15   O6    S    
C32   S10   S    
C18   C24   A    
O37   S10   D    
C9    C16   S    
O2    S1    D    
C30   C31   A    
C3    N2    A    
C10   C17   S    
C27   O31   D    
H18   O15   S    
O34   Zn1   S    
C16   S4    S    
C5    C33   A    
O29   S9    D    
C28   O35   S    
C13   S3    S    
O6    S3    S    
C20   S6    S    
O41   S2    S    
N1    Zn1   S    
C7    C15   S    
O27   S8    S    
C28   C34   S    
C26   O17   S    
C25   O14   D    
C28   O33   D    
O11   S5    D    
O8    S4    D    
O42   Zn1   S    
C1    C19   S    
C23   H13   S    
C12   O34   A    
C33   S2    S    
O28   S9    D    
O10   S5    D    
O7    S4    D    
O44   Zn2   S    
C24   C25   S    
H5    O27   S    
C4    C6    A    
C10   C14   S    
O43   Zn2   S    
O13   S5    S    
H4    O24   S    
C12   O12   A    
C10   C13   S    
O24   S7    S    
C32   C34   A    
O23   Zn2   S    
C19   C23   A    
C8    O43   A    
C23   C30   A    
H7    O32   S    
C17   S5    S    
O20   S6    S    
O45   Zn1   S    
C19   C22   A    
C10   H11   S    
N2    Zn2   S    
C11   S1    S    
C18   C29   A    
H17   O13   S    
C9    C11   S    
C2    C27   S    
C2    C33   A    
C21   S7    S    
C20   C22   A    
C34   N2    A    
O22   S7    D    
C13   C15   S    
C26   O16   D    
C14   C16   S    
C21   C24   A    
C25   O15   S    
O36   S10   D    
C15   C17   S    
C11   C17   S    
C8    C14   S    
O1    Zn1   S    
C8    O45   A    
O30   S9    S    
O18   S6    D    
O9    S4    S    
C3    C5    A    
C2    N1    A    
O39   S2    D    
H2    O17   S    
O3    S1    S    
C21   C30   A    
O26   S8    D    
H9    O38   S    
C29   H12   S    
H8    O35   S    
O5    S3    D    
C1    O1    A    
C29   C31   A    
H10   O41   S    
O38   S10   S    
O19   S6    D    
C5    C6    A    
C3    S9    S    
O46   S1    D    
C11   C14   S    
O25   S8    D    
C9    C15   S    
O40   S2    D    
C22   C26   S    
C13   C16   S    
C12   C18   S    
C9    H1    S    
O4    S3    D    
O12   Zn2   S    
C20   C31   A    
