data_mof_unit_14755.cif
_audit_creation_date              2012-12-10T19:13:22-0500
_audit_creation_method            fapswitch 2.2
_symmetry_space_group_name_H-M    P1
_symmetry_Int_Tables_number       1
_space_group_crystal_system       triclinic
_cell_length_a                    9.679104
_cell_length_b                    10.654994
_cell_length_c                    16.822231
_cell_angle_alpha                 90.134366
_cell_angle_beta                  86.153936
_cell_angle_gamma                 89.890295
_cell_volume                      1730.97435614

loop_
_atom_site_label
_atom_site_type_symbol
_atom_type_description
_atom_site_fract_x
_atom_site_fract_y
_atom_site_fract_z
_atom_type_partial_charge
C1    C     C_R   0.499979 0.742146 0.497091 0.923097
C2    C     C_R   0.344919 0.439218 0.782732 0.263735
C3    C     C_R   0.413452 0.456795 0.138435 -0.001448
C4    C     C_R   0.408827 0.488430 0.218697 -0.185762
C5    C     C_R   0.651257 0.432361 0.223610 -0.217946
C6    C     C_R   0.657256 0.399251 0.143733 0.306293
C7    C     C_R   0.538059 0.409725 0.100861 0.052901
C8    C     C_2   0.461709 0.323323 0.975353 -0.151744
C9    C     C_2   0.552420 0.389513 0.015159 -0.157193
C10   C     C_R   0.527210 0.476143 0.261391 -0.088566
C11   C     C_3   0.368185 0.928466 0.455026 -0.205128
C12   C     C_R   0.482047 0.495794 0.654078 0.979688
C13   C     C_3   0.373214 0.073290 0.451562 0.067935
C14   C     C_3   0.494391 0.926021 0.584541 0.019104
C15   C     C_3   0.631455 0.927814 0.450577 -0.460392
C16   C     C_3   0.497561 0.878446 0.496509 -0.022543
C17   C     C_3   0.499087 0.121419 0.497402 -0.036829
C18   C     C_3   0.487857 0.072660 0.586256 -0.115133
C19   C     C_3   0.634362 0.070864 0.453101 -0.387986
C20   C     C_3   0.912653 0.611199 0.544699 -0.217464
C21   C     C_3   0.075277 0.613556 0.543743 -0.201823
C22   C     C_3   0.916011 0.385672 0.538718 -0.214925
C23   C     C_R   0.500397 0.257883 0.497012 0.912920
C24   C     C_3   0.927535 0.505682 0.419372 -0.237801
C25   C     C_3   0.078166 0.388818 0.540042 -0.216643
C26   C     C_3   0.090387 0.505939 0.418973 -0.242358
C27   C     C_R   0.518001 0.497551 0.346819 0.921065
C28   C     C_R   0.474159 0.458466 0.739109 -0.207189
C29   C     C_R   0.596510 0.421756 0.774960 0.242235
C30   C     C_R   0.588256 0.354808 0.845323 -0.150412
C31   C     C_R   0.462050 0.341844 0.889264 0.051873
C32   C     C_R   0.340443 0.381398 0.857203 -0.152461
H1    H     H_    0.273265 0.901904 0.492160 0.149188
H2    H     H_    0.274801 0.107939 0.481989 0.129070
H3    H     H_    0.725714 0.891904 0.477556 0.187235
H4    H     H_    0.636733 0.895009 0.387578 0.206593
H5    H     H_    0.646969 0.108280 0.391380 0.225145
H6    H     H_    0.312908 0.523422 0.247787 0.161182
H7    H     H_    0.727201 0.101493 0.483544 0.184178
H8    H     H_    0.592903 0.893609 0.608733 0.154835
H9    H     H_    0.867571 0.612638 0.606885 0.217355
H10   H     H_    0.876583 0.698863 0.516923 0.144335
H11   H     H_    0.114184 0.701525 0.514772 0.152371
H12   H     H_    0.108066 0.616866 0.605544 0.230681
H13   H     H_    0.868486 0.374089 0.599772 0.215656
H14   H     H_    0.108339 0.383300 0.602412 0.208969
H15   H     H_    0.893571 0.424173 0.384167 0.160166
H16   H     H_    0.743069 0.421182 0.256383 0.174542
H17   H     H_    0.892107 0.591207 0.388737 0.158707
H18   H     H_    0.132064 0.590621 0.387140 0.154478
H19   H     H_    0.132737 0.423392 0.384709 0.183364
H20   H     H_    0.885301 0.301178 0.505236 0.145830
H21   H     H_    0.121704 0.303686 0.509321 0.159672
H22   H     H_    0.635697 0.441333 0.983707 0.197580
H23   H     H_    0.242958 0.375787 0.892690 0.195963
H24   H     H_    0.374921 0.276254 0.006818 0.179938
H25   H     H_    0.683289 0.326296 0.870867 0.201308
N1    N     N_3   0.861190 0.500250 0.501720 -0.052789
N2    N     N_3   0.138550 0.503270 0.501080 -0.058628
O1    O     O_R   0.383960 0.685090 0.500020 -0.612179
O2    O     O_R   0.616040 0.685320 0.499960 -0.641359
O3    O     O_R   0.370240 0.499890 0.615830 -0.579720
O4    O     O_R   0.602330 0.500120 0.615770 -0.588898
O5    O     O_R   0.383960 0.314680 0.500040 -0.628169
O6    O     O_R   0.616040 0.314910 0.499980 -0.635948
O7    O     O_R   0.397670 0.499880 0.384230 -0.619168
O8    O     O_R   0.629760 0.500110 0.384170 -0.641242
Zn1   Zn    Zn3+2 0.345040 0.499850 0.500040 0.961479
Zn2   Zn    Zn3+2 0.654960 0.500150 0.499960 0.936600
Br1   Br    Br    0.779690 0.478404 0.743454 -0.478687
Br2   Br    Br    0.830651 0.338498 0.095861 -0.475748
C33   C     C_1   0.354224 0.869563 0.376017 0.259529
N3    N     N_1   0.343319 0.822875 0.314558 -0.185657
Br3   Br    Br    0.371845 0.145869 0.343500 -0.528533
Br4   Br    Br    0.352176 0.842740 0.655821 -0.478031
C34   C     C_1   0.359126 0.120127 0.628955 0.228274
N4    N     N_1   0.258848 0.157724 0.662225 -0.157134
C35   C     C_1   0.603135 0.120784 0.631386 0.152947
N5    N     N_1   0.693267 0.158183 0.666562 -0.164032
C36   C     C_1   0.291419 0.480336 0.095631 0.199568
N6    N     N_1   0.193636 0.499324 0.061477 -0.126977
Br5   Br    Br    0.171667 0.504376 0.752185 -0.432938

loop_
_geom_bond_atom_site_label_1
_geom_bond_atom_site_label_2
_ccdc_geom_bond_type
C10   C27   S    
O7    Zn1   S    
C14   C18   S    
C8    H24   S    
C20   H9    S    
C15   C19   S    
C17   C23   S    
C12   C28   S    
O5    Zn1   S    
C28   C29   A    
C24   C26   S    
C21   N2    S    
C3    C7    A    
C26   H18   S    
C5    C6    A    
C15   C16   S    
C30   H25   S    
C2    C32   A    
C19   H5    S    
C21   H11   S    
O4    Zn2   S    
C8    C9    D    
C22   C25   S    
C26   N2    S    
C32   H23   S    
C8    C31   S    
C3    C36   S    
C15   H3    S    
C6    Br2   S    
C5    H16   S    
C11   H1    S    
C34   N4    T    
C1    O1    A    
C12   O4    A    
C35   N5    T    
C33   N3    T    
O8    Zn2   S    
C29   C30   A    
N2    Zn1   S    
C21   H12   S    
C12   O3    A    
C11   C16   S    
C31   C32   A    
C18   C35   S    
C17   C18   S    
C1    C16   S    
C20   C21   S    
C19   H7    S    
C23   O5    A    
C4    H6    S    
C14   C16   S    
C2    Br5   S    
C4    C10   A    
C3    C4    A    
C15   H4    S    
C22   H20   S    
C29   Br1   S    
O2    Zn2   S    
C24   H17   S    
C7    C9    S    
C18   C34   S    
C11   C33   S    
C24   H15   S    
C25   H21   S    
C36   N6    T    
C1    O2    A    
C22   N1    S    
C20   H10   S    
N1    Zn2   S    
C6    C7    A    
O3    Zn1   S    
C13   C17   S    
C14   Br4   S    
C23   O6    A    
C13   H2    S    
C27   O7    A    
C26   H19   S    
C11   C13   S    
C30   C31   A    
O6    Zn2   S    
C17   C19   S    
C27   O8    A    
C14   H8    S    
C5    C10   A    
C22   H13   S    
C13   Br3   S    
O1    Zn1   S    
C24   N1    S    
C2    C28   A    
C9    H22   S    
C25   N2    S    
C20   N1    S    
C25   H14   S    
