data_mof_unit_8743.cif
_audit_creation_date              2013-03-05T15:50:12-0500
_audit_creation_method            fapswitch 2.2
_symmetry_space_group_name_H-M    P1
_symmetry_Int_Tables_number       1
_space_group_crystal_system       triclinic
_cell_length_a                    18.399899
_cell_length_b                    25.828362
_cell_length_c                    18.360174
_cell_angle_alpha                 89.777618
_cell_angle_beta                  89.869862
_cell_angle_gamma                 90.16215
_cell_volume                      8725.35197115

loop_
_atom_site_label
_atom_site_type_symbol
_atom_site_description
_atom_site_fract_x
_atom_site_fract_y
_atom_site_fract_z
_atom_type_partial_charge
Zn1   Zn    Zn3+2 0.249990 0.293780 0.913250 0.974453
Zn2   Zn    Zn3+2 0.249990 0.706220 0.086750 1.001380
Zn3   Zn    Zn3+2 0.249990 0.706220 0.913250 0.995185
Zn4   Zn    Zn3+2 0.249990 0.293780 0.086750 0.972668
Zn5   Zn    Zn3+2 0.749990 0.793780 0.413250 0.975933
Zn6   Zn    Zn3+2 0.749990 0.206220 0.586750 0.975046
Zn7   Zn    Zn3+2 0.749990 0.206220 0.413250 0.971152
Zn8   Zn    Zn3+2 0.749990 0.793780 0.586750 0.992740
Zn9   Zn    Zn3+2 0.336760 0.206240 0.000000 0.998400
Zn10  Zn    Zn3+2 0.336760 0.793760 0.000000 0.997204
Zn11  Zn    Zn3+2 0.836760 0.706240 0.500000 1.008514
Zn12  Zn    Zn3+2 0.836760 0.293760 0.500000 1.000141
Zn13  Zn    Zn3+2 0.163250 0.206230 0.000000 0.994852
Zn14  Zn    Zn3+2 0.163250 0.793770 0.000000 1.000824
Zn15  Zn    Zn3+2 0.663250 0.706230 0.500000 1.009707
Zn16  Zn    Zn3+2 0.663250 0.293770 0.500000 0.993398
O1    O     O_3   0.249990 0.250010 0.000000 -0.503210
O2    O     O_3   0.249990 0.749990 0.000000 -0.511910
O3    O     O_3   0.749990 0.750010 0.500000 -0.509212
O4    O     O_3   0.749990 0.249990 0.500000 -0.502659
O5    O     O_R   0.335430 0.280650 0.146160 -0.633989
O6    O     O_R   0.335430 0.719350 0.853840 -0.626680
O7    O     O_R   0.335430 0.719350 0.146160 -0.623784
O8    O     O_R   0.335430 0.280650 0.853840 -0.630303
O9    O     O_R   0.835430 0.780650 0.646160 -0.623663
O10   O     O_R   0.835430 0.219350 0.353840 -0.632414
O11   O     O_R   0.835430 0.219350 0.646160 -0.633992
O12   O     O_R   0.835430 0.780650 0.353840 -0.640482
O13   O     O_R   0.164550 0.280640 0.853840 -0.637610
O14   O     O_R   0.164550 0.719360 0.146160 -0.615332
O15   O     O_R   0.164550 0.719360 0.853840 -0.624355
O16   O     O_R   0.164550 0.280640 0.146160 -0.636403
O17   O     O_R   0.664550 0.780640 0.353840 -0.642075
O18   O     O_R   0.664550 0.219360 0.646160 -0.637094
O19   O     O_R   0.664550 0.219360 0.353840 -0.636374
O20   O     O_R   0.664550 0.780640 0.646160 -0.633266
O21   O     O_R   0.396160 0.219380 0.914560 -0.630660
O22   O     O_R   0.396160 0.780620 0.085440 -0.633632
O23   O     O_R   0.396160 0.780620 0.914560 -0.619009
O24   O     O_R   0.396160 0.219380 0.085440 -0.631132
O25   O     O_R   0.896160 0.719380 0.414560 -0.611323
O26   O     O_R   0.896160 0.280620 0.585440 -0.636300
O27   O     O_R   0.896160 0.280620 0.414560 -0.628773
O28   O     O_R   0.896160 0.719380 0.585440 -0.621529
O29   O     O_R   0.103840 0.219370 0.085450 -0.631571
O30   O     O_R   0.103840 0.780630 0.914550 -0.624066
O31   O     O_R   0.103840 0.780630 0.085450 -0.634761
O32   O     O_R   0.103840 0.219370 0.914550 -0.632775
O33   O     O_R   0.603840 0.719370 0.585450 -0.617706
O34   O     O_R   0.603840 0.280630 0.414550 -0.635976
O35   O     O_R   0.603840 0.280630 0.585450 -0.624468
O36   O     O_R   0.603840 0.719370 0.414550 -0.627372
O37   O     O_R   0.310730 0.133160 0.000000 -0.619789
O38   O     O_R   0.310730 0.866840 0.000000 -0.633842
O39   O     O_R   0.810730 0.633160 0.500000 -0.630858
O40   O     O_R   0.810730 0.366840 0.500000 -0.620779
O41   O     O_R   0.249970 0.366860 0.060720 -0.642739
O42   O     O_R   0.249970 0.633140 0.939280 -0.639255
O43   O     O_R   0.249970 0.633140 0.060720 -0.635089
O44   O     O_R   0.249970 0.366860 0.939280 -0.642892
O45   O     O_R   0.749970 0.866860 0.560720 -0.639294
O46   O     O_R   0.749970 0.133140 0.439280 -0.644194
O47   O     O_R   0.749970 0.133140 0.560720 -0.643823
O48   O     O_R   0.749970 0.866860 0.439280 -0.637852
O49   O     O_R   0.189290 0.133150 0.000000 -0.615733
O50   O     O_R   0.189290 0.866850 0.000000 -0.613475
O51   O     O_R   0.689290 0.633150 0.500000 -0.617588
O52   O     O_R   0.689290 0.366850 0.500000 -0.620241
C1    C     C_R   0.389451 0.249372 0.140166 0.779330
C2    C     C_R   0.389224 0.750501 0.859585 0.782753
C3    C     C_R   0.390209 0.749694 0.139516 0.779221
C4    C     C_R   0.389494 0.249416 0.859643 0.781136
C5    C     C_R   0.889383 0.749746 0.640274 0.779167
C6    C     C_R   0.889586 0.250537 0.359947 0.782427
C7    C     C_R   0.889359 0.251000 0.640493 0.785323
C8    C     C_R   0.889976 0.750466 0.360251 0.781741
C9    C     C_R   0.110363 0.249512 0.859846 0.777826
C10   C     C_R   0.110239 0.749854 0.139788 0.777455
C11   C     C_R   0.110426 0.750161 0.859986 0.777202
C12   C     C_R   0.110419 0.249393 0.140131 0.774877
C13   C     C_R   0.609643 0.750315 0.360503 0.775134
C14   C     C_R   0.610004 0.249582 0.639462 0.777527
C15   C     C_R   0.610554 0.250852 0.359654 0.774274
C16   C     C_R   0.610775 0.749369 0.640378 0.783192
C17   C     C_R   0.249852 0.109513 0.001587 0.781710
C18   C     C_R   0.250370 0.890650 0.999697 0.787981
C19   C     C_R   0.750008 0.609360 0.499844 0.784237
C20   C     C_R   0.750136 0.390487 0.500222 0.782320
C21   C     C_R   0.248818 0.391317 0.000061 0.758074
C22   C     C_R   0.249075 0.608665 0.000252 0.769533
C23   C     C_R   0.749412 0.891347 0.500020 0.766450
C24   C     C_R   0.749244 0.108684 0.500203 0.757499
C25   C     C_3   0.247624 0.470005 0.079945 -0.340555
C26   C     C_3   0.180238 0.529991 0.959996 -0.363911
C27   C     C_3   0.245929 0.529494 0.080124 -0.344377
C28   C     C_3   0.178933 0.470008 0.961639 -0.401202
C29   C     C_3   0.746927 0.970068 0.579722 -0.340399
C30   C     C_3   0.680811 0.029991 0.459860 -0.395112
C31   C     C_3   0.746620 0.029548 0.579840 -0.344672
C32   C     C_3   0.680928 0.970041 0.459744 -0.379675
H1    H     H_    0.297014 0.456480 0.109162 0.237159
H2    H     H_    0.181012 0.543613 0.902419 0.198153
H3    H     H_    0.293312 0.544230 0.111547 0.219246
H4    H     H_    0.176236 0.455093 0.904913 0.189968
H5    H     H_    0.795212 0.956055 0.610405 0.235119
H6    H     H_    0.680507 0.044471 0.402686 0.193722
H7    H     H_    0.794562 0.043830 0.610756 0.238874
H8    H     H_    0.680697 0.955993 0.402519 0.199006
H9    H     H_    0.199461 0.454935 0.110220 0.185694
H10   H     H_    0.129788 0.545159 0.985598 0.209702
H11   H     H_    0.195750 0.542875 0.108261 0.203097
H12   H     H_    0.129219 0.456267 0.990540 0.176898
H13   H     H_    0.697591 0.955530 0.608563 0.184645
H14   H     H_    0.630336 0.044212 0.486548 0.161050
H15   H     H_    0.697015 0.043469 0.608479 0.180288
H16   H     H_    0.630521 0.955338 0.486415 0.166426
H17   H     H_    0.247149 0.903384 0.137471 0.107623
H18   H     H_    0.248051 0.095032 0.139063 0.085666
H19   H     H_    0.730079 0.403938 0.364818 0.096792
H20   H     H_    0.717630 0.595270 0.365799 0.136065
H21   H     H_    0.365802 0.454404 0.985323 0.234661
H22   H     H_    0.322233 0.545806 0.907167 0.217099
H23   H     H_    0.365823 0.542753 0.994686 0.229508
H24   H     H_    0.313843 0.457828 0.902666 0.221779
H25   H     H_    0.866718 0.956332 0.491585 0.254350
H26   H     H_    0.820593 0.044794 0.405477 0.208542
H27   H     H_    0.866573 0.044631 0.491583 0.248320
H28   H     H_    0.821027 0.956332 0.405343 0.207840
C33   C     C_3   0.315477 0.470332 0.960529 -0.301197
C34   C     C_3   0.317296 0.530006 0.963451 -0.310495
C35   C     C_3   0.817829 0.970487 0.462436 -0.306988
C36   C     C_3   0.817676 0.030258 0.462555 -0.312277
C37   C     C_3   0.247640 0.449083 0.000601 0.098874
C38   C     C_3   0.247982 0.550877 0.000911 0.084232
C39   C     C_3   0.748690 0.949153 0.500398 0.095163
C40   C     C_3   0.748500 0.050935 0.500642 0.106280
C41   C     C_R   0.043138 0.344746 0.816310 -0.206128
C42   C     C_R   0.104919 0.830811 0.245647 -0.150306
C43   C     C_R   0.998990 0.672601 0.859852 -0.212390
C44   C     C_R   0.034046 0.342965 0.174340 -0.211421
C45   C     C_R   0.646160 0.728585 0.211351 -0.177545
C46   C     C_R   0.531770 0.156561 0.673576 -0.215449
C47   C     C_R   0.537590 0.156325 0.321385 -0.210983
C48   C     C_R   0.506099 0.830970 0.646100 -0.168299
C49   C     C_R   0.021603 0.392183 0.788122 -0.188853
C50   C     C_R   0.102074 0.871290 0.295274 -0.110943
C51   C     C_R   0.939389 0.639886 0.867941 -0.142241
C52   C     C_R   0.002482 0.389678 0.194080 -0.193276
C53   C     C_R   0.665734 0.720084 0.139196 -0.130938
C54   C     C_R   0.503278 0.109418 0.696562 -0.193236
C55   C     C_R   0.508450 0.109260 0.299322 -0.204313
C56   C     C_R   0.447776 0.864626 0.638058 -0.127778
C57   C     C_R   0.613468 0.721252 0.084358 0.358007
C58   C     C_R   0.457585 0.107116 0.757116 0.370966
C59   C     C_R   0.459704 0.107330 0.241473 0.369677
C60   C     C_R   0.385632 0.858480 0.681116 0.390500
C61   C     C_R   0.977087 0.394218 0.727017 0.357401
C62   C     C_R   0.047561 0.872854 0.348281 0.374924
C63   C     C_R   0.879569 0.644678 0.821770 0.339176
C64   C     C_R   0.952492 0.391603 0.251207 0.366265
C65   C     C_R   0.540738 0.730293 0.103251 -0.217648
C66   C     C_R   0.435155 0.153355 0.789996 -0.249166
C67   C     C_R   0.437541 0.153685 0.208593 -0.243284
C68   C     C_R   0.386597 0.822764 0.738931 -0.225637
C69   C     C_R   0.948835 0.347960 0.698938 -0.248457
C70   C     C_R   0.996569 0.832382 0.351856 -0.231361
C71   C     C_R   0.883464 0.678911 0.762346 -0.234692
C72   C     C_R   0.932076 0.345347 0.285999 -0.238398
C73   C     C_R   0.519757 0.740615 0.176256 0.021200
C74   C     C_R   0.465516 0.201858 0.769132 0.022995
C75   C     C_R   0.468160 0.202160 0.228681 0.021813
C76   C     C_R   0.445443 0.788296 0.748015 0.027034
C77   C     C_R   0.972672 0.298802 0.724666 0.025706
C78   C     C_R   0.998083 0.791066 0.301422 0.024549
C79   C     C_R   0.943364 0.712705 0.753354 0.032735
C80   C     C_R   0.965509 0.297444 0.268518 0.017908
C81   C     C_R   0.023734 0.297607 0.781893 0.083629
C82   C     C_R   0.052770 0.790488 0.247339 0.098246
C83   C     C_R   0.000108 0.711213 0.805091 0.079444
C84   C     C_R   0.018495 0.296554 0.212879 0.084623
C85   C     C_R   0.573495 0.740253 0.231034 0.067458
C86   C     C_R   0.517285 0.202746 0.712281 0.080686
C87   C     C_R   0.520667 0.203183 0.284622 0.085892
C88   C     C_R   0.503395 0.790132 0.697572 0.105982
C89   C     C_R   0.446299 0.750013 0.195673 -0.077253
C90   C     C_R   0.446667 0.249049 0.804210 -0.088505
C91   C     C_R   0.446631 0.249390 0.195276 -0.089737
C92   C     C_R   0.445179 0.749912 0.803131 -0.062643
C93   C     C_R   0.947132 0.251177 0.695096 -0.093735
C94   C     C_R   0.945458 0.750983 0.303196 -0.067408
C95   C     C_R   0.945078 0.750258 0.697026 -0.066307
C96   C     C_R   0.946780 0.250632 0.304815 -0.086995
C97   C     C_R   0.426080 0.758917 0.269045 0.037096
C98   C     C_R   0.485971 0.295253 0.789358 0.036329
C99   C     C_R   0.477926 0.297173 0.216294 0.028764
C100  C     C_R   0.495529 0.708752 0.801224 0.053683
C101  C     C_R   0.976889 0.203276 0.717935 0.031174
C102  C     C_R   0.944071 0.712539 0.248555 0.033509
C103  C     C_R   0.996466 0.791007 0.698734 0.032142
C104  C     C_R   0.982183 0.203577 0.287918 0.035790
C105  C     C_R   0.029055 0.202258 0.773895 0.025560
C106  C     C_R   0.999692 0.711257 0.195651 0.025025
C107  C     C_R   0.050044 0.791500 0.753600 0.014796
C108  C     C_R   0.033647 0.202382 0.231003 0.027860
C109  C     C_R   0.479504 0.757854 0.323897 0.027272
C110  C     C_R   0.540886 0.294948 0.735602 0.029858
C111  C     C_R   0.528899 0.298447 0.273436 0.031071
C112  C     C_R   0.548175 0.707201 0.745313 0.014521
C113  C     C_R   0.053213 0.249659 0.804743 -0.101480
C114  C     C_R   0.054247 0.749903 0.196002 -0.066487
C115  C     C_R   0.054099 0.750089 0.803955 -0.074310
C116  C     C_R   0.053162 0.249317 0.195267 -0.094988
C117  C     C_R   0.553390 0.749727 0.304349 -0.087982
C118  C     C_R   0.554112 0.249336 0.695634 -0.091356
C119  C     C_R   0.552814 0.250939 0.304913 -0.099892
C120  C     C_R   0.554384 0.749416 0.696312 -0.066913
C121  C     C_R   0.353364 0.770285 0.288618 -0.272198
C122  C     C_R   0.474734 0.341190 0.829940 -0.279834
C123  C     C_R   0.459606 0.344074 0.180524 -0.273942
C124  C     C_R   0.493363 0.668323 0.853257 -0.210204
C125  C     C_R   0.957112 0.156083 0.684159 -0.268270
C126  C     C_R   0.886527 0.676405 0.244081 -0.293583
C127  C     C_R   0.993341 0.832754 0.648787 -0.262225
C128  C     C_R   0.968488 0.157667 0.328264 -0.283712
C129  C     C_R   0.332034 0.775722 0.361235 0.270545
C130  C     C_R   0.518280 0.385041 0.819057 0.258158
C131  C     C_R   0.480728 0.392054 0.207875 0.290301
C132  C     C_R   0.539494 0.625684 0.847984 0.277350
C133  C     C_R   0.979229 0.108378 0.711665 0.279470
C134  C     C_R   0.883633 0.639494 0.188545 0.289610
C135  C     C_R   0.038215 0.876211 0.656353 0.259211
C136  C     C_R   0.998628 0.110275 0.308120 0.273129
C137  C     C_R   0.028811 0.106777 0.769825 0.240933
C138  C     C_R   0.940330 0.637054 0.137004 0.283701
C139  C     C_R   0.088883 0.877794 0.713540 0.328546
C140  C     C_R   0.045662 0.108126 0.247971 0.268597
C141  C     C_R   0.384086 0.770636 0.416790 0.261198
C142  C     C_R   0.573214 0.384151 0.766429 0.274666
C143  C     C_R   0.527067 0.393971 0.268429 0.249540
C144  C     C_R   0.586893 0.621498 0.788207 0.301707
C145  C     C_R   0.056420 0.153546 0.796853 -0.276160
C146  C     C_R   0.998028 0.672393 0.141615 -0.282360
C147  C     C_R   0.096639 0.834667 0.759005 -0.225076
C148  C     C_R   0.065030 0.154116 0.212096 -0.288879
C149  C     C_R   0.457505 0.765069 0.397261 -0.277833
C150  C     C_R   0.583826 0.339862 0.724926 -0.272370
C151  C     C_R   0.554295 0.347543 0.297334 -0.290873
C152  C     C_R   0.592721 0.662974 0.739077 -0.221041
H29   H     H_    0.075828 0.345996 0.865050 0.159433
H30   H     H_    0.148352 0.831711 0.205813 0.126145
H31   H     H_    0.042299 0.668951 0.899314 0.151082
H32   H     H_    0.070594 0.344096 0.128227 0.157479
H33   H     H_    0.689042 0.725285 0.251170 0.170149
H34   H     H_    0.567065 0.155825 0.626443 0.151148
H35   H     H_    0.572911 0.155080 0.368244 0.158792
H36   H     H_    0.550809 0.835244 0.608163 0.134485
H37   H     H_    0.041280 0.427364 0.813304 0.182831
H38   H     H_    0.142282 0.901805 0.291628 0.176938
H39   H     H_    0.938643 0.612555 0.912680 0.232789
H40   H     H_    0.017719 0.424492 0.164683 0.190309
H41   H     H_    0.722169 0.712594 0.126276 0.204677
H42   H     H_    0.519256 0.074448 0.668473 0.178864
H43   H     H_    0.524728 0.074168 0.327258 0.179565
H44   H     H_    0.449310 0.893040 0.594571 0.176371
H45   H     H_    0.501067 0.728315 0.060125 0.180280
H46   H     H_    0.395180 0.150109 0.832804 0.179313
H47   H     H_    0.395524 0.150718 0.168003 0.179435
H48   H     H_    0.339247 0.820047 0.773849 0.144143
H49   H     H_    0.908801 0.351934 0.656705 0.186948
H50   H     H_    0.955291 0.833832 0.393830 0.159899
H51   H     H_    0.837582 0.680869 0.725665 0.148936
H52   H     H_    0.889802 0.347709 0.326626 0.180192
H53   H     H_    0.311898 0.776037 0.247812 0.177116
H54   H     H_    0.434127 0.343287 0.872454 0.177017
H55   H     H_    0.426395 0.344539 0.132109 0.188732
H56   H     H_    0.455873 0.669274 0.898765 0.155535
H57   H     H_    0.922997 0.154991 0.636451 0.190130
H58   H     H_    0.842379 0.676881 0.283155 0.162126
H59   H     H_    0.954018 0.833180 0.605028 0.170913
H60   H     H_    0.933366 0.157617 0.375552 0.179641
H61   H     H_    0.099821 0.150608 0.835857 0.201834
H62   H     H_    0.039945 0.670539 0.100272 0.169909
H63   H     H_    0.137457 0.836721 0.801240 0.173138
H64   H     H_    0.105653 0.151004 0.169913 0.191280
H65   H     H_    0.496701 0.765154 0.440764 0.203287
H66   H     H_    0.628046 0.340892 0.686053 0.170123
H67   H     H_    0.595076 0.351284 0.338956 0.199083
H68   H     H_    0.631919 0.659745 0.695339 0.177337
H69   H     H_    0.250037 0.046254 0.252780 0.149000
H70   H     H_    0.249197 0.950667 0.252023 0.150823
H71   H     H_    0.696486 0.546447 0.254232 0.220723
H72   H     H_    0.707461 0.451611 0.252916 0.155563
C153  C     C_R   0.257276 0.055388 0.867549 -0.069677
C154  C     C_R   0.275725 0.948369 0.868025 -0.094173
C155  C     C_R   0.786425 0.553210 0.629575 -0.095054
C156  C     C_R   0.778892 0.445498 0.631280 -0.065950
C157  C     C_R   0.269408 0.029449 0.802485 -0.011354
C158  C     C_R   0.281409 0.976434 0.803212 0.069742
C159  C     C_R   0.801624 0.525807 0.693234 0.044461
C160  C     C_R   0.796572 0.472209 0.694479 0.034643
C161  C     C_R   0.260697 0.973785 0.934446 0.071360
C162  C     C_R   0.255351 0.028068 0.934605 0.108853
C163  C     C_R   0.765576 0.472412 0.565299 0.089423
C164  C     C_R   0.767559 0.526861 0.564769 0.073790
C165  C     C_R   0.252069 0.946434 0.000639 -0.108888
C166  C     C_R   0.249578 0.053955 0.001619 -0.092720
C167  C     C_R   0.750593 0.446032 0.500033 -0.094494
C168  C     C_R   0.750394 0.553585 0.499787 -0.103971
C169  C     C_R   0.248231 0.972441 0.068024 0.082464
C170  C     C_R   0.248209 0.026947 0.068525 0.097581
C171  C     C_R   0.737657 0.472541 0.434194 0.105928
C172  C     C_R   0.735776 0.526991 0.434311 0.060022
C173  C     C_R   0.247155 0.945267 0.135189 -0.142487
C174  C     C_R   0.247920 0.053184 0.136097 -0.052728
C175  C     C_R   0.727689 0.445740 0.367781 -0.059748
C176  C     C_R   0.720727 0.553469 0.368371 -0.133471
C177  C     C_R   0.248302 0.971866 0.201095 -0.038349
C178  C     C_R   0.248996 0.025684 0.201535 0.031485
C179  C     C_R   0.715058 0.472585 0.303279 -0.016377
C180  C     C_R   0.709732 0.526179 0.303938 0.048108
H73   H     H_    0.250761 0.096984 0.864788 0.095695
H74   H     H_    0.282960 0.906845 0.865378 0.117737
H75   H     H_    0.789457 0.595013 0.631936 0.122293
H76   H     H_    0.776450 0.403689 0.634667 0.096195
H77   H     H_    0.271912 0.050781 0.751666 0.148499
H78   H     H_    0.293357 0.956969 0.752981 0.200079
H79   H     H_    0.817046 0.546112 0.741943 0.179699
H80   H     H_    0.807781 0.451147 0.744267 0.160210
N1    N     N_R   0.949138 0.062293 0.680547 0.241614
O53   O     O_R   0.907784 0.032323 0.720047 -0.332722
O54   O     O_R   0.950638 0.055978 0.610305 -0.343938
N2    N     N_R   0.822421 0.605145 0.185343 0.231191
O55   O     O_R   0.831586 0.555755 0.175364 -0.279840
O56   O     O_R   0.757556 0.622673 0.198571 -0.448836
N3    N     N_R   0.027440 0.919741 0.609175 0.262227
O57   O     O_R   0.079223 0.934461 0.565387 -0.206095
O58   O     O_R   0.962267 0.937907 0.599730 -0.331101
N4    N     N_R   0.979660 0.064625 0.348562 0.236181
O59   O     O_R   0.983621 0.064725 0.419273 -0.338675
O60   O     O_R   0.952712 0.024450 0.315548 -0.327759
N5    N     N_R   0.257664 0.787855 0.377170 0.229392
O61   O     O_R   0.242034 0.826804 0.419086 -0.308172
O62   O     O_R   0.205577 0.764205 0.342798 -0.379209
N6    N     N_R   0.504525 0.430937 0.860002 0.230062
O63   O     O_R   0.554578 0.450639 0.901529 -0.233949
O64   O     O_R   0.442380 0.454223 0.853701 -0.382886
N7    N     N_R   0.451651 0.438168 0.175474 0.233987
O65   O     O_R   0.416667 0.471341 0.215461 -0.328021
O66   O     O_R   0.449436 0.442814 0.104937 -0.394496
N8    N     N_R   0.535590 0.586186 0.902537 0.249898
O67   O     O_R   0.586478 0.582935 0.951401 -0.227423
O68   O     O_R   0.475117 0.561054 0.912430 -0.364670
N9    N     N_R   0.053279 0.058581 0.800856 0.234100
O69   O     O_R   0.044502 0.015219 0.766403 -0.249166
O70   O     O_R   0.084158 0.057625 0.864553 -0.362628
N10   N     N_R   0.938269 0.601146 0.077397 0.225558
O71   O     O_R   0.877541 0.591910 0.043609 -0.276810
O72   O     O_R   0.998445 0.582886 0.050546 -0.440488
N11   N     N_R   0.126389 0.924474 0.732729 0.246111
O73   O     O_R   0.133947 0.935985 0.801192 -0.364878
O74   O     O_R   0.153266 0.955441 0.683524 -0.265149
N12   N     N_R   0.075272 0.059878 0.223307 0.211646
O75   O     O_R   0.095860 0.024622 0.269603 -0.336427
O76   O     O_R   0.082885 0.051360 0.153910 -0.374136
N13   N     N_R   0.363246 0.768251 0.492595 0.239591
O77   O     O_R   0.297938 0.754001 0.511400 -0.275619
O78   O     O_R   0.412530 0.770676 0.543088 -0.408778
N14   N     N_R   0.618305 0.428336 0.753813 0.231147
O79   O     O_R   0.668028 0.440147 0.801160 -0.313573
O80   O     O_R   0.620861 0.448929 0.689108 -0.342004
N15   N     N_R   0.547537 0.442418 0.300900 0.213282
O81   O     O_R   0.555854 0.483906 0.261288 -0.335619
O82   O     O_R   0.558596 0.445144 0.370771 -0.364188
N16   N     N_R   0.626212 0.574603 0.773987 0.248756
O83   O     O_R   0.640047 0.561184 0.707188 -0.360061
O84   O     O_R   0.649869 0.545673 0.826898 -0.193048
N17   N     N_R   0.634061 0.713229 0.009610 0.226977
O85   O     O_R   0.697752 0.694718 0.993282 -0.300051
O86   O     O_R   0.590803 0.727004 0.957105 -0.396878
N18   N     N_R   0.436634 0.057913 0.787318 0.189424
O87   O     O_R   0.441517 0.015977 0.748534 -0.412110
O88   O     O_R   0.422823 0.053776 0.856648 -0.382512
N19   N     N_R   0.433054 0.058413 0.215554 0.196889
O89   O     O_R   0.436811 0.017171 0.256317 -0.393063
O90   O     O_R   0.411499 0.053777 0.148446 -0.386718
N20   N     N_R   0.319989 0.885431 0.662923 0.205095
O91   O     O_R   0.320725 0.923207 0.615782 -0.332606
O92   O     O_R   0.257809 0.868451 0.687059 -0.394161
N21   N     N_R   0.961974 0.442976 0.692314 0.189731
O93   O     O_R   0.973500 0.486302 0.726446 -0.400531
O94   O     O_R   0.944984 0.444533 0.623567 -0.374202
N22   N     N_R   0.043220 0.915820 0.397635 0.259601
O95   O     O_R   0.095018 0.950182 0.400285 -0.251720
O96   O     O_R   0.985955 0.922147 0.438204 -0.355014
N23   N     N_R   0.813260 0.617501 0.837692 0.210659
O97   O     O_R   0.811771 0.580182 0.885523 -0.275917
O98   O     O_R   0.752529 0.633173 0.809243 -0.386629
N24   N     N_R   0.923030 0.440409 0.274394 0.214313
O99   O     O_R   0.935754 0.482455 0.237166 -0.328110
O100  O     O_R   0.889288 0.444081 0.336488 -0.395480

loop_
_geom_bond_atom_site_label_1
_geom_bond_atom_site_label_2
_geom_bond_distance
_ccdc_geom_bond_type
C174  C178  1.393525 A    
C156  C163  1.416534 A    
C48   C88   1.414176 A    
C129  C141  1.406787 A    
C90   C98   1.418869 A    
C161  C162  1.405781 A    
C62   C70   1.403911 A    
O26   C7    1.271028 A    
C166  C170  1.410433 A    
C75   C87   1.411949 A    
C154  C158  1.394539 A    
C109  C149  1.418746 A    
O30   C11   1.282067 A    
C22   C38   1.492647 S    
N21   O94   1.301538 A    
C30   H14   1.113018 S    
C52   C64   1.394604 A    
C53   C57   1.394190 A    
Zn12  O26   1.943264 S    
C29   C31   1.536305 S    
C56   C60   1.396967 A    
C32   H16   1.112977 S    
C55   C59   1.392680 A    
C32   C39   1.551667 S    
C29   H5    1.113645 S    
C110  C118  1.411787 A    
C47   C55   1.389403 A    
C34   C38   1.546934 S    
C52   H40   1.082853 S    
O11   C7    1.287635 A    
C53   H41   1.082745 S    
N14   O79   1.299966 A    
N9    O70   1.301539 A    
O34   C15   1.276192 A    
C87   C119  1.417923 A    
C148  H64   1.078511 S    
C149  H65   1.077371 S    
C97   C109  1.409144 A    
N22   O96   1.300017 A    
Zn1   O44   1.948898 S    
C25   H1    1.112746 S    
N3    O58   1.300675 A    
C169  C173  1.416620 A    
Zn2   O43   1.948896 S    
C155  C159  1.393350 A    
Zn5   O48   1.948898 S    
C57   C65   1.402136 A    
C135  N3    1.431140 S    
Zn6   O47   1.948896 S    
Zn15  O3    1.953369 S    
Zn7   O46   1.945300 S    
O16   C12   1.285415 A    
C49   C61   1.391496 A    
C41   H29   1.079896 S    
C163  C164  1.406689 A    
C161  C165  1.411749 A    
Zn16  O4    1.958591 S    
C108  C116  1.421007 A    
C123  H55   1.079892 S    
C141  C149  1.404801 A    
C26   C28   1.549566 S    
C139  C147  1.397214 A    
Zn4   O16   1.939781 S    
O41   C21   1.278485 A    
C33   C37   1.545742 S    
C46   C86   1.416518 A    
C28   H4    1.113027 S    
N21   O93   1.301767 A    
N19   O89   1.301545 A    
Zn6   O4    1.949590 S    
C170  C174  1.415953 A    
C93   C101  1.416741 A    
C134  N2    1.433244 S    
C7    C93   1.462833 S    
C155  H75   1.082019 S    
C131  N7    1.434664 S    
C111  C151  1.421550 A    
C61   N21   1.437295 S    
C141  N13   1.443841 S    
C162  C166  1.406554 A    
C30   H6    1.113035 S    
Zn10  O22   1.943264 S    
N13   O77   1.301258 A    
O25   C8    1.283222 A    
Zn13  O29   1.941634 S    
Zn10  O2    1.953673 S    
C44   C84   1.417770 A    
C63   C71   1.403232 A    
C31   C40   1.553752 S    
C134  C138  1.408582 A    
O29   C12   1.276693 A    
C45   C85   1.417738 A    
Zn15  O33   1.941634 S    
N8    O67   1.300887 A    
C140  N12   1.435930 S    
C43   C83   1.413456 A    
N3    O57   1.300320 A    
C157  C158  1.387606 A    
C26   H2    1.112895 S    
N11   O73   1.300470 A    
O37   C17   1.274527 A    
O48   C23   1.284234 A    
C146  H62   1.082196 S    
N18   O87   1.301754 A    
C171  C175  1.416501 A    
Zn16  O35   1.938421 S    
C136  N4    1.432851 S    
C99   C123  1.417566 A    
H17   C173  1.082404 S    
N20   O92   1.300404 A    
C97   C121  1.416469 A    
Zn7   O10   1.939739 S    
H20   C176  1.082163 S    
O33   C16   1.280542 A    
C132  C144  1.404963 A    
C25   C37   1.555732 S    
O40   C20   1.272773 A    
C127  H59   1.082481 S    
N12   O75   1.301003 A    
C106  C146  1.414391 A    
C136  C140  1.402857 A    
C82   C114  1.412688 A    
C84   C116  1.416499 A    
N16   O83   1.300545 A    
C154  C161  1.414307 A    
C57   N17   1.438842 S    
C13   C117  1.462662 S    
C65   H45   1.079402 S    
H69   C178  1.082493 S    
Zn5   O17   1.945271 S    
C102  C106  1.409930 A    
H71   C180  1.079037 S    
C137  N9    1.440726 S    
H72   C179  1.082616 S    
C1    C91   1.461368 S    
C2    C92   1.459441 S    
C12   C116  1.459379 S    
C65   C73   1.420473 A    
C64   C72   1.402493 A    
C25   C27   1.536919 S    
C47   H35   1.079822 S    
C74   C86   1.411565 A    
N1    O54   1.300796 A    
C107  C115  1.413291 A    
C3    C89   1.460517 S    
C105  C113  1.421496 A    
C27   H3    1.113537 S    
C62   N22   1.437700 S    
N5    O62   1.300880 A    
C32   H8    1.112880 S    
Zn8   O3    1.956746 S    
C21   C37   1.492288 S    
C154  H74   1.082373 S    
C8    C94   1.461029 S    
N2    O55   1.300836 A    
C61   C69   1.402123 A    
O38   C18   1.271044 A    
C96   C104  1.415688 A    
C59   C67   1.400864 A    
C19   C168  1.440634 S    
C59   N19   1.437167 S    
O5    C1    1.287436 A    
O32   C9    1.273627 A    
C100  C112  1.410579 A    
C112  C152  1.412693 A    
H25   C35   1.109867 S    
H26   C36   1.112934 S    
C36   C40   1.548229 S    
Zn15  O51   1.948713 S    
N10   O72   1.301434 A    
C99   C111  1.409259 A    
Zn11  O28   1.944310 S    
Zn12  O40   1.948670 S    
C138  C146  1.401025 A    
N4    O60   1.301258 A    
H23   C34   1.112061 S    
N24   O100  1.300836 A    
C50   H38   1.081234 S    
C29   C39   1.555614 S    
H28   C35   1.112979 S    
O8    C4    1.286892 A    
C71   C79   1.412973 A    
C33   C34   1.542679 S    
Zn9   O1    1.958895 S    
C72   C80   1.420817 A    
C68   C76   1.413469 A    
C58   C66   1.402976 A    
N6    O64   1.298678 A    
C42   H30   1.082221 S    
O50   C18   1.279470 A    
C173  C177  1.393962 A    
C50   C62   1.396782 A    
Zn1   O1    1.949591 S    
C46   H34   1.081035 S    
Zn13  O1    1.953369 S    
Zn2   O14   1.942817 S    
C48   C56   1.390705 A    
C133  N1    1.432746 S    
C48   H36   1.081842 S    
C42   C50   1.390509 A    
C165  C169  1.411797 A    
C122  C130  1.398949 A    
O9    C5    1.280217 A    
O39   C19   1.273699 A    
O36   C13   1.275848 A    
N17   O86   1.300710 A    
C150  H66   1.081303 S    
C80   C84   1.410804 A    
O13   C9    1.283322 A    
N6    O63   1.300765 A    
C126  C134  1.399612 A    
Zn1   O8    1.942773 S    
Zn2   O7    1.945228 S    
Zn3   O6    1.939739 S    
C135  C139  1.406349 A    
O18   C14   1.279054 A    
O31   C10   1.279045 A    
C132  N8    1.428435 S    
O6    C2    1.278595 A    
C168  C172  1.412844 A    
C121  C129  1.396675 A    
C17   C166  1.434975 S    
C164  C168  1.412872 A    
C44   H32   1.080276 S    
N14   O80   1.300431 A    
N9    O69   1.298266 A    
Zn14  O30   1.944564 S    
C11   C115  1.461954 S    
C68   H48   1.082476 S    
Zn11  O3    1.958895 S    
C101  C125  1.416722 A    
C69   H49   1.075539 S    
C41   C49   1.387359 A    
C110  C150  1.414472 A    
Zn16  O34   1.944564 S    
C31   H15   1.113542 S    
C142  N14   1.426922 S    
C88   C120  1.411504 A    
Zn2   O2    1.949590 S    
N15   O81   1.301212 A    
C124  C132  1.395874 A    
C143  C151  1.403665 A    
Zn8   O20   1.939781 S    
O10   C6    1.284918 A    
C64   N24   1.439144 S    
C153  H73   1.082357 S    
C67   C75   1.421811 A    
C78   C82   1.412232 A    
C55   H43   1.083002 S    
C56   H44   1.082633 S    
H18   C174  1.082459 S    
C109  C117  1.421649 A    
C129  N5    1.434455 S    
C103  C107  1.411137 A    
Zn8   O9    1.945303 S    
C24   C40   1.491571 S    
O15   C11   1.281429 A    
C108  C148  1.419373 A    
C127  C135  1.399061 A    
C70   C78   1.415861 A    
C63   N23   1.434803 S    
O7    C3    1.280347 A    
C89   C97   1.416555 A    
N7    O65   1.301286 A    
O19   C15   1.290279 A    
C169  C170  1.407881 A    
C49   H37   1.082912 S    
C66   H46   1.078093 S    
H70   C177  1.081894 S    
Zn6   O18   1.942817 S    
Zn10  O23   1.941383 S    
C47   C87   1.419165 A    
Zn9   O24   1.944310 S    
C121  H53   1.080688 S    
C159  C160  1.387309 A    
C66   C74   1.421112 A    
C95   C103  1.413335 A    
C131  C143  1.403565 A    
C74   C90   1.424140 A    
C111  C119  1.425472 A    
Zn15  O36   1.943518 S    
N8    O68   1.298658 A    
O42   C22   1.283513 A    
C4    C90   1.462131 S    
C28   C37   1.551444 S    
C58   N18   1.435924 S    
C78   C94   1.415773 A    
Zn4   O1    1.956746 S    
C60   N20   1.435181 S    
C79   C83   1.413626 A    
C138  N10   1.437759 S    
C72   H52   1.078484 S    
Zn9   O37   1.946042 S    
C35   C36   1.543823 S    
O12   C8    1.277963 A    
Zn11  O39   1.946042 S    
C94   C102  1.414477 A    
N18   O88   1.301395 A    
C159  H79   1.076707 S    
C67   H47   1.077806 S    
O51   C19   1.276555 A    
H21   C33   1.111995 S    
N22   O95   1.301592 A    
C15   C119  1.464140 S    
N23   O97   1.301616 A    
Zn5   O3    1.949591 S    
C31   H7    1.112864 S    
C175  C179  1.390330 A    
C176  C180  1.394269 A    
C45   H33   1.080205 S    
C46   C54   1.388148 A    
C128  C136  1.396102 A    
N20   O91   1.301774 A    
N12   O76   1.301152 A    
C26   H10   1.112489 S    
H24   C33   1.112028 S    
C160  H80   1.082448 S    
C167  C171  1.407996 A    
C27   C38   1.554041 S    
C153  C157  1.389822 A    
O28   C5    1.284676 A    
N16   O84   1.299867 A    
C179  C180  1.388076 A    
Zn3   O42   1.945300 S    
C156  C160  1.390991 A    
C23   C39   1.493169 S    
Zn7   O4    1.956748 S    
O21   C4    1.276141 A    
C125  C133  1.392050 A    
C144  C152  1.401479 A    
C123  C131  1.393537 A    
C128  H60   1.081143 S    
C171  C172  1.406906 A    
C130  C142  1.397025 A    
C30   C40   1.551785 S    
C124  H56   1.082677 S    
N1    O53   1.301507 A    
Zn14  O2    1.958591 S    
C125  H57   1.079200 S    
C51   C63   1.396299 A    
C44   C52   1.389523 A    
C45   C53   1.390507 A    
C98   C122  1.418890 A    
Zn13  O49   1.948713 S    
O44   C21   1.284623 A    
C144  N16   1.437095 S    
C28   H12   1.112998 S    
C43   C51   1.389877 A    
Zn12  O4    1.953673 S    
C51   H39   1.081018 S    
C102  C126  1.412171 A    
N2    O56   1.300381 A    
Zn12  O27   1.941383 S    
C35   C39   1.548157 S    
N13   O78   1.299867 A    
C79   C95   1.415332 A    
C80   C96   1.419545 A    
C107  C147  1.408470 A    
C69   C77   1.423751 A    
C83   C115  1.410567 A    
C158  H78   1.074682 S    
C105  C145  1.419362 A    
Zn3   O2    1.956748 S    
C81   C113  1.415873 A    
C130  N6    1.429053 S    
H27   C36   1.110476 S    
C143  N15   1.437760 S    
C147  H63   1.082090 S    
C14   C118  1.454790 S    
C18   C165  1.441229 S    
N15   O82   1.301474 A    
O46   C24   1.282468 A    
O47   C24   1.280307 A    
C101  C105  1.407854 A    
Zn16  O52   1.946084 S    
C126  H58   1.082653 S    
C9    C113  1.460873 S    
Zn8   O45   1.945302 S    
O27   C6    1.276652 A    
C112  C120  1.415101 A    
C133  C137  1.406610 A    
C70   H50   1.081622 S    
C142  C150  1.390935 A    
C106  C114  1.413648 A    
Zn1   O13   1.945271 S    
C100  C124  1.412972 A    
C98   C110  1.410922 A    
O24   C1    1.277070 A    
C104  C128  1.417362 A    
C151  H67   1.076645 S    
C152  H68   1.081781 S    
C163  C167  1.408174 A    
C172  C176  1.416415 A    
O43   C22   1.279808 A    
Zn4   O41   1.945302 S    
Zn3   O15   1.945346 S    
N19   O90   1.301087 A    
C139  N11   1.433068 S    
C104  C108  1.409075 A    
N7    O66   1.300908 A    
Zn5   O12   1.942773 S    
C76   C88   1.411344 A    
Zn6   O11   1.945228 S    
C77   C81   1.411390 A    
C73   C85   1.412002 A    
Zn9   O21   1.938170 S    
Zn14  O50   1.946084 S    
C41   C81   1.419054 A    
N11   O74   1.300212 A    
O35   C14   1.278350 A    
C92   C100  1.412597 A    
N17   O85   1.301728 A    
C5    C95   1.463200 S    
C6    C96   1.458503 S    
C137  C145  1.402073 A    
C54   H42   1.082879 S    
C156  H76   1.082204 S    
O52   C20   1.273717 A    
C29   H13   1.113450 S    
C42   C82   1.414306 A    
C10   C114  1.456662 S    
O22   C3    1.276170 A    
C91   C99   1.415717 A    
Zn7   O19   1.945346 S    
C43   H31   1.082292 S    
O20   C16   1.280328 A    
C145  H61   1.076499 S    
Zn13  O32   1.943518 S    
C85   C117  1.417545 A    
O49   C17   1.272467 A    
Zn14  O31   1.938421 S    
C30   C32   1.548430 S    
C75   C91   1.420991 A    
C140  C148  1.400817 A    
C73   C89   1.418886 A    
C27   H11   1.113466 S    
Zn4   O5    1.945303 S    
N23   O98   1.299595 A    
C76   C92   1.413874 A    
C77   C93   1.425385 A    
N10   O71   1.301191 A    
C26   C38   1.553261 S    
O23   C2    1.283106 A    
Zn11  O25   1.938170 S    
C157  H77   1.082548 S    
H19   C175  1.082281 S    
C177  C178  1.390100 A    
Zn10  O38   1.948670 S    
O14   C10   1.279415 A    
O45   C23   1.279351 A    
C71   H51   1.082320 S    
C103  C127  1.414137 A    
C60   C68   1.403789 A    
C20   C167  1.434625 S    
C122  H54   1.080909 S    
N4    O59   1.300497 A    
C54   C58   1.393347 A    
C25   H9    1.113530 S    
C86   C118  1.411458 A    
N5    O61   1.301410 A    
N24   O99   1.301310 A    
C153  C162  1.416992 A    
O17   C13   1.281929 A    
H22   C34   1.112995 S    
C16   C120  1.458227 S    
C155  C164  1.416402 A    
