data_mof_unit_52206.cif
_audit_creation_date              2012-12-11T16:28:28-0500
_audit_creation_method            fapswitch 2.2
_symmetry_space_group_name_H-M    P1
_symmetry_Int_Tables_number       1
_space_group_crystal_system       triclinic
_cell_length_a                    16.866667
_cell_length_b                    7.247418
_cell_length_c                    15.064855
_cell_angle_alpha                 90.000139
_cell_angle_beta                  93.940601
_cell_angle_gamma                 90.002458
_cell_volume                      1837.17097486

loop_
_atom_site_label
_atom_site_type_symbol
_atom_type_description
_atom_site_fract_x
_atom_site_fract_y
_atom_site_fract_z
_atom_type_partial_charge
O1    O     O_R   0.663460 0.361760 0.165970 -0.525253
O2    O     O_R   0.336540 0.638240 0.834030 -0.525240
O3    O     O_R   0.836540 0.861760 0.334030 -0.525237
O4    O     O_R   0.163460 0.138240 0.665970 -0.525257
O5    O     O_R   0.827100 0.689870 0.163730 -0.543926
O6    O     O_R   0.172900 0.310130 0.836270 -0.543898
O7    O     O_R   0.672900 0.189870 0.336270 -0.543924
O8    O     O_R   0.327100 0.810130 0.663730 -0.543936
C1    C     C_R   0.854610 0.523420 0.145238 0.799216
C2    C     C_R   0.145391 0.476580 0.854763 0.799187
C3    C     C_R   0.645392 0.023414 0.354765 0.799131
C4    C     C_R   0.354607 0.976586 0.645234 0.799130
O9    O     O_R   0.663490 0.691370 0.155500 -0.542171
O10   O     O_R   0.336510 0.308630 0.844500 -0.542175
O11   O     O_R   0.836510 0.191370 0.344500 -0.542215
O12   O     O_R   0.163490 0.808630 0.655500 -0.542201
O13   O     O_R   0.671770 0.863320 0.325740 -0.501332
O14   O     O_R   0.328230 0.136680 0.674260 -0.501351
O15   O     O_R   0.828230 0.363320 0.174260 -0.501423
O16   O     O_R   0.171770 0.636680 0.825740 -0.501384
C5    C     C_R   0.637435 0.521747 0.131777 0.687866
C6    C     C_R   0.362564 0.478253 0.868224 0.687880
C7    C     C_R   0.862564 0.021752 0.368223 0.687835
C8    C     C_R   0.137435 0.978249 0.631777 0.687860
O17   O     O_3   0.752910 0.528800 0.305860 -0.370038
O18   O     O_3   0.247090 0.471200 0.694140 -0.370068
O19   O     O_3   0.747090 0.028800 0.194140 -0.370090
O20   O     O_3   0.252910 0.971200 0.805860 -0.370054
V1    V     V_3+5 0.749460 0.803010 0.239640 1.590408
V2    V     V_3+5 0.250540 0.196990 0.760360 1.590476
V3    V     V_3+5 0.750540 0.303010 0.260360 1.590361
V4    V     V_3+5 0.249460 0.696990 0.739640 1.590382
C9    C     C_1   0.469280 0.994254 0.530616 0.050908
C10   C     C_1   0.530718 0.005745 0.469381 0.050940
C11   C     C_1   0.030721 0.494245 0.969386 0.050978
C12   C     C_1   0.969284 0.505756 0.030621 0.050912
H1    H     H_    0.812039 0.596964 0.620213 0.156192
H2    H     H_    0.187930 0.403178 0.379875 0.156049
H3    H     H_    0.688001 0.097248 0.879686 0.156243
H4    H     H_    0.311978 0.902665 0.120354 0.156321
C13   C     C_R   0.017023 0.168946 0.331407 -0.115148
C14   C     C_R   0.982955 0.831166 0.668621 -0.115246
C15   C     C_R   0.482937 0.668620 0.168668 -0.115281
C16   C     C_R   0.517055 0.331333 0.831345 -0.115249
C17   C     C_R   0.076732 0.301196 0.322850 0.445258
C18   C     C_R   0.923216 0.698993 0.677195 0.445041
C19   C     C_R   0.423165 0.800683 0.177284 0.445017
C20   C     C_R   0.576813 0.199234 0.822740 0.445016
C21   C     C_R   0.137912 0.313440 0.389590 -0.247508
C22   C     C_R   0.862063 0.686658 0.610447 -0.247088
C23   C     C_R   0.362019 0.813058 0.110540 -0.247076
C24   C     C_R   0.637966 0.186882 0.889482 -0.247032
C25   C     C_R   0.142645 0.184539 0.458728 -0.116018
C26   C     C_R   0.857346 0.815482 0.541278 -0.116169
C27   C     C_R   0.357323 0.684340 0.041326 -0.116105
C28   C     C_R   0.642669 0.315632 0.958683 -0.116145
C29   C     C_R   0.072847 0.087931 0.481120 -0.013612
C30   C     C_R   0.927147 0.912084 0.518887 -0.013596
C31   C     C_R   0.427136 0.587825 0.018911 -0.013575
C32   C     C_R   0.572860 0.412162 0.981095 -0.013601
C33   C     C_R   0.006302 0.089839 0.416691 -0.018477
C34   C     C_R   0.993689 0.910199 0.583323 -0.018385
C35   C     C_R   0.493679 0.589695 0.083347 -0.018387
C36   C     C_R   0.506317 0.410288 0.916659 -0.018395
C37   C     C_R   0.067570 0.991591 0.563846 -0.108030
C38   C     C_R   0.932426 0.008415 0.436159 -0.107978
C39   C     C_R   0.432428 0.491600 0.936156 -0.108046
C40   C     C_R   0.567569 0.508395 0.063848 -0.108057
C41   C     C_1   0.417052 0.985201 0.582674 -0.019046
C42   C     C_1   0.582946 0.014798 0.417323 -0.019049
C43   C     C_1   0.082947 0.485185 0.917325 -0.018780
C44   C     C_1   0.917056 0.514817 0.082679 -0.018800
C45   C     C_2   0.224114 0.127840 0.488750 0.737075
O21   O     O_2   0.274601 0.245263 0.506739 -0.526719
O22   O     O_R   0.246312 0.941927 0.487770 -0.684403
H5    H     H_    0.202024 0.857193 0.463988 0.254138
C46   C     C_2   0.775878 0.872164 0.511242 0.737003
O23   O     O_2   0.725398 0.754729 0.493247 -0.526705
O24   O     O_R   0.753673 0.058072 0.512222 -0.684373
H6    H     H_    0.797957 0.142814 0.536009 0.254194
C47   C     C_2   0.275862 0.627646 0.011263 0.736546
O25   O     O_2   0.225383 0.745077 0.993277 -0.526740
O26   O     O_R   0.253659 0.441730 0.012219 -0.684261
H7    H     H_    0.297946 0.356992 0.035994 0.254322
C48   C     C_2   0.724132 0.372324 0.988741 0.736805
O27   O     O_2   0.774612 0.254895 0.006724 -0.526761
O28   O     O_R   0.746334 0.558241 0.987786 -0.684327
H8    H     H_    0.702048 0.642980 0.964011 0.254254
O29   O     O_3   0.076734 0.408363 0.246417 -0.539611
C49   C     C_3   0.145580 0.373477 0.200725 -0.157235
H9    H     H_    0.159728 0.223467 0.197509 0.123184
H10   H     H_    0.197190 0.451934 0.230898 0.120643
H11   H     H_    0.134805 0.422926 0.131350 0.195258
O30   O     O_3   0.923074 0.592034 0.753670 -0.539631
C50   C     C_3   0.854586 0.628843 0.799676 -0.157361
H12   H     H_    0.802399 0.552416 0.769495 0.120532
H13   H     H_    0.841418 0.779293 0.803272 0.123577
H14   H     H_    0.865224 0.578496 0.868914 0.195311
O31   O     O_3   0.422950 0.907451 0.253811 -0.539600
C51   C     C_3   0.354597 0.869798 0.299912 -0.157621
H15   H     H_    0.341780 0.719184 0.303553 0.123460
H16   H     H_    0.302205 0.945549 0.269778 0.120599
H17   H     H_    0.365189 0.920286 0.369131 0.195445
O32   O     O_3   0.576991 0.092385 0.746234 -0.539624
C52   C     C_3   0.645406 0.129650 0.700175 -0.157459
H18   H     H_    0.697704 0.053596 0.730331 0.120579
H19   H     H_    0.658383 0.280190 0.696550 0.123573
H20   H     H_    0.634791 0.079219 0.630948 0.195370
C53   C     C_2   0.986168 0.074367 0.248594 0.762783
O33   O     O_2   0.968928 0.161877 0.180741 -0.534208
O34   O     O_R   0.983287 0.881716 0.246770 -0.656905
H21   H     H_    0.968857 0.832283 0.184922 0.296953
C54   C     C_2   0.013854 0.925722 0.751420 0.762432
O35   O     O_2   0.031144 0.838190 0.819254 -0.534305
O36   O     O_R   0.016717 0.118372 0.753259 -0.656895
H22   H     H_    0.031160 0.167785 0.815107 0.296950
C55   C     C_2   0.513875 0.574048 0.251441 0.762354
O37   O     O_2   0.531230 0.661572 0.319262 -0.534285
O38   O     O_R   0.516704 0.381397 0.253271 -0.656905
H23   H     H_    0.531160 0.331973 0.315113 0.296916
C56   C     C_2   0.486130 0.425903 0.748565 0.762380
O39   O     O_2   0.468791 0.338377 0.680740 -0.534282
O40   O     O_R   0.483296 0.618553 0.746733 -0.656899
H24   H     H_    0.468849 0.667972 0.684887 0.296921

loop_
_geom_bond_atom_site_label_1
_geom_bond_atom_site_label_2
_ccdc_geom_bond_type
C30   C34   A    
C16   C20   A    
O28   H8    S    
O1    C5    A    
C27   C31   A    
O19   V1    S    
O13   V1    S    
C45   O21   D    
O3    C7    A    
C50   H12   S    
C1    C44   S    
C13   C33   A    
C4    C41   S    
O15   V3    S    
C47   O25   D    
C49   H9    S    
C50   H14   S    
C15   C35   A    
O40   H24   S    
H2    C21   S    
C48   O27   D    
C16   C36   A    
O7    C3    A    
C52   H19   S    
C22   C26   A    
C7    C38   S    
O9    V1    S    
C55   O38   S    
O16   V4    S    
O4    C8    A    
O36   H22   S    
C20   O32   S    
C16   C56   S    
O1    V3    S    
C19   O31   S    
O2    V4    S    
C14   C18   A    
O3    V1    S    
C31   C39   A    
C33   C38   A    
C30   C38   A    
O26   H7    S    
C2    O16   A    
O2    C6    A    
O14   V2    S    
C27   C47   S    
C17   O29   S    
C14   C34   A    
C34   C37   A    
C9    C41   T    
C26   C46   S    
C2    C43   S    
O11   C7    A    
H3    C24   S    
C11   C43   T    
O12   C8    A    
C13   C53   S    
C45   O22   S    
O10   V2    S    
O32   C52   S    
C47   O26   S    
C1    O15   A    
O5    V1    S    
C46   O24   S    
C52   H20   S    
C3    C42   S    
O7    V3    S    
C48   O28   S    
O8    V4    S    
C36   C39   A    
C25   C29   A    
O18   V4    S    
C19   C23   A    
C46   O23   D    
C51   H17   S    
C28   C32   A    
C11   C12   S    
O22   H5    S    
O5    C1    A    
C14   C54   S    
C49   H10   S    
O31   C51   S    
C18   O30   S    
C17   C21   A    
O8    C4    A    
C51   H16   S    
C9    C10   S    
O9    C5    A    
O11   V3    S    
C56   O39   D    
C8    C37   S    
C15   C55   S    
O6    V2    S    
C5    C40   S    
C49   H11   S    
C54   O35   D    
C26   C30   A    
C10   C42   T    
C35   C40   A    
C3    O13   A    
O34   H21   S    
O17   V3    S    
C25   C45   S    
C29   C37   A    
O6    C2    A    
O38   H23   S    
C50   H13   S    
C29   C33   A    
O12   V4    S    
H4    C23   S    
C52   H18   S    
C18   C22   A    
C31   C35   A    
C32   C36   A    
O10   C6    A    
C53   O34   S    
C53   O33   D    
H1    C22   S    
C28   C48   S    
C21   C25   A    
O20   V2    S    
C51   H15   S    
C23   C27   A    
O30   C50   S    
C6    C39   S    
C56   O40   S    
O24   H6    S    
C12   C44   T    
C20   C24   A    
C32   C40   A    
C4    O14   A    
C13   C17   A    
O29   C49   S    
C55   O37   D    
C15   C19   A    
O4    V2    S    
C24   C28   A    
C54   O36   S    
