data_mof_unit_50835.cif
_audit_creation_date              2012-12-10T17:22:11-0500
_audit_creation_method            fapswitch 2.2
_symmetry_space_group_name_H-M    P1
_symmetry_Int_Tables_number       1
_space_group_crystal_system       triclinic
_cell_length_a                    15.899092
_cell_length_b                    10.835613
_cell_length_c                    9.66952
_cell_angle_alpha                 91.382178
_cell_angle_beta                  90.174572
_cell_angle_gamma                 95.077572
_cell_volume                      1658.78785389

loop_
_atom_site_label
_atom_site_type_symbol
_atom_type_description
_atom_site_fract_x
_atom_site_fract_y
_atom_site_fract_z
_atom_type_partial_charge
C1    C     C_R   0.486595 0.262441 0.499184 0.824133
C2    C     C_3   0.948321 0.412262 0.620614 -0.225020
C3    C     C_3   0.916380 0.490632 0.499393 0.028539
C4    C     C_3   0.956933 0.625882 0.519565 -0.431119
C5    C     C_3   0.053430 0.631968 0.494617 0.260022
C6    C     C_1   0.823769 0.492450 0.501043 -0.031823
C7    C     C_1   0.176049 0.498403 0.496972 0.125305
C8    C     C_1   0.251421 0.498984 0.498423 0.014767
C9    C     C_R   0.433198 0.126632 0.750497 0.388810
C10   C     C_R   0.471551 0.098515 0.873397 -0.274031
C11   C     C_R   0.505055 0.984334 0.881288 0.316656
C12   C     C_R   0.340710 0.499883 0.499690 0.846483
C13   C     C_R   0.484146 0.895736 0.774853 -0.122424
C14   C     C_R   0.473852 0.940256 0.638258 -0.023856
C15   C     C_R   0.459467 0.066524 0.629888 -0.023513
C16   C     C_R   0.463682 0.126157 0.502264 -0.136079
C17   C     C_R   0.446646 0.052458 0.383130 0.002516
C18   C     C_R   0.452199 0.924658 0.388241 -0.118029
C19   C     C_R   0.474644 0.868763 0.511364 -0.081473
C20   C     C_R   0.629693 0.633707 0.153093 -0.037001
C21   C     C_R   0.706953 0.666634 0.095183 -0.165681
C22   C     C_R   0.715641 0.658911 0.953807 -0.038169
C23   C     C_R   0.492656 0.736853 0.502786 0.809698
C24   C     C_R   0.642768 0.630472 0.870715 -0.051106
C25   C     C_R   0.567854 0.564139 0.928773 0.142129
C26   C     C_R   0.565384 0.564293 0.078094 0.218418
C27   C     C_R   0.436214 0.441809 0.071466 -0.015671
C28   C     C_R   0.435752 0.443489 0.924459 -0.013893
C29   C     C_R   0.659313 0.498706 0.500128 0.828977
C30   C     C_3   0.047603 0.426675 0.627186 -0.330425
C31   C     C_3   0.044764 0.420615 0.367918 0.158051
C32   C     C_3   0.946895 0.435721 0.356847 -0.183724
C33   C     C_1   0.748553 0.495360 0.500816 -0.149254
C34   C     C_3   0.083757 0.497198 0.497461 -0.063501
Cu1   Cu    Cu3+1 0.499990 0.499990 0.640660 0.994830
Cu2   Cu    Cu3+1 0.500010 0.500010 0.359340 0.996498
H1    H     H_    0.928494 0.313050 0.596424 0.150687
H2    H     H_    0.928315 0.689626 0.448022 0.174123
H3    H     H_    0.469867 0.159928 0.962560 0.206455
H4    H     H_    0.437694 0.868277 0.296107 0.208666
H5    H     H_    0.383429 0.394232 0.124035 0.172054
H6    H     H_    0.068832 0.331382 0.623099 0.158309
H7    H     H_    0.621937 0.666988 0.256522 0.202712
H8    H     H_    0.757867 0.709088 0.159947 0.171341
H9    H     H_    0.382002 0.400663 0.868501 0.211657
H10   H     H_    0.052509 0.321484 0.388920 0.146148
H11   H     H_    0.064525 0.666214 0.388544 0.166671
H12   H     H_    0.942723 0.659461 0.625486 0.253368
N1    N     N_R   0.500800 0.501210 0.147910 -0.208440
N2    N     N_R   0.500820 0.501290 0.852040 -0.214019
O1    O     O_R   0.499990 0.319640 0.618810 -0.574331
O2    O     O_R   0.500000 0.319660 0.381240 -0.567443
O3    O     O_R   0.379430 0.499990 0.618840 -0.556343
O4    O     O_R   0.379440 0.500020 0.381260 -0.577932
O5    O     O_R   0.500000 0.680340 0.618760 -0.599588
O6    O     O_R   0.500010 0.680360 0.381190 -0.581733
O7    O     O_R   0.620560 0.499980 0.618740 -0.588916
O8    O     O_R   0.620570 0.500010 0.381160 -0.598169
C35   C     C_1   0.084132 0.481437 0.758084 0.446030
N3    N     N_1   0.113851 0.523303 0.859993 -0.106780
C36   C     C_1   0.907888 0.437349 0.754978 0.331423
N4    N     N_1   0.876218 0.455352 0.860202 -0.232790
C37   C     C_1   0.408453 0.102539 0.264358 0.379056
N5    N     N_1   0.375735 0.142670 0.170833 -0.219448
S1    S     S_3+6 0.326501 0.160639 0.756004 0.001021
O9    O     O_2   0.311594 0.260415 0.656395 -0.345948
O10   O     O_2   0.272165 0.045327 0.713299 -0.207141
O11   O     O_3   0.298730 0.203818 0.916348 -0.556816
H13   H     H_    0.239878 0.225955 0.907120 0.384982
S2    S     S_3+6 0.564538 0.949256 0.026423 -0.016466
O12   O     O_2   0.570909 0.054557 0.130878 -0.296372
O13   O     O_2   0.523872 0.834754 0.091001 -0.322157
O14   O     O_3   0.662321 0.923311 0.975062 -0.519190
H14   H     H_    0.682772 0.997947 0.923626 0.354429
C38   C     C_1   0.428887 0.791549 0.820121 0.425996
N6    N     N_1   0.383362 0.709849 0.857092 -0.217259
C39   C     C_1   0.795726 0.708363 0.897146 0.328036
N7    N     N_1   0.859510 0.748472 0.852315 -0.215201
C40   C     C_1   0.645018 0.709260 0.752246 0.387122
N8    N     N_1   0.653759 0.776261 0.660799 -0.310106
S3    S     S_3+6 0.101974 0.441616 0.206563 0.004425
O15   O     O_2   0.117211 0.576545 0.173599 -0.272661
O16   O     O_2   0.051192 0.374371 0.092063 -0.272848
O17   O     O_3   0.195169 0.380133 0.217652 -0.525896
H15   H     H_    0.221575 0.393075 0.125889 0.374299
C41   C     C_1   0.901254 0.313363 0.323873 0.267269
N9    N     N_1   0.865588 0.217740 0.298151 -0.208983
C42   C     C_1   0.926627 0.517946 0.243200 0.378915
N10   N     N_1   0.910884 0.582485 0.154898 -0.228864
S4    S     S_3+6 0.107490 0.752150 0.604787 0.032488
O18   O     O_2   0.200378 0.738039 0.616223 -0.283494
O19   O     O_2   0.096265 0.874862 0.541137 -0.230737
O20   O     O_3   0.065536 0.753084 0.764245 -0.508684
H16   H     H_    0.096534 0.824316 0.813746 0.407033

loop_
_geom_bond_atom_site_label_1
_geom_bond_atom_site_label_2
_ccdc_geom_bond_type
O20   H16   S    
Cu1   O3    S    
O14   H14   S    
Cu1   Cu2   S    
C3    C6    S    
S3    O17   S    
S3    O15   D    
C11   S2    S    
C7    C8    T    
C39   N7    T    
C5    H11   S    
Cu2   O8    S    
C15   C16   A    
C32   C42   S    
C29   C33   S    
C18   C19   A    
C18   H4    S    
C25   N2    A    
C28   N2    A    
O17   H15   S    
C13   C38   S    
C16   C17   A    
S1    O10   D    
C31   H10   S    
S2    O12   D    
C9    C10   A    
C12   O3    A    
Cu2   O2    S    
C2    C36   S    
C35   N3    T    
C21   C22   A    
C30   C35   S    
C3    C32   S    
S2    O14   S    
S3    O16   D    
C28   H9    S    
C30   C34   S    
Cu1   O5    S    
C23   O6    A    
C24   C25   A    
C26   N1    A    
C41   N9    T    
O11   H13   S    
C25   C26   A    
C37   N5    T    
C10   H3    S    
C19   C23   S    
C38   N6    T    
Cu2   O6    S    
C21   H8    S    
C27   H5    S    
C24   C40   S    
S4    O19   D    
C31   C32   S    
C8    C12   S    
S1    O11   S    
C32   C41   S    
C5    C34   S    
C20   C21   A    
Cu1   N2    S    
C17   C18   A    
C31   C34   S    
C1    C16   S    
C42   N10   T    
C1    O1    A    
C4    H2    S    
Cu1   O1    S    
C7    C34   S    
C22   C24   A    
C3    C4    S    
C20   H7    S    
S4    O20   S    
C4    H12   S    
C14   C19   A    
C5    S4    S    
C22   C39   S    
C29   O7    A    
C4    C5    S    
C23   O5    A    
C31   S3    S    
C6    C33   T    
C2    C30   S    
Cu1   O7    S    
C2    C3    S    
C9    C15   A    
C17   C37   S    
C11   C13   A    
C2    H1    S    
S4    O18   D    
C20   C26   A    
C36   N4    T    
C1    O2    A    
C9    S1    S    
Cu2   O4    S    
C10   C11   A    
C40   N8    T    
C29   O8    A    
S1    O9    D    
C27   C28   A    
C14   C15   A    
C30   H6    S    
S2    O13   D    
C13   C14   A    
C12   O4    A    
Cu2   N1    S    
C27   N1    A    
