data_mof_unit_39599.cif
_audit_creation_date              2012-12-10T19:50:00-0500
_audit_creation_method            fapswitch 2.2
_symmetry_space_group_name_H-M    P1
_symmetry_Int_Tables_number       1
_space_group_crystal_system       triclinic
_cell_length_a                    14.148395
_cell_length_b                    14.942355
_cell_length_c                    15.567721
_cell_angle_alpha                 89.699292
_cell_angle_beta                  68.474212
_cell_angle_gamma                 89.135302
_cell_volume                      3061.2770712

loop_
_atom_site_label
_atom_site_type_symbol
_atom_type_description
_atom_site_fract_x
_atom_site_fract_y
_atom_site_fract_z
_atom_type_partial_charge
C1    C     C_R   0.502094 0.672630 0.491951 0.968708
C2    C     C_R   0.500321 0.327701 0.501240 1.097745
C3    C     C_R   0.373259 0.466424 0.106442 -0.163912
C4    C     C_R   0.609081 0.422304 0.907119 -0.144059
C5    C     C_R   0.301700 0.463534 0.064259 -0.189583
C6    C     C_R   0.679056 0.411187 0.950038 -0.201751
C7    C     C_R   0.416335 0.910992 0.534004 0.333232
C8    C     C_R   0.527489 0.095969 0.582541 0.436584
C9    C     C_R   0.413175 0.821621 0.506871 0.271888
C10   C     C_R   0.506008 0.188676 0.586044 0.170330
C11   C     C_R   0.504734 0.769887 0.478922 -0.338482
C12   C     C_R   0.501711 0.231370 0.505801 -0.357536
C13   C     C_R   0.599139 0.813704 0.445391 0.328063
C14   C     C_R   0.507185 0.182018 0.427489 0.415643
C15   C     C_R   0.601158 0.904428 0.460460 -0.215911
C16   C     C_R   0.510784 0.090024 0.431796 -0.229824
C17   C     C_R   0.512163 0.951316 0.509368 -0.023885
C18   C     C_R   0.519227 0.047531 0.508510 -0.074999
C19   C     C_R   0.871529 0.560778 0.554844 -0.242268
C20   C     C_R   0.136367 0.472231 0.422671 -0.253484
C21   C     C_R   0.772765 0.559553 0.553714 0.101554
C22   C     C_R   0.235021 0.472213 0.423937 0.038404
C23   C     C_R   0.437348 0.502429 0.676068 0.939994
C24   C     C_R   0.562796 0.502322 0.324220 0.948412
C25   C     C_R   0.817463 0.439408 0.447618 0.043699
C26   C     C_R   0.173330 0.526663 0.576995 0.097800
C27   C     C_R   0.916829 0.437574 0.447505 -0.251259
C28   C     C_R   0.073116 0.526676 0.579123 -0.242267
C29   C     C_R   0.946010 0.499193 0.501248 0.131227
C30   C     C_R   0.052805 0.499436 0.501067 0.133177
C31   C     C_R   0.400117 0.497109 0.777148 -0.054268
C32   C     C_R   0.600958 0.494285 0.223988 -0.068671
C33   C     C_R   0.263024 0.473357 0.924434 -0.163725
C34   C     C_R   0.724745 0.431451 0.084217 -0.159103
C35   C     C_R   0.296594 0.483727 0.828761 -0.145163
C36   C     C_R   0.697368 0.456516 0.176286 -0.093253
C37   C     C_R   0.470062 0.498678 0.822624 0.081076
C38   C     C_R   0.534226 0.511354 0.177458 -0.014670
C39   C     C_R   0.438682 0.471487 0.914745 0.116840
C40   C     C_R   0.553772 0.470823 0.091832 0.104186
C41   C     C_R   0.333651 0.468633 0.968134 0.122007
C42   C     C_R   0.653093 0.437448 0.041771 0.129910
C43   C     C_R   0.509696 0.454636 0.956994 0.073559
C44   C     C_R   0.478458 0.466081 0.052752 0.076745
H1    H     H_    0.221600 0.461194 0.106805 0.154882
H2    H     H_    0.754179 0.384567 0.910772 0.162608
H3    H     H_    0.889379 0.610762 0.596367 0.152728
H4    H     H_    0.126349 0.451906 0.359994 0.143479
H5    H     H_    0.716381 0.607256 0.595066 0.124581
H6    H     H_    0.297534 0.449742 0.363571 0.138201
H7    H     H_    0.795986 0.391883 0.406071 0.135057
H8    H     H_    0.187700 0.547748 0.637378 0.138167
H9    H     H_    0.969668 0.387275 0.406427 0.152583
H10   H     H_    0.012159 0.546656 0.642154 0.143286
H11   H     H_    0.750411 0.444375 0.210709 0.172056
H12   H     H_    0.241487 0.483113 0.795489 0.166197
H13   H     H_    0.182364 0.468103 0.963960 0.153523
H14   H     H_    0.800191 0.404142 0.047486 0.152307
H15   H     H_    0.345751 0.463346 0.180926 0.142248
H16   H     H_    0.631545 0.400861 0.836141 0.189100
H17   H     H_    0.672606 0.939604 0.433499 0.225291
H18   H     H_    0.508404 0.050293 0.374567 0.222121
N1    N     N_R   0.747530 0.500020 0.500000 -0.087857
N2    N     N_R   0.252470 0.499980 0.500000 -0.098077
O1    O     O_R   0.420530 0.630930 0.499990 -0.556330
O2    O     O_R   0.579470 0.369070 0.500010 -0.626411
O3    O     O_R   0.579480 0.630940 0.499990 -0.584643
O4    O     O_R   0.420520 0.369060 0.500010 -0.551793
O5    O     O_R   0.375120 0.499990 0.632240 -0.628583
O6    O     O_R   0.624880 0.500010 0.367760 -0.592332
O7    O     O_R   0.534080 0.500000 0.632240 -0.625733
O8    O     O_R   0.465920 0.500000 0.367760 -0.642803
Zn1   Zn    Zn3+2 0.393860 0.499990 0.500000 1.035956
Zn2   Zn    Zn3+2 0.606140 0.500010 0.500000 1.026053
N3    N     N_3   0.458274 0.581528 0.207761 -0.431269
H19   H     H_    0.490803 0.638165 0.224180 0.244276
H20   H     H_    0.397105 0.562039 0.265923 0.205857
N4    N     N_3   0.566667 0.542280 0.782732 -0.467053
H21   H     H_    0.557186 0.603400 0.753635 0.189859
H22   H     H_    0.619073 0.501450 0.733152 0.221906
S1    S     S_3+6 0.302827 0.973638 0.595198 0.110044
O9    O     O_2   0.273910 0.028395 0.527082 -0.247717
O10   O     O_2   0.217190 0.912516 0.646722 -0.188736
O11   O     O_3   0.320386 0.043025 0.672407 -0.510559
H23   H     H_    0.263769 0.087265 0.687750 0.397221
S2    S     S_3+6 0.566733 0.040590 0.666181 0.094094
O12   O     O_2   0.622410 0.104066 0.704840 -0.253080
O13   O     O_2   0.475082 0.005977 0.743158 -0.188947
O14   O     O_3   0.645420 0.953932 0.618741 -0.583210
H24   H     H_    0.654767 0.922561 0.671331 0.389651
S3    S     S_3+6 0.304127 0.782127 0.486817 0.106040
O15   O     O_2   0.237001 0.732597 0.570815 -0.284195
O16   O     O_2   0.244579 0.858016 0.466603 -0.180494
O17   O     O_3   0.340523 0.713315 0.394775 -0.555352
H25   H     H_    0.277340 0.684225 0.396645 0.372629
S4    S     S_3+6 0.470241 0.250373 0.691499 0.087554
O18   O     O_2   0.380807 0.309396 0.698823 -0.311380
O19   O     O_2   0.438990 0.191049 0.775154 -0.153234
O20   O     O_3   0.566889 0.314838 0.690934 -0.550517
H26   H     H_    0.629356 0.279679 0.657389 0.360628
S5    S     S_3+6 0.714482 0.761577 0.373586 0.077702
O21   O     O_2   0.693474 0.686322 0.319773 -0.269087
O22   O     O_2   0.780538 0.828468 0.306668 -0.250499
O23   O     O_3   0.777200 0.721367 0.438816 -0.520913
H27   H     H_    0.783145 0.773050 0.476013 0.356260
S6    S     S_3+6 0.513718 0.232874 0.322340 0.041488
O24   O     O_2   0.604933 0.292010 0.289460 -0.358516
O25   O     O_2   0.523935 0.163275 0.249955 -0.245553
O26   O     O_3   0.408334 0.294781 0.339058 -0.538269
H28   H     H_    0.421787 0.326609 0.279838 0.364797

loop_
_geom_bond_atom_site_label_1
_geom_bond_atom_site_label_2
_ccdc_geom_bond_type
S5    O21   D    
C27   C29   A    
C23   O5    A    
C34   C42   A    
C43   C44   A    
C2    C12   S    
C9    S3    S    
C25   H7    S    
S1    O9    D    
C24   O6    A    
C39   C41   A    
C20   C30   A    
C32   C36   A    
C19   C21   A    
C2    O4    A    
N4    H22   S    
S6    O24   D    
O2    Zn2   S    
S4    O20   S    
O1    Zn1   S    
C15   C17   A    
C25   N1    A    
C26   N2    A    
C33   C35   A    
C7    C17   A    
S4    O19   D    
O6    Zn2   S    
C1    O1    A    
N2    Zn1   S    
O5    Zn1   S    
C32   C38   A    
C8    S2    S    
C22   H6    S    
C40   C42   A    
S5    O22   D    
C16   H18   S    
C21   H5    S    
O23   H27   S    
S1    O10   D    
C38   N3    S    
C3    C44   A    
S2    O13   D    
C23   O7    A    
O11   H23   S    
C4    C6    A    
S3    O15   D    
C28   H10   S    
S2    O12   D    
C39   C43   A    
C2    O2    A    
O4    Zn1   S    
C5    H1    S    
C8    C18   A    
C31   C37   A    
C23   C31   S    
N3    H19   S    
C24   C32   S    
C29   C30   S    
C26   H8    S    
S3    O16   D    
N3    H20   S    
O20   H26   S    
C10   S4    S    
S4    O18   D    
C4    H16   S    
C17   C18   S    
C15   H17   S    
C19   H3    S    
O3    Zn2   S    
C9    C11   A    
C20   H4    S    
C10   C12   A    
C16   C18   A    
C7    S1    S    
C12   C14   A    
S5    O23   S    
C13   C15   A    
C14   C16   A    
C13   S5    S    
C19   C29   A    
S1    O11   S    
C24   O8    A    
C7    C9    A    
C5    C41   A    
C33   H13   S    
C6    H2    S    
C35   H12   S    
N4    H21   S    
C20   C22   A    
O8    Zn1   S    
C3    C5    A    
S2    O14   S    
O7    Zn2   S    
C27   H9    S    
N1    Zn2   S    
C25   C27   A    
C37   N4    S    
C26   C28   A    
C33   C41   A    
C28   C30   A    
C37   C39   A    
C36   H11   S    
O26   H28   S    
S3    O17   S    
C38   C40   A    
C11   C13   A    
S6    O25   D    
C31   C35   A    
C1    O3    A    
C4    C43   A    
C34   C36   A    
O17   H25   S    
C21   N1    A    
C22   N2    A    
C40   C44   A    
C8    C10   A    
C6    C42   A    
C14   S6    S    
C34   H14   S    
C1    C11   S    
O14   H24   S    
S6    O26   S    
C3    H15   S    
