data_mof_unit_14803.cif
_audit_creation_date              2012-12-11T15:53:47-0500
_audit_creation_method            fapswitch 2.2
_symmetry_space_group_name_H-M    P1
_symmetry_Int_Tables_number       1
_space_group_crystal_system       triclinic
_cell_length_a                    10.778399
_cell_length_b                    10.778403
_cell_length_c                    17.081387
_cell_angle_alpha                 80.440021
_cell_angle_beta                  99.641528
_cell_angle_gamma                 119.121252
_cell_volume                      1700.8190247

loop_
_atom_site_label
_atom_site_type_symbol
_atom_type_description
_atom_site_fract_x
_atom_site_fract_y
_atom_site_fract_z
_atom_type_partial_charge
C1    C     C_R   0.383845 0.281645 0.631995 0.543745
C2    C     C_R   0.515803 0.715847 0.735454 0.196418
C3    C     C_R   0.493166 0.728524 0.813051 0.262182
C4    C     C_3   0.100685 0.425734 0.787733 0.482954
C5    C     C_3   0.126548 0.414754 0.702648 0.588677
C6    C     C_R   0.402894 0.618195 0.686369 -0.046573
C7    C     C_1   0.844584 0.668231 0.703560 -0.014960
C8    C     C_1   0.892973 0.703112 0.769841 -0.005866
C9    C     C_1   0.364629 0.230676 0.714367 -0.025243
C10   C     C_1   0.332890 0.184549 0.781444 -0.006834
C11   C     C_1   0.331817 0.672086 0.279136 0.035832
C12   C     C_R   0.414832 0.619647 0.601729 0.585521
C13   C     C_1   0.319083 0.681800 0.208360 0.029888
C14   C     C_R   0.901520 0.697105 0.171926 0.040654
C15   C     C_R   0.810566 0.561136 0.204007 0.004628
C16   C     C_R   0.769880 0.540434 0.278242 0.001756
C17   C     C_R   0.902961 0.793724 0.290765 -0.163670
C18   C     C_R   0.945164 0.813802 0.214799 -0.148669
C19   C     C_3   0.823244 0.426789 0.215676 0.125732
C20   C     C_3   0.770404 0.399983 0.296636 0.223524
C21   C     C_R   0.821761 0.654407 0.324263 0.052361
C22   C     C_R   0.314362 0.137198 0.167987 -0.011650
C23   C     C_R   0.776947 0.619185 0.627162 0.528479
C24   C     C_R   0.221755 0.169559 0.195526 -0.039972
C25   C     C_R   0.213522 0.164615 0.273313 -0.114422
C26   C     C_R   0.401951 0.101642 0.308739 0.182560
C27   C     C_R   0.405432 0.098740 0.225958 0.237279
C28   C     C_3   0.112234 0.218390 0.167150 0.493901
C29   C     C_3   0.109662 0.223657 0.256339 0.194022
C30   C     C_R   0.314039 0.150567 0.331307 -0.042843
C31   C     C_R   0.945079 0.724377 0.851656 0.574119
C32   C     C_R   0.316830 0.704336 0.900173 0.569848
C33   C     C_R   0.285822 0.117297 0.858286 0.554516
C34   C     C_R   0.348036 0.221312 0.402443 0.544794
C35   C     C_R   0.949508 0.715979 0.095483 0.565902
C36   C     C_R   0.310486 0.704583 0.125012 0.586473
C37   C     C_R   0.284493 0.103528 0.086499 0.557952
C38   C     C_R   0.363582 0.656399 0.361859 0.576536
C39   C     C_R   0.772712 0.622617 0.400992 0.534484
C40   C     C_R   0.353107 0.653373 0.837678 -0.030698
C41   C     C_R   0.250163 0.547535 0.791479 -0.083216
C42   C     C_R   0.278217 0.524646 0.721950 -0.053060
Cr1   Cr    Cr6+3 0.608440 0.389080 0.519680 0.996733
Cr2   Cr    Cr6+3 0.288640 0.400090 0.490760 1.020210
Cr3   Cr    Cr6+3 0.602940 0.710800 0.489510 1.009498
Cr4   Cr    Cr6+3 0.052530 0.947560 0.964210 1.029644
Cr5   Cr    Cr6+3 0.059970 0.626800 0.992920 1.012874
Cr6   Cr    Cr6+3 0.373320 0.938440 0.995370 0.999615
H1    H     H_    0.749659 0.346246 0.173793 0.088149
H2    H     H_    0.660231 0.312110 0.301514 0.107992
H3    H     H_    0.005882 0.150897 0.280830 0.114159
H4    H     H_    0.939451 0.884188 0.324405 0.113021
H5    H     H_    0.018492 0.917279 0.191146 0.176866
O1    O     O_R   0.754020 0.497590 0.609930 -0.517744
O2    O     O_R   0.295080 0.533620 0.397890 -0.465284
O3    O     O_R   0.485280 0.746620 0.388440 -0.505261
O4    O     O_R   0.720550 0.696220 0.420010 -0.515355
O5    O     O_3   0.500010 0.499990 0.499980 -0.297381
O6    O     O_R   0.163320 0.092900 0.874450 -0.462949
O7    O     O_R   0.934650 0.822080 0.882840 -0.482936
O8    O     O_R   0.915520 0.604140 0.893670 -0.490500
O9    O     O_R   0.191760 0.638110 0.923230 -0.506031
O10   O     O_R   0.406180 0.826930 0.920660 -0.496586
O11   O     O_R   0.358620 0.062870 0.901950 -0.527410
O12   O     O_R   0.481420 0.271390 0.600630 -0.519515
O13   O     O_R   0.163910 0.085460 0.050210 -0.503732
O14   O     O_R   0.935200 0.815170 0.045770 -0.489478
O15   O     O_R   0.916120 0.596690 0.069430 -0.531993
O16   O     O_R   0.192310 0.631200 0.086170 -0.486191
O17   O     O_R   0.406770 0.819480 0.096420 -0.514868
O18   O     O_R   0.359170 0.055960 0.064880 -0.453539
O19   O     O_3   0.161940 0.837600 0.984160 -0.307860
O20   O     O_R   0.263810 0.254550 0.589590 -0.494680
O21   O     O_R   0.300820 0.531200 0.560890 -0.495085
O22   O     O_R   0.491480 0.744020 0.564270 -0.495830
O23   O     O_R   0.726290 0.693800 0.583010 -0.492090
O24   O     O_R   0.747830 0.500190 0.434090 -0.499235
O25   O     O_R   0.475680 0.273800 0.437630 -0.493341
O26   O     O_R   0.257620 0.257160 0.413750 -0.515244
O27   O     O_3   0.646721 0.797724 0.707625 -0.699097
H6    H     H_    0.658707 0.896047 0.697945 0.295453
O28   O     O_3   0.873843 0.401847 0.360033 -0.489819
C43   C     C_3   0.834518 0.261325 0.394820 0.004878
H7    H     H_    0.797318 0.184448 0.349001 0.135989
H8    H     H_    0.749228 0.227202 0.434510 0.167950
C44   C     C_3   0.963498 0.258661 0.444361 -0.320600
H9    H     H_    0.008369 0.338950 0.488198 0.180168
H10   H     H_    0.934014 0.150458 0.475422 0.058324
H11   H     H_    0.045338 0.286227 0.404383 0.240763
O29   O     O_3   0.485608 0.058865 0.364711 -0.742642
H12   H     H_    0.449301 0.038067 0.417494 0.334737
O30   O     O_3   0.494271 0.057721 0.200884 -0.706107
H13   H     H_    0.552283 0.036896 0.247180 0.353161
O31   O     O_3   0.985300 0.111742 0.130762 -0.572375
C45   C     C_3   0.874043 0.148254 0.119159 -0.029566
H14   H     H_    0.869989 0.199957 0.057535 0.129495
H15   H     H_    0.884965 0.220548 0.161810 0.152492
C46   C     C_3   0.733884 0.013686 0.131153 -0.371575
H16   H     H_    0.726798 0.976589 0.195723 0.146470
H17   H     H_    0.645318 0.038088 0.107171 0.182690
H18   H     H_    0.724460 0.926832 0.099868 0.174977
O32   O     O_3   0.167694 0.351646 0.121609 -0.693144
H19   H     H_    0.176150 0.334178 0.068014 0.331583
O33   O     O_3   0.168819 0.363536 0.276177 -0.625494
H20   H     H_    0.271229 0.412901 0.266831 0.334545
O34   O     O_3   0.606482 0.787280 0.871009 -0.515020
C47   C     C_3   0.692586 0.935177 0.853170 0.024216
H21   H     H_    0.632101 0.989074 0.817966 0.091508
H22   H     H_    0.781416 0.953650 0.820275 0.171573
C48   C     C_3   0.758362 0.001628 0.931539 -0.325076
H23   H     H_    0.859942 0.101059 0.923920 0.090537
H24   H     H_    0.682822 0.025002 0.955109 0.122232
H25   H     H_    0.783361 0.927304 0.975657 0.215907
O35   O     O_3   0.987143 0.458356 0.788733 -0.557414
C49   C     C_3   0.868073 0.338353 0.822554 0.031959
H26   H     H_    0.882068 0.340394 0.888375 0.147141
H27   H     H_    0.855170 0.235790 0.808788 0.127083
C50   C     C_3   0.725855 0.333856 0.790263 -0.373759
H28   H     H_    0.705888 0.323309 0.725518 0.187585
H29   H     H_    0.639281 0.238024 0.819489 0.085880
H30   H     H_    0.719861 0.427510 0.803319 0.182254
O36   O     O_3   0.098711 0.312713 0.843786 -0.695175
H31   H     H_    0.117596 0.345736 0.897541 0.312683
O37   O     O_3   0.119636 0.282596 0.695481 -0.513912
C51   C     C_3   0.979701 0.180126 0.670562 0.055946
H32   H     H_    0.948342 0.208499 0.607998 0.147149
H33   H     H_    0.900456 0.170022 0.708137 0.113383
C52   C     C_3   0.974188 0.035567 0.675432 -0.383201
H34   H     H_    0.981818 0.993685 0.738807 0.173693
H35   H     H_    0.873131 0.960783 0.643644 0.144563
H36   H     H_    0.062394 0.042629 0.646730 0.173566
O38   O     O_3   0.050990 0.457933 0.635897 -0.566881
C53   C     C_3   0.090191 0.605866 0.622732 0.006660
H37   H     H_    0.202183 0.682013 0.639942 0.096440
H38   H     H_    0.027355 0.626869 0.657488 0.167665
C54   C     C_3   0.062447 0.645148 0.534299 -0.324516
H39   H     H_    0.039383 0.736644 0.525390 0.084865
H40   H     H_    0.156973 0.675028 0.503027 0.160452
H41   H     H_    0.971681 0.552206 0.507702 0.224730
O39   O     O_3   0.966400 0.456087 0.222924 -0.614681
H42   H     H_    0.987431 0.452023 0.169583 0.361004

loop_
_geom_bond_atom_site_label_1
_geom_bond_atom_site_label_2
_ccdc_geom_bond_type
C5    C42   S    
C16   C21   A    
C20   O28   S    
Cr4   O6    S    
C41   C42   A    
C14   C18   A    
C19   C20   S    
C23   O23   A    
C52   H34   S    
Cr5   O9    S    
O35   C49   S    
C45   C46   S    
C7    C8    T    
Cr1   O25   S    
C15   C19   S    
C5    O37   S    
Cr3   O4    S    
C26   C27   A    
Cr3   O23   S    
C39   O24   A    
C4    O35   S    
C28   C29   S    
Cr4   O13   S    
C12   O21   A    
C6    C12   S    
C44   H10   S    
Cr6   O11   S    
C4    C41   S    
C15   C16   A    
C39   O4    A    
C28   O31   S    
C31   O8    A    
C48   H23   S    
Cr5   O16   S    
C20   H2    S    
Cr1   O5    S    
C50   H28   S    
C5    O38   S    
C38   O2    A    
C45   H14   S    
Cr3   O3    S    
Cr2   O5    S    
C19   O39   S    
C49   H27   S    
C53   C54   S    
C1    O12   A    
C47   H21   S    
C9    C10   T    
Cr4   O19   S    
C18   H5    S    
Cr1   O12   S    
C33   O6    A    
C47   H22   S    
C2    C6    A    
Cr6   O19   S    
C54   H41   S    
C17   H4    S    
O33   H20   S    
C36   O17   A    
C50   H29   S    
C3    O34   S    
C25   C29   S    
Cr3   O5    S    
C30   C34   S    
O32   H19   S    
C1    C9    S    
O39   H42   S    
C13   C36   S    
C54   H40   S    
C14   C35   S    
C44   H9    S    
O27   H6    S    
Cr6   O10   S    
C22   C37   S    
O28   C43   S    
C17   C21   A    
C29   O33   S    
C50   H30   S    
C31   O7    A    
C11   C38   S    
C34   O26   A    
C51   C52   S    
C19   H1    S    
Cr1   O1    S    
C43   H7    S    
C21   C39   S    
C35   O14   A    
C16   C20   S    
C49   C50   S    
C37   O13   A    
C17   C18   A    
C4    O36   S    
C27   O30   S    
C24   C25   A    
Cr2   O21   S    
C48   H25   S    
C40   C41   A    
C43   H8    S    
C3    C40   A    
C26   C30   A    
C46   H17   S    
C22   C27   A    
C37   O18   A    
C6    C42   A    
C53   H37   S    
C47   C48   S    
C22   C24   A    
C26   O29   S    
Cr6   O18   S    
C52   H36   S    
Cr5   O15   S    
C36   O16   A    
C23   O1    A    
C51   H33   S    
C29   H3    S    
C25   C30   A    
Cr4   O7    S    
C8    C31   S    
Cr2   O26   S    
C24   C28   S    
C32   O10   A    
Cr6   O17   S    
C54   H39   S    
C44   H11   S    
C52   H35   S    
Cr5   O8    S    
C45   H15   S    
Cr1   O24   S    
C46   H18   S    
Cr3   O22   S    
C1    O20   A    
C2    C3    A    
C32   O9    A    
Cr4   O14   S    
C34   O25   A    
C11   C13   T    
Cr2   O2    S    
O29   H12   S    
C51   H32   S    
C35   O15   A    
C33   O11   A    
C7    C23   S    
O30   H13   S    
O38   C53   S    
C10   C33   S    
C32   C40   S    
O31   C45   S    
C48   H24   S    
Cr5   O19   S    
C2    O27   S    
C28   O32   S    
C4    C5    S    
C43   C44   S    
C38   O3    A    
C46   H16   S    
O34   C47   S    
C12   O22   A    
C53   H38   S    
C14   C15   A    
O36   H31   S    
C49   H26   S    
O37   C51   S    
Cr2   O20   S    
