data_mof_unit_21837.cif
_audit_creation_date              2012-12-10T16:50:11-0500
_audit_creation_method            fapswitch 2.2
_symmetry_space_group_name_H-M    P1
_symmetry_Int_Tables_number       1
_space_group_crystal_system       triclinic
_cell_length_a                    7.799072
_cell_length_b                    8.580244
_cell_length_c                    10.662807
_cell_angle_alpha                 91.267207
_cell_angle_beta                  85.762957
_cell_angle_gamma                 93.377976
_cell_volume                      710.233537343

loop_
_atom_site_label
_atom_site_type_symbol
_atom_type_description
_atom_site_fract_x
_atom_site_fract_y
_atom_site_fract_z
_atom_type_partial_charge
C1    C     C_R   0.545448 0.794544 0.496457 0.938700
C2    C     C_R   0.454540 0.205445 0.502982 0.987159
C3    C     C_R   0.499203 0.509632 0.260551 0.888441
C4    C     C_R   0.296992 0.739139 0.881643 -0.213490
C5    C     C_R   0.168673 0.816370 0.950877 -0.167651
C6    C     C_R   0.147492 0.799633 0.080286 0.219703
C7    C     C_R   0.262161 0.714466 0.141454 -0.191341
C8    C     C_R   0.386242 0.625623 0.072075 0.066868
C9    C     C_R   0.398398 0.634009 0.940197 0.106183
C10   C     C_R   0.511757 0.536001 0.870699 -0.096011
C11   C     C_R   0.625417 0.446968 0.928261 -0.207195
C12   C     C_R   0.619649 0.443458 0.055906 -0.168885
C13   C     C_R   0.498718 0.527362 0.128016 -0.086763
C14   C     C_2   0.569431 0.957865 0.494059 -0.345688
C15   C     C_2   0.430486 0.042065 0.504240 -0.380490
C16   C     C_R   0.503925 0.512567 0.738930 0.853114
H1    H     H_    0.713390 0.373272 0.874469 0.174173
H2    H     H_    0.986362 0.616066 0.596138 0.166187
H3    H     H_    0.084922 0.888311 0.903584 0.159812
H4    H     H_    0.248141 0.719740 0.242444 0.192246
H5    H     H_    0.705843 0.368666 0.098330 0.190556
H6    H     H_    0.700897 0.008333 0.484235 0.205193
H7    H     H_    0.299009 0.991590 0.513846 0.190252
H8    H     H_    0.313950 0.762028 0.782127 0.166294
I1    I     I_    0.935749 0.894737 0.182905 -0.372570
I2    I     I_    0.038443 0.300373 0.330238 -0.199217
N1    N     N_2   0.950330 0.457950 0.466250 0.012240
N2    N     N_2   0.049670 0.542050 0.533750 -0.139425
O1    O     O_R   0.389250 0.738570 0.508280 -0.638563
O2    O     O_R   0.678390 0.711630 0.486650 -0.621042
O3    O     O_R   0.355400 0.513470 0.694050 -0.625371
O4    O     O_R   0.644540 0.486530 0.672420 -0.639516
O5    O     O_R   0.321610 0.288370 0.513350 -0.594992
O6    O     O_R   0.610750 0.261430 0.491720 -0.602689
O7    O     O_R   0.355460 0.513470 0.327580 -0.614179
O8    O     O_R   0.644600 0.486530 0.305950 -0.593396
Zn1   Zn    Zn3+2 0.306930 0.517990 0.514440 0.978345
Zn2   Zn    Zn3+2 0.693070 0.482010 0.485560 1.003006

loop_
_geom_bond_atom_site_label_1
_geom_bond_atom_site_label_2
_ccdc_geom_bond_type
C8    C9    A    
C11   C12   A    
C6    C7    A    
C5    H3    S    
O4    Zn2   S    
C16   O4    A    
C9    C10   A    
C3    C13   S    
C3    O7    A    
C14   H6    S    
C15   H7    S    
C7    C8    A    
C10   C16   S    
C16   O3    A    
C2    C15   S    
C2    O6    A    
I2    N1    S    
C8    C13   A    
C3    O8    A    
N2    Zn1   S    
C2    O5    A    
O8    Zn2   S    
C1    O2    A    
O7    Zn1   S    
C5    C6    A    
C4    H8    S    
C6    I1    S    
C10   C11   A    
C1    O1    A    
N1    Zn2   S    
H2    N2    S    
C12   C13   A    
O2    Zn2   S    
C7    H4    S    
O1    Zn1   S    
N1    N2    D    
C14   C15   D    
C11   H1    S    
C1    C14   S    
C4    C9    A    
O6    Zn2   S    
C12   H5    S    
O5    Zn1   S    
O3    Zn1   S    
C4    C5    A    
