data_mof_unit_51443.cif
_audit_creation_date              2012-12-11T15:56:55-0500
_audit_creation_method            fapswitch 2.2
_symmetry_space_group_name_H-M    P1
_symmetry_Int_Tables_number       1
_space_group_crystal_system       triclinic
_cell_length_a                    17.46954
_cell_length_b                    24.399721
_cell_length_c                    14.988314
_cell_angle_alpha                 90.01379
_cell_angle_beta                  125.972236
_cell_angle_gamma                 89.996423
_cell_volume                      5170.46453785

loop_
_atom_site_label
_atom_site_type_symbol
_atom_type_description
_atom_site_fract_x
_atom_site_fract_y
_atom_site_fract_z
_atom_type_partial_charge
C1    C     C_R   0.345229 0.150539 0.908369 -0.044493
C2    C     C_R   0.344715 0.849644 0.908436 -0.039246
C3    C     C_R   0.844712 0.650344 0.908489 -0.038233
C4    C     C_R   0.845431 0.349394 0.908321 -0.043404
C5    C     C_R   0.690962 0.122557 0.093008 -0.142111
C6    C     C_R   0.691076 0.877695 0.092982 -0.139669
C7    C     C_R   0.191070 0.622327 0.092979 -0.140255
C8    C     C_R   0.191062 0.377626 0.092963 -0.142883
C9    C     C_R   0.599727 0.878027 0.908637 -0.108590
C10   C     C_R   0.599582 0.122225 0.908636 -0.107308
C11   C     C_R   0.099685 0.377951 0.908627 -0.107739
C12   C     C_R   0.099698 0.621976 0.908618 -0.108361
C13   C     C_R   0.427974 0.999741 0.629625 0.090011
C14   C     C_R   0.926741 0.499848 0.628971 0.092925
C15   C     C_R   0.811832 0.000031 0.358822 0.087013
C16   C     C_R   0.311713 0.500005 0.358996 0.091533
C17   C     C_R   0.688939 0.135426 0.001498 0.049818
C18   C     C_R   0.689112 0.864862 0.001500 0.048699
C19   C     C_R   0.189081 0.635164 0.001479 0.048796
C20   C     C_R   0.189103 0.364833 0.001448 0.050420
C21   C     C_3   0.033532 0.954779 0.468250 -0.085938
C22   C     C_3   0.037529 0.000007 0.597526 -0.146163
C23   C     C_3   0.533404 0.454718 0.468494 -0.096672
C24   C     C_3   0.537437 0.500037 0.597691 -0.144830
C25   C     C_3   0.974321 0.954756 0.514356 -0.142132
C26   C     C_3   0.474219 0.454756 0.514626 -0.134610
C27   C     C_3   0.912864 0.000034 0.432929 0.140805
C28   C     C_3   0.412742 0.499998 0.433119 0.140141
C29   C     C_3   0.970045 0.000039 0.385100 -0.231858
C30   C     C_3   0.974367 0.045285 0.514458 -0.136165
C31   C     C_3   0.469897 0.499942 0.385262 -0.234661
C32   C     C_3   0.474250 0.545278 0.514538 -0.140233
C33   C     C_3   0.033582 0.045273 0.468355 -0.096202
C34   C     C_3   0.533433 0.545204 0.468403 -0.087587
C35   C     C_R   0.440618 0.848861 0.092481 -0.159397
C36   C     C_R   0.441606 0.151595 0.092181 -0.185353
C37   C     C_R   0.941766 0.348350 0.092105 -0.183060
C38   C     C_R   0.940530 0.651091 0.092564 -0.157016
C39   C     C_3   0.095583 0.000011 0.550364 0.217031
C40   C     C_3   0.595458 0.499982 0.550497 0.216742
C41   C     C_3   0.396745 0.734943 0.111008 -0.102917
C42   C     C_3   0.397561 0.265650 0.110618 -0.093490
C43   C     C_3   0.897412 0.234551 0.110804 -0.093050
C44   C     C_3   0.896742 0.765055 0.111099 -0.103361
C45   C     C_3   0.842663 0.185890 0.113666 -0.480973
C46   C     C_3   0.842375 0.813973 0.113839 -0.479471
C47   C     C_3   0.342371 0.686040 0.113768 -0.479791
C48   C     C_3   0.342891 0.314390 0.113471 -0.481569
C49   C     C_3   0.797515 0.230668 0.900053 0.329034
C50   C     C_3   0.797002 0.768865 0.900359 0.332677
C51   C     C_3   0.296968 0.731093 0.900267 0.332500
C52   C     C_3   0.297006 0.269142 0.899796 0.328364
C53   C     C_3   0.236958 0.786345 0.994611 -0.003151
C54   C     C_3   0.238231 0.213824 0.995422 0.015730
C55   C     C_3   0.737990 0.286372 0.994394 0.011926
C56   C     C_3   0.736929 0.713676 0.994678 -0.003193
C57   C     C_3   0.328472 0.768823 0.001994 0.123936
C58   C     C_3   0.329284 0.231547 0.001911 0.123997
C59   C     C_3   0.829388 0.268474 0.001759 0.123424
C60   C     C_3   0.828461 0.731161 0.002081 0.123979
C61   C     C_3   0.743131 0.181569 0.001966 0.255850
C62   C     C_3   0.742932 0.818486 0.002026 0.259682
C63   C     C_3   0.242910 0.681530 0.001992 0.259242
C64   C     C_3   0.243208 0.318631 0.001888 0.257090
C65   C     C_3   0.756801 0.176598 0.908809 -0.481240
C66   C     C_3   0.756837 0.823182 0.909065 -0.490008
C67   C     C_3   0.256748 0.676804 0.908971 -0.489250
C68   C     C_3   0.256679 0.323382 0.908570 -0.482293
C69   C     C_3   0.684235 0.233798 0.983701 -0.424216
C70   C     C_3   0.683452 0.766469 0.983464 -0.420225
C71   C     C_3   0.183500 0.733564 0.983531 -0.419797
C72   C     C_3   0.184222 0.266451 0.983739 -0.426568
C73   C     C_3   0.528867 0.006874 0.571188 -0.494264
C74   C     C_3   0.383883 0.945653 0.463333 -0.474925
C75   C     C_3   0.874572 0.551165 0.456505 -0.468813
C76   C     C_3   0.029395 0.497918 0.572113 -0.492355
C77   C     C_R   0.477929 0.046116 0.245180 -0.021336
C78   C     C_R   0.481416 0.954422 0.250314 -0.107729
C79   C     C_R   0.981937 0.545525 0.251077 -0.111133
C80   C     C_R   0.978137 0.453810 0.245337 -0.005218
C81   C     C_3   0.537704 0.000015 0.476793 0.277364
C82   C     C_3   0.385741 0.947800 0.361805 0.310239
C83   C     C_3   0.881433 0.550227 0.358456 0.274502
C84   C     C_3   0.038164 0.504472 0.477416 0.270810
C85   C     C_3   0.362131 0.047013 0.450207 -0.429022
C86   C     C_3   0.868963 0.449213 0.454817 -0.475205
C87   C     C_3   0.424600 0.999769 0.529620 0.196701
C88   C     C_3   0.923918 0.499576 0.529209 0.212211
C89   C     C_3   0.436547 0.001912 0.364104 0.039600
C90   C     C_3   0.937744 0.497865 0.365053 0.044403
C91   C     C_3   0.378239 0.053823 0.359079 0.109962
C92   C     C_3   0.887663 0.443026 0.365806 0.108356
C93   C     C_R   0.243630 0.954494 0.693589 0.377976
C94   C     C_R   0.243676 0.045498 0.693577 0.377959
C95   C     C_R   0.743588 0.454489 0.693613 0.378854
C96   C     C_R   0.743583 0.545497 0.693632 0.378877
C97   C     C_R   0.374832 0.181199 0.000735 0.078187
C98   C     C_R   0.373780 0.819264 0.000947 0.065215
C99   C     C_R   0.873731 0.680700 0.001042 0.063802
C100  C     C_R   0.875104 0.318717 0.000630 0.076795
C101  C     C_R   0.450848 0.000666 0.275834 0.072653
C102  C     C_R   0.951678 0.499188 0.276675 0.107629
C103  C     C_R   0.197015 0.999993 0.630381 -0.148178
C104  C     C_R   0.696899 0.499988 0.630451 -0.149650
C105  C     C_R   0.447502 0.045362 0.694052 -0.119215
C106  C     C_R   0.446954 0.954350 0.693940 -0.126658
C107  C     C_R   0.946399 0.545396 0.693476 -0.128768
C108  C     C_R   0.946937 0.454439 0.694064 -0.120880
C109  C     C_R   0.761270 0.954249 0.301459 -0.139413
C110  C     C_R   0.761273 0.045792 0.301429 -0.105735
C111  C     C_R   0.261185 0.454234 0.301538 -0.107364
C112  C     C_R   0.261206 0.545772 0.301542 -0.136876
H1    H     H_    0.299122 0.163777 0.824030 0.180314
H2    H     H_    0.298746 0.836286 0.824153 0.179143
H3    H     H_    0.798784 0.663714 0.824226 0.178995
H4    H     H_    0.799391 0.336132 0.823981 0.179987
H5    H     H_    0.057512 0.918329 0.446686 0.174185
H6    H     H_    0.067838 0.999993 0.686654 0.130340
H7    H     H_    0.557367 0.418248 0.446962 0.171954
H8    H     H_    0.567771 0.500077 0.686820 0.131257
H9    H     H_    0.938927 0.000054 0.295752 0.139228
H10   H     H_    0.947712 0.081781 0.532596 0.139452
H11   H     H_    0.438760 0.499901 0.295916 0.138598
H12   H     H_    0.447603 0.581794 0.532627 0.134143
H13   H     H_    0.057595 0.081730 0.446871 0.172058
H14   H     H_    0.557415 0.581623 0.446806 0.173822
H15   H     H_    0.419739 0.760722 0.183773 0.110882
H16   H     H_    0.421101 0.239934 0.183623 0.114590
H17   H     H_    0.920661 0.260405 0.183563 0.113319
H18   H     H_    0.919714 0.739292 0.183856 0.110888
H19   H     H_    0.335912 0.693598 0.182168 0.156236
H20   H     H_    0.336781 0.306830 0.182127 0.155955
H21   H     H_    0.836326 0.193617 0.182116 0.155849
H22   H     H_    0.835881 0.806431 0.182209 0.156034
H23   H     H_    0.881712 0.146577 0.132666 0.166440
H24   H     H_    0.881802 0.853150 0.132940 0.170171
H25   H     H_    0.381766 0.646856 0.132822 0.169709
H26   H     H_    0.381928 0.353688 0.132183 0.166008
H27   H     H_    0.804979 0.141691 0.927125 0.215310
H28   H     H_    0.805443 0.857874 0.927568 0.214953
H29   H     H_    0.305292 0.642089 0.927402 0.215139
H30   H     H_    0.305027 0.358170 0.926743 0.215097
H31   H     H_    0.484655 0.835930 0.177543 0.099224
H32   H     H_    0.486252 0.164822 0.177059 0.112652
H33   H     H_    0.986499 0.335109 0.176957 0.110222
H34   H     H_    0.984451 0.663967 0.177677 0.099086
H35   H     H_    0.164759 0.734257 0.042946 0.192764
H36   H     H_    0.165271 0.265762 0.042962 0.189815
H37   H     H_    0.665860 0.234718 0.043444 0.189530
H38   H     H_    0.664570 0.765811 0.042749 0.192750
H39   H     H_    0.615113 0.231601 0.900975 0.177508
H40   H     H_    0.614594 0.768721 0.900477 0.177212
H41   H     H_    0.114571 0.731295 0.900618 0.177192
H42   H     H_    0.115380 0.268480 0.900694 0.177389
H43   H     H_    0.740633 0.250862 0.822519 0.087285
H44   H     H_    0.739892 0.748762 0.822815 0.084155
H45   H     H_    0.239886 0.751194 0.822729 0.084226
H46   H     H_    0.239787 0.248865 0.822559 0.086168
H47   H     H_    0.689128 0.168075 0.827573 0.152702
H48   H     H_    0.689323 0.831877 0.827786 0.146875
H49   H     H_    0.189198 0.668127 0.827707 0.147022
H50   H     H_    0.189000 0.331950 0.827385 0.151603
H51   H     H_    0.554850 0.047978 0.609946 0.210547
H52   H     H_    0.310886 0.938798 0.438788 0.233430
H53   H     H_    0.799547 0.552761 0.427411 0.229593
H54   H     H_    0.061991 0.458699 0.616564 0.209919
H55   H     H_    0.575291 0.976047 0.636080 0.170474
H56   H     H_    0.427533 0.910187 0.515057 0.139873
H57   H     H_    0.909430 0.589158 0.504683 0.146776
H58   H     H_    0.070284 0.531433 0.632789 0.167047
H59   H     H_    0.568914 0.958831 0.485240 0.090975
H60   H     H_    0.426668 0.911262 0.368585 0.053169
H61   H     H_    0.921598 0.587678 0.367471 0.067335
H62   H     H_    0.064398 0.546763 0.482149 0.090354
H63   H     H_    0.376243 0.086436 0.494113 0.147761
H64   H     H_    0.286618 0.037604 0.413209 0.199284
H65   H     H_    0.792376 0.454344 0.417306 0.185293
H66   H     H_    0.888793 0.410631 0.502408 0.156850
H67   H     H_    0.470243 0.088676 0.256137 0.113588
H68   H     H_    0.477017 0.912052 0.266994 0.091363
H69   H     H_    0.977872 0.587811 0.268778 0.092078
H70   H     H_    0.968828 0.411246 0.254253 0.108461
H71   H     H_    0.436092 0.087835 0.669256 0.129032
H72   H     H_    0.432951 0.911977 0.668196 0.138711
H73   H     H_    0.933032 0.587761 0.667752 0.137155
H74   H     H_    0.934994 0.411882 0.670009 0.130454
H75   H     H_    0.779344 0.912184 0.328638 0.097656
H76   H     H_    0.779342 0.087871 0.328557 0.099362
H77   H     H_    0.279219 0.412159 0.328669 0.098829
H78   H     H_    0.279269 0.587849 0.328689 0.097584
H79   H     H_    0.746544 0.130620 0.178189 0.097390
H80   H     H_    0.746686 0.869700 0.178162 0.099084
H81   H     H_    0.246705 0.630314 0.178168 0.099093
H82   H     H_    0.246694 0.369606 0.178137 0.097497
H83   H     H_    0.570640 0.870017 0.823457 0.097028
H84   H     H_    0.570462 0.130313 0.823495 0.097871
H85   H     H_    0.070602 0.369906 0.823476 0.097156
H86   H     H_    0.070588 0.629936 0.823419 0.097015
H87   H     H_    0.947639 0.918254 0.532419 0.133476
H88   H     H_    0.447546 0.418295 0.532784 0.139392
N1    N     N_R   0.392450 0.103580 0.942190 -0.046224
N2    N     N_R   0.392450 0.896420 0.942190 -0.045247
N3    N     N_R   0.892450 0.603580 0.942190 -0.045034
N4    N     N_R   0.892450 0.396420 0.942190 -0.045765
N5    N     N_R   0.450490 0.896000 0.057360 -0.047026
N6    N     N_R   0.450490 0.104000 0.057360 -0.054050
N7    N     N_R   0.950490 0.396000 0.057360 -0.053569
N8    N     N_R   0.950490 0.604000 0.057360 -0.046416
N9    N     N_R   0.525490 0.028390 0.207550 -0.040237
N10   N     N_R   0.525490 0.971610 0.207550 -0.042922
N11   N     N_R   0.025490 0.528390 0.207550 -0.043461
N12   N     N_R   0.025490 0.471610 0.207550 -0.045284
N13   N     N_R   0.317450 0.971190 0.792000 -0.106796
N14   N     N_R   0.317450 0.028810 0.792000 -0.107012
N15   N     N_R   0.817450 0.471190 0.792000 -0.106632
N16   N     N_R   0.817450 0.528810 0.792000 -0.106354
N17   N     N_R   0.473900 0.028390 0.792280 -0.047819
N18   N     N_R   0.473900 0.971610 0.792280 -0.048358
N19   N     N_R   0.973900 0.528390 0.792280 -0.048102
N20   N     N_R   0.973900 0.471610 0.792280 -0.048398
N21   N     N_R   0.682310 0.971180 0.208170 -0.045527
N22   N     N_R   0.682310 0.028820 0.208170 -0.046136
N23   N     N_R   0.182310 0.471180 0.208170 -0.046445
N24   N     N_R   0.182310 0.528820 0.208170 -0.045698
N25   N     N_R   0.606470 0.103570 0.057210 -0.040536
N26   N     N_R   0.606470 0.896430 0.057210 -0.041258
N27   N     N_R   0.106470 0.603570 0.057210 -0.041443
N28   N     N_R   0.106470 0.396430 0.057210 -0.040762
N29   N     N_R   0.549740 0.896000 0.943240 -0.031110
N30   N     N_R   0.549740 0.104000 0.943240 -0.031136
N31   N     N_R   0.049740 0.396000 0.943240 -0.031365
N32   N     N_R   0.049740 0.604000 0.943240 -0.031263
Ni1   Ni    Ni4+2 0.433780 0.065390 0.868430 0.269693
Ni2   Ni    Ni4+2 0.433780 0.934610 0.868430 0.270425
Ni3   Ni    Ni4+2 0.933780 0.565390 0.868430 0.271189
Ni4   Ni    Ni4+2 0.933780 0.434610 0.868430 0.269626
Ni5   Ni    Ni4+2 0.565800 0.934190 0.131570 0.222143
Ni6   Ni    Ni4+2 0.565800 0.065810 0.131570 0.236281
Ni7   Ni    Ni4+2 0.065800 0.434190 0.131570 0.235176
Ni8   Ni    Ni4+2 0.065800 0.565810 0.131570 0.224348
N33   N     N_3   0.483430 0.717487 0.124180 -0.168843
H89   H     H_    0.472646 0.680251 0.083873 0.196389
H90   H     H_    0.535602 0.709887 0.207827 0.117657
N34   N     N_3   0.483818 0.283388 0.123085 -0.173933
H91   H     H_    0.472455 0.320555 0.082384 0.183838
H92   H     H_    0.536145 0.291221 0.206597 0.106529
N35   N     N_3   0.983927 0.216743 0.123934 -0.174190
H93   H     H_    0.972809 0.179464 0.083627 0.184324
H94   H     H_    0.036056 0.209103 0.207578 0.106036
N36   N     N_3   0.983441 0.782490 0.124288 -0.168678
H95   H     H_    0.972679 0.819715 0.083987 0.196791
H96   H     H_    0.035610 0.790105 0.207939 0.118609
Cl1   Cl    Cl    0.886966 0.218195 0.878432 -0.672308
Cl2   Cl    Cl    0.886624 0.780835 0.878815 -0.679184
Cl3   Cl    Cl    0.386568 0.719065 0.878703 -0.677856
Cl4   Cl    Cl    0.386000 0.281303 0.877303 -0.672952
N37   N     N_3   0.174582 0.822402 0.898899 -0.208030
H97   H     H_    0.139992 0.801040 0.824454 0.101151
H98   H     H_    0.121067 0.837682 0.903619 0.178733
N38   N     N_3   0.176040 0.177302 0.900469 -0.212718
H99   H     H_    0.141232 0.198283 0.825609 0.103791
H100  H     H_    0.122722 0.162115 0.905632 0.166952
N39   N     N_3   0.675716 0.322334 0.898468 -0.211891
H101  H     H_    0.640839 0.300828 0.824162 0.104185
H102  H     H_    0.622410 0.337924 0.903266 0.167757
N40   N     N_3   0.674586 0.677551 0.899039 -0.207163
H103  H     H_    0.640067 0.698845 0.824545 0.101083
H104  H     H_    0.621023 0.662332 0.903722 0.179928
N41   N     N_3   0.260479 0.816354 0.093458 -0.172379
H105  H     H_    0.300312 0.851395 0.107439 0.164964
H106  H     H_    0.295333 0.792074 0.164270 0.119087
N42   N     N_3   0.262513 0.184242 0.094978 -0.206428
H107  H     H_    0.303473 0.149660 0.109868 0.106033
H108  H     H_    0.296723 0.208957 0.165199 0.103512
N43   N     N_3   0.761745 0.316649 0.093084 -0.204735
H109  H     H_    0.801198 0.351782 0.106421 0.122698
H110  H     H_    0.796929 0.292585 0.164193 0.101098
N44   N     N_3   0.760429 0.683760 0.093573 -0.171698
H111  H     H_    0.800443 0.648784 0.107748 0.168395
H112  H     H_    0.795141 0.708121 0.164296 0.118230
Cl5   Cl    Cl    0.625453 0.046795 0.494390 -0.669365
Cl6   Cl    Cl    0.270034 0.937347 0.236383 -0.679374
Cl7   Cl    Cl    0.768968 0.560953 0.229048 -0.706017
Cl8   Cl    Cl    0.131980 0.461908 0.498920 -0.668593
N45   N     N_3   0.429272 0.105713 0.378059 -0.218250
H113  H     H_    0.484626 0.110706 0.461330 0.176039
H114  H     H_    0.383781 0.138868 0.357785 0.079667
N46   N     N_3   0.285829 0.056591 0.250764 -0.147674
H115  H     H_    0.245899 0.088767 0.250141 0.112461
H116  H     H_    0.295710 0.065544 0.190015 0.122476
N47   N     N_3   0.798172 0.433581 0.256015 -0.193051
H117  H     H_    0.744478 0.458641 0.243771 0.192271
H118  H     H_    0.773630 0.393889 0.251634 0.090844
N48   N     N_3   0.949262 0.394687 0.394322 -0.200333
H119  H     H_    0.911137 0.358525 0.378765 0.085258
H120  H     H_    0.003813 0.393397 0.478509 0.176341
Cl9   Cl    Cl    0.234592 0.889194 0.639296 -0.729284
Cl10  Cl    Cl    0.234914 0.110722 0.639208 -0.732765
Cl11  Cl    Cl    0.734619 0.389230 0.639211 -0.732630
Cl12  Cl    Cl    0.734526 0.610780 0.639324 -0.729682

loop_
_geom_bond_atom_site_label_1
_geom_bond_atom_site_label_2
_ccdc_geom_bond_type
C55   C59   S    
C54   N38   S    
C15   C109  A    
C77   C101  A    
N47   H117  S    
C70   H38   S    
C42   C58   S    
C46   C62   S    
C108  H74   S    
C86   C88   S    
C44   H18   S    
C29   C33   S    
C86   H66   S    
N34   H91   S    
C62   C70   S    
C22   H6    S    
N29   Ni2   S    
C21   H5    S    
C17   C61   S    
N23   N24   A    
C19   C63   S    
N42   H107  S    
C2    N2    A    
C75   H57   S    
N1    N6    A    
C79   C102  A    
C76   H54   S    
C36   C97   A    
C51   C57   S    
C42   H16   S    
C51   Cl3   S    
C78   C101  A    
C112  N24   A    
C93   Cl9   S    
C1    H1    S    
C73   C81   S    
C44   C46   S    
C52   H46   S    
C11   C20   A    
C94   N14   A    
C72   H42   S    
C28   C32   S    
C81   Cl5   S    
N17   Ni1   S    
C21   C29   S    
C51   H45   S    
C47   H19   S    
C23   C31   S    
N15   N16   A    
C24   C32   S    
C25   H87   S    
N2    Ni2   S    
C15   C27   S    
C33   H13   S    
N6    Ni6   S    
C36   N6    A    
C76   H58   S    
N45   H114  S    
C52   C58   S    
C107  N19   A    
C14   C107  A    
C63   C71   S    
C111  H77   S    
C7    C19   A    
N41   H106  S    
C91   N45   S    
N14   Ni1   S    
C53   C71   S    
C109  N21   A    
N39   H102  S    
C11   N31   A    
C89   C101  S    
C49   H43   S    
C13   C106  A    
C9    H83   S    
C45   H21   S    
N25   N30   A    
C96   N16   A    
C48   H26   S    
C36   H32   S    
C14   C88   S    
N4    Ni4   S    
N23   Ni7   S    
C105  N17   A    
C74   H52   S    
C2    H2    S    
C7    N27   A    
N27   Ni8   S    
C5    N25   A    
C81   H59   S    
N12   Ni7   S    
C65   H27   S    
C61   C65   S    
C66   H28   S    
C73   H51   S    
C41   N33   S    
N16   Ni3   S    
C12   H86   S    
N33   H90   S    
N36   H96   S    
N28   N31   A    
C16   C111  A    
C71   H35   S    
C27   C29   S    
C41   H15   S    
C93   C103  A    
C8    N28   A    
C109  H75   S    
C110  H76   S    
C82   C89   S    
C64   C68   S    
N47   H118  S    
C24   C26   S    
C23   H7    S    
C10   N30   A    
N33   H89   S    
C38   H34   S    
C43   N35   S    
C22   C25   S    
C54   N42   S    
C68   H30   S    
C80   H70   S    
C74   C87   S    
C89   C91   S    
C26   H88   S    
C78   N10   A    
C43   C59   S    
C80   N12   A    
N26   Ni5   S    
C59   C100  S    
C84   C90   S    
C45   H23   S    
C62   C66   S    
N19   Ni3   S    
C43   H17   S    
C5    H79   S    
C18   C62   S    
C51   C67   S    
N17   N18   A    
C80   C102  A    
N46   H116  S    
N21   N22   A    
C10   H84   S    
N24   Ni8   S    
C13   C87   S    
N9    N10   A    
C41   C47   S    
C31   C34   S    
C42   C48   S    
C94   Cl10  S    
C43   C45   S    
N31   Ni4   S    
N40   H104  S    
C8    C20   A    
C6    H80   S    
C82   Cl6   S    
C21   C25   S    
C22   C30   S    
N15   Ni4   S    
N38   H99   S    
N3    N8    A    
C56   C70   S    
C49   C59   S    
C50   C60   S    
C55   C69   S    
C83   H61   S    
C30   H10   S    
C22   C39   S    
N34   H92   S    
C112  H78   S    
C3    C99   A    
C9    C18   A    
N42   H108  S    
C35   H31   S    
N44   H111  S    
C37   C100  A    
C3    N3    A    
N43   H109  S    
C73   H55   S    
C1    N1    A    
C76   C84   S    
C74   H56   S    
N39   H101  S    
C75   H53   S    
N13   N14   A    
C79   N11   A    
C77   H67   S    
C78   H68   S    
C47   C63   S    
N48   H119  S    
C48   C64   S    
C5    C17   A    
C23   C40   S    
C92   N48   S    
C85   H64   S    
C23   C26   S    
C73   C87   S    
N2    N5    A    
C29   H9    S    
C8    H82   S    
C35   C98   A    
N7    Ni7   S    
C81   C89   S    
C14   C108  A    
N41   H105  S    
N25   Ni6   S    
C37   N7    A    
C15   C110  A    
C91   N46   S    
C74   C82   S    
C84   H62   S    
N35   H94   S    
C82   H60   S    
C24   H8    S    
C93   N13   A    
N10   Ni5   S    
C53   N37   S    
C13   C105  A    
N19   N20   A    
C53   C57   S    
N36   H95   S    
C86   H65   S    
C56   C60   S    
N3    Ni3   S    
N45   H113  S    
C50   Cl2   S    
C67   H49   S    
N1    Ni1   S    
N11   N12   A    
N4    N7    A    
C34   H14   S    
C111  N23   A    
C105  H71   S    
N5    Ni5   S    
C106  H72   S    
C38   N8    A    
C44   N36   S    
C106  N18   A    
C94   C103  A    
C34   C40   S    
N13   Ni2   S    
C110  N22   A    
C16   C112  A    
C4    H4    S    
C28   C31   S    
C38   C99   A    
C39   C103  S    
C55   N43   S    
C69   H37   S    
C52   Cl4   S    
C41   C57   S    
C3    H3    S    
C75   C83   S    
C44   C60   S    
C57   C98   S    
C6    N26   A    
C12   C19   A    
C45   C61   S    
C83   Cl7   S    
C108  N20   A    
C79   H69   S    
N21   Ni5   S    
C48   H20   S    
C32   C34   S    
C16   C28   S    
C95   N15   A    
C32   H12   S    
C65   H47   S    
C60   C99   S    
N8    Ni8   S    
C66   H48   S    
C85   C91   S    
C84   Cl8   S    
C33   C39   S    
C49   C65   S    
C55   N39   S    
N43   H110  S    
N37   H97   S    
C4    N4    A    
C46   H22   S    
C10   C17   A    
C71   H41   S    
N30   Ni1   S    
C9    N29   A    
C96   Cl12  S    
C85   H63   S    
C90   C92   S    
C35   N5    A    
C90   C102  S    
C50   H44   S    
C7    H81   S    
C76   C88   S    
C52   C68   S    
C77   N9    A    
N27   N32   A    
C27   C30   S    
C58   C97   S    
C12   N32   A    
C85   C87   S    
C6    C18   A    
C63   C67   S    
C56   N44   S    
C69   H39   S    
C70   H40   S    
N9    Ni6   S    
N18   Ni2   S    
N28   Ni7   S    
N38   H100  S    
C1    C97   A    
C72   H36   S    
N22   Ni6   S    
N32   Ni3   S    
N37   H98   S    
C20   C64   S    
C11   H85   S    
C40   C104  S    
C49   Cl1   S    
C21   C39   S    
C47   H25   S    
C50   C66   S    
C53   N41   S    
C4    C100  A    
N44   H112  S    
C56   N40   S    
C95   C104  A    
C54   C58   S    
C61   C69   S    
C83   C90   S    
C30   C33   S    
N11   Ni8   S    
C95   Cl11  S    
N20   Ni4   S    
N35   H93   S    
C68   H50   S    
C25   C27   S    
N26   N29   A    
C107  H73   S    
C26   C28   S    
N46   H115  S    
C96   C104  A    
C31   H11   S    
C86   C92   S    
N48   H120  S    
C92   N47   S    
C42   N34   S    
C24   C40   S    
C64   C72   S    
N40   H103  S    
C46   H24   S    
C75   C88   S    
C54   C72   S    
C2    C98   A    
C37   H33   S    
C67   H29   S    
