data_mof_unit_48368.cif
_audit_creation_date              2012-12-10T19:14:25-0500
_audit_creation_method            fapswitch 2.2
_symmetry_space_group_name_H-M    P1
_symmetry_Int_Tables_number       1
_space_group_crystal_system       triclinic
_cell_length_a                    10.635867
_cell_length_b                    9.82852
_cell_length_c                    18.862612
_cell_angle_alpha                 90.280354
_cell_angle_beta                  84.151821
_cell_angle_gamma                 90.010458
_cell_volume                      1961.51391841

loop_
_atom_site_label
_atom_site_type_symbol
_atom_type_description
_atom_site_fract_x
_atom_site_fract_y
_atom_site_fract_z
_atom_type_partial_charge
C1    C     C_R   0.258256 0.499929 0.497491 0.915107
C2    C     C_R   0.632202 0.495984 0.063060 0.286212
C3    C     C_R   0.636474 0.611287 0.803595 -0.148604
C4    C     C_R   0.571673 0.375123 0.814518 -0.154298
C5    C     C_R   0.598303 0.614444 0.735283 -0.195991
C6    C     C_R   0.532229 0.379153 0.746760 -0.174112
C7    C     C_R   0.542076 0.499596 0.707336 -0.064612
C8    C     C_R   0.621517 0.492055 0.844085 0.083120
C9    C     C_3   0.057495 0.546733 0.569005 -0.308911
C10   C     C_3   0.075097 0.354588 0.478091 -0.385221
C11   C     C_3   0.913680 0.541051 0.569702 -0.441740
C12   C     C_3   0.932270 0.354316 0.476950 -0.393223
C13   C     C_3   0.083481 0.597889 0.437302 -0.428190
C14   C     C_3   0.121641 0.499641 0.495519 0.121004
C15   C     C_3   0.878974 0.498827 0.495206 0.191032
C16   C     C_R   0.504072 0.499718 0.364771 0.822957
C17   C     C_3   0.938713 0.599749 0.438234 -0.385160
C18   C     C_3   0.372490 0.081786 0.530024 0.327782
C19   C     C_3   0.375308 0.917066 0.534421 0.352433
C20   C     C_3   0.524204 0.079723 0.425445 -0.364160
C21   C     C_3   0.515933 0.918840 0.425178 -0.380452
C22   C     C_3   0.596714 0.080530 0.541154 -0.272463
C23   C     C_3   0.604086 0.920375 0.535687 -0.251585
C24   C     C_R   0.742466 0.499714 0.496773 0.803830
C25   C     C_R   0.508178 0.500199 0.634245 0.969408
C26   C     C_R   0.546126 0.622042 0.250101 -0.205583
C27   C     C_R   0.547694 0.375203 0.250406 -0.205596
C28   C     C_R   0.583693 0.621245 0.177384 -0.163094
C29   C     C_R   0.585287 0.374405 0.177766 -0.163026
C30   C     C_R   0.603653 0.497387 0.140642 0.088984
C31   C     C_R   0.528449 0.498996 0.287166 -0.026811
C32   C     C_R   0.643252 0.493165 0.919343 0.294758
H1    H     H_    0.532982 0.719033 0.277359 0.145893
H2    H     H_    0.535914 0.278793 0.277847 0.145346
H3    H     H_    0.903734 0.704946 0.450276 0.178055
H4    H     H_    0.911717 0.571333 0.384628 0.157636
H5    H     H_    0.304220 0.105400 0.490734 0.020753
H6    H     H_    0.299661 0.881754 0.502044 0.023462
H7    H     H_    0.455084 0.121321 0.390780 0.162555
H8    H     H_    0.436091 0.886155 0.395296 0.154897
H9    H     H_    0.690849 0.123830 0.522806 0.158803
H10   H     H_    0.696564 0.891301 0.506561 0.148464
H11   H     H_    0.576261 0.111431 0.597916 0.212772
H12   H     H_    0.605939 0.875068 0.589037 0.215686
H13   H     H_    0.619186 0.112208 0.401227 0.179959
H14   H     H_    0.602863 0.876152 0.395437 0.184979
H15   H     H_    0.595984 0.717645 0.150003 0.149503
H16   H     H_    0.599012 0.277267 0.150753 0.149548
H17   H     H_    0.676497 0.702244 0.824895 0.157832
H18   H     H_    0.559145 0.281510 0.844449 0.159842
H19   H     H_    0.615204 0.705730 0.704013 0.183630
H20   H     H_    0.494395 0.287850 0.725272 0.210651
H21   H     H_    0.084107 0.653626 0.579480 0.227008
H22   H     H_    0.121085 0.319423 0.425504 0.156376
H23   H     H_    0.087745 0.482068 0.612432 0.220170
H24   H     H_    0.099927 0.281109 0.518812 0.243411
H25   H     H_    0.874208 0.466616 0.610413 0.179609
H26   H     H_    0.890885 0.278527 0.516408 0.188634
H27   H     H_    0.872680 0.642505 0.585217 0.179673
H28   H     H_    0.908054 0.321830 0.423350 0.164909
H29   H     H_    0.117418 0.702934 0.446803 0.182291
H30   H     H_    0.127242 0.564673 0.383895 0.160940
N1    N     N_R   0.635778 0.376444 0.026796 -0.176370
N2    N     N_R   0.640327 0.614089 0.025980 -0.175224
N3    N     N_R   0.640970 0.375059 0.956236 -0.172912
N4    N     N_R   0.645712 0.612721 0.955331 -0.169547
N5    N     N_3   0.499750 0.138610 0.498490 -0.104396
N6    N     N_3   0.499750 0.861390 0.498490 -0.103716
O1    O     O_R   0.314910 0.616040 0.499990 -0.592538
O2    O     O_R   0.314910 0.383960 0.499990 -0.581518
O3    O     O_R   0.500100 0.616080 0.398110 -0.633896
O4    O     O_R   0.500100 0.383920 0.398110 -0.634985
O5    O     O_R   0.685320 0.616040 0.499960 -0.644944
O6    O     O_R   0.685320 0.383960 0.499960 -0.643775
O7    O     O_R   0.500130 0.616000 0.601840 -0.540631
O8    O     O_R   0.500130 0.384000 0.601840 -0.566169
Zn1   Zn    Zn3+2 0.500150 0.654960 0.499970 0.974680
Zn2   Zn    Zn3+2 0.500150 0.345040 0.499970 0.972380
S1    S     S_3+6 0.291939 0.163363 0.612174 0.051272
O9    O     O_2   0.285002 0.314126 0.619931 -0.298355
O10   O     O_2   0.155348 0.122523 0.614919 -0.314291
O11   O     O_3   0.354258 0.110011 0.685450 -0.526308
H31   H     H_    0.290117 0.132232 0.725675 0.386847
S2    S     S_3+6 0.322805 0.841057 0.623968 0.072525
O12   O     O_2   0.203394 0.901836 0.659193 -0.234734
O13   O     O_2   0.288360 0.694216 0.621917 -0.308791
O14   O     O_3   0.435005 0.859203 0.679882 -0.565941
H32   H     H_    0.394784 0.829413 0.726936 0.384258

loop_
_geom_bond_atom_site_label_1
_geom_bond_atom_site_label_2
_ccdc_geom_bond_type
O14   H32   S    
N1    N3    A    
C28   H15   S    
O2    Zn2   S    
C20   N5    S    
O1    Zn1   S    
C16   O4    A    
S2    O14   S    
C4    C8    A    
C3    H17   S    
C16   C31   S    
C16   O3    A    
C23   H10   S    
C18   H5    S    
O8    Zn2   S    
C24   O5    A    
C22   H9    S    
C27   C29   A    
C18   C19   S    
O4    Zn2   S    
C11   C15   S    
C13   H30   S    
C18   S1    S    
C9    H23   S    
C17   H4    S    
C10   H24   S    
C20   H13   S    
C12   H26   S    
C26   C31   A    
C13   C14   S    
N5    Zn2   S    
C11   H27   S    
C2    N2    A    
C27   H2    S    
C29   H16   S    
C27   C31   A    
C8    C32   S    
S2    O12   D    
C4    C6    A    
C3    C8    A    
C10   C14   S    
C5    C7    A    
C20   H7    S    
C18   N5    S    
C1    O1    A    
C23   H12   S    
C4    H18   S    
C25   O7    A    
N2    N4    A    
C23   N6    S    
C9    C14   S    
C29   C30   A    
C19   H6    S    
O7    Zn1   S    
C26   H1    S    
C22   H11   S    
C12   C15   S    
C19   N6    S    
C9    C11   S    
C10   C12   S    
C15   C24   S    
C21   N6    S    
C9    H21   S    
C19   S2    S    
O3    Zn1   S    
C2    N1    A    
C32   N4    A    
C21   H14   S    
N6    Zn1   S    
C15   C17   S    
S2    O13   D    
C3    C5    A    
S1    O11   S    
S1    O10   D    
C6    C7    A    
C26   C28   A    
C1    O2    A    
C7    C25   S    
C13   C17   S    
C2    C30   S    
C25   O8    A    
C28   C30   A    
C24   O6    A    
C21   H8    S    
C10   H22   S    
C22   N5    S    
S1    O9    D    
C12   H28   S    
C13   H29   S    
C20   C21   S    
O11   H31   S    
O6    Zn2   S    
O5    Zn1   S    
C22   C23   S    
C5    H19   S    
C1    C14   S    
C17   H3    S    
C6    H20   S    
C11   H25   S    
C32   N3    A    
