data_mof_unit_26461.cif
_audit_creation_date              2012-12-10T17:02:04-0500
_audit_creation_method            fapswitch 2.2
_symmetry_space_group_name_H-M    P1
_symmetry_Int_Tables_number       1
_space_group_crystal_system       triclinic
_cell_length_a                    10.789124
_cell_length_b                    10.893048
_cell_length_c                    9.843853
_cell_angle_alpha                 109.914302
_cell_angle_beta                  98.493299
_cell_angle_gamma                 91.59882
_cell_volume                      1071.99266967

loop_
_atom_site_label
_atom_site_type_symbol
_atom_type_description
_atom_site_fract_x
_atom_site_fract_y
_atom_site_fract_z
_atom_type_partial_charge
C1    C     C_R   0.488534 0.253415 0.442037 0.790624
C2    C     C_R   0.083834 0.623457 0.604388 0.054689
C3    C     C_R   0.129932 0.513766 0.505463 -0.057210
C4    C     C_R   0.047896 0.412535 0.402874 -0.168980
C5    C     C_R   0.920103 0.414352 0.401436 -0.186430
C6    C     C_R   0.871599 0.519192 0.499838 -0.095557
C7    C     C_2   0.478115 0.111439 0.412900 0.169622
C8    C     C_2   0.419544 0.064138 0.498760 0.343856
C9    C     C_2   0.489115 0.886880 0.583506 0.172780
C10   C     C_2   0.420739 0.923544 0.479055 0.331863
C11   C     C_2   0.520004 0.498646 0.077685 -0.089039
C12   C     C_R   0.262939 0.503872 0.501799 0.789813
C13   C     C_2   0.493545 0.483346 0.917264 0.629837
C14   C     C_R   0.501157 0.746205 0.557500 0.783428
C15   C     C_R   0.737590 0.505725 0.500247 0.802193
C16   C     C_R   0.165716 0.728967 0.706210 -0.165267
C17   C     C_R   0.118866 0.836153 0.801951 -0.225268
C18   C     C_R   0.990118 0.845168 0.792030 -0.108822
C19   C     C_R   0.906514 0.747189 0.686349 0.394996
C20   C     C_R   0.951912 0.629662 0.597411 -0.005342
Cu1   Cu    Cu3+1 0.521920 0.521810 0.644910 1.060105
Cu2   Cu    Cu3+1 0.478080 0.478190 0.355090 0.988162
N1    N     N_2   0.445130 0.445430 0.137370 -0.306471
N2    N     N_2   0.554930 0.554500 0.862630 -0.036407
O1    O     O_R   0.511700 0.332330 0.577400 -0.500036
O2    O     O_R   0.474680 0.295500 0.332650 -0.593476
O3    O     O_R   0.338160 0.518420 0.622400 -0.541930
O4    O     O_R   0.301140 0.481590 0.377650 -0.569871
O5    O     O_R   0.525320 0.704500 0.667350 -0.583067
O6    O     O_R   0.488300 0.667670 0.422600 -0.518623
O7    O     O_R   0.698860 0.518410 0.622350 -0.550818
O8    O     O_R   0.661840 0.481580 0.377600 -0.594365
H1    H     H_    0.083438 0.329384 0.326261 0.149516
O9    O     O_3   0.529778 0.026221 0.300040 -0.729821
H2    H     H_    0.573091 0.078352 0.253039 0.333114
O10   O     O_3   0.401500 0.391269 0.822349 -0.675803
H3    H     H_    0.393269 0.318502 0.859832 0.315705
H4    H     H_    0.604011 0.556893 0.146371 0.203551
O11   O     O_3   0.647188 0.642031 0.953305 -0.673951
H5    H     H_    0.683887 0.682237 0.890412 0.388238
H6    H     H_    0.359457 0.400857 0.077347 0.206100
H7    H     H_    0.266527 0.731320 0.712993 0.161761
H8    H     H_    0.182927 0.915202 0.880492 0.167489
H9    H     H_    0.955012 0.932794 0.861361 0.162903
O12   O     O_3   0.783713 0.775649 0.664988 -0.746058
H10   H     H_    0.757524 0.752024 0.557803 0.305722
H11   H     H_    0.858609 0.331487 0.325231 0.153000
O13   O     O_3   0.353451 0.831207 0.353263 -0.709788
H12   H     H_    0.307388 0.877865 0.293422 0.336121
O14   O     O_3   0.357158 0.145477 0.602815 -0.715134
H13   H     H_    0.316873 0.091723 0.650416 0.326302
O15   O     O_3   0.548034 0.982175 0.712265 -0.737326
H14   H     H_    0.596667 0.938884 0.773955 0.363372

loop_
_geom_bond_atom_site_label_1
_geom_bond_atom_site_label_2
_ccdc_geom_bond_type
C11   H4    S    
C9    C14   S    
C19   O12   S    
C15   O7    A    
C18   H9    S    
C2    C16   A    
C9    C10   D    
C19   C20   A    
N1    H6    S    
Cu1   O7    S    
C17   H8    S    
O14   H13   S    
Cu1   O3    S    
C15   O8    A    
Cu2   O4    S    
Cu1   Cu2   S    
C1    O1    A    
C11   C13   S    
C5    C6    A    
C9    O15   S    
Cu2   O8    S    
C12   O4    A    
C12   O3    A    
C11   N1    D    
O13   H12   S    
C5    H11   S    
C14   O6    A    
C2    C3    A    
C10   O13   S    
C1    O2    A    
C7    O9    S    
C16   C17   A    
C4    H1    S    
C14   O5    A    
C2    C20   A    
C3    C4    A    
C8    O14   S    
C7    C8    D    
N2    O11   S    
C6    C20   A    
O15   H14   S    
C13   O10   S    
C17   C18   A    
O9    H2    S    
Cu2   O2    S    
Cu1   N2    S    
O11   H5    S    
C18   C19   A    
Cu1   O1    S    
Cu2   N1    S    
O10   H3    S    
C3    C12   S    
Cu2   O6    S    
C1    C7    S    
C6    C15   S    
O12   H10   S    
C16   H7    S    
Cu1   O5    S    
C8    C10   S    
C13   N2    D    
C4    C5    A    
