data_mof_unit_36150.cif
_audit_creation_date              2012-12-11T15:21:16-0500
_audit_creation_method            fapswitch 2.2
_symmetry_space_group_name_H-M    P1
_symmetry_Int_Tables_number       1
_space_group_crystal_system       triclinic
_cell_length_a                    18.401434
_cell_length_b                    18.387961
_cell_length_c                    51.077945
_cell_angle_alpha                 89.832724
_cell_angle_beta                  90.053472
_cell_angle_gamma                 120.116051
_cell_volume                      14949.9004784

loop_
_atom_site_label
_atom_site_type_symbol
_atom_type_description
_atom_site_fract_x
_atom_site_fract_y
_atom_site_fract_z
_atom_type_partial_charge
C1    C     C_R   0.408799 0.584352 0.287662 0.539100
C2    C     C_R   0.410266 0.583351 0.212788 0.561399
C3    C     C_R   0.062149 0.513662 0.364533 0.041805
C4    C     C_R   0.090285 0.524774 0.132884 0.149040
C5    C     C_R   0.639684 0.520589 0.677934 -0.115061
C6    C     C_R   0.639402 0.491300 0.827998 -0.127684
C7    C     C_R   0.500331 0.399113 0.671455 0.242003
C8    C     C_R   0.487978 0.420259 0.820957 0.222569
C9    C     C_R   0.498577 0.429876 0.645947 0.223211
C10   C     C_R   0.477032 0.435916 0.847384 0.296658
C11   C     C_R   0.570192 0.501645 0.636268 0.230052
C12   C     C_R   0.547623 0.478918 0.863634 0.218860
C13   C     C_R   0.595666 0.535231 0.483226 0.032977
C14   C     C_R   0.550330 0.482434 0.017207 0.033408
C15   C     C_R   0.563020 0.584845 0.473338 -0.053729
C16   C     C_R   0.510841 0.525273 0.027310 -0.054099
C17   C     C_R   0.540736 0.630215 0.490780 0.004855
C18   C     C_R   0.474524 0.558606 0.010030 0.001009
C19   C     C_R   0.606816 0.482373 0.465820 -0.066140
C20   C     C_R   0.597100 0.461711 0.034386 -0.071289
C21   C     C_R   0.519514 0.700115 0.453308 0.449606
C22   C     C_R   0.413115 0.589761 0.047580 0.446886
C23   C     C_R   0.483738 0.627580 0.535346 0.309026
C24   C     C_R   0.484577 0.618500 0.965391 0.302589
C25   C     C_R   0.978827 0.466929 0.442604 -0.141715
C26   C     C_R   0.055587 0.488013 0.050833 -0.144801
C27   C     C_R   0.485317 0.613897 0.562471 0.405480
C28   C     C_R   0.491122 0.610959 0.938162 0.394524
C29   C     C_R   0.527742 0.693938 0.480224 0.472054
C30   C     C_R   0.419871 0.583937 0.020649 0.457273
C31   C     C_R   0.590976 0.175162 0.712584 0.611584
C32   C     C_R   0.591843 0.176612 0.788038 0.587746
C33   C     C_R   0.823326 0.415380 0.712113 0.570576
C34   C     C_R   0.824597 0.415584 0.787661 0.559739
C35   C     C_R   0.584354 0.409267 0.712282 0.595533
C36   C     C_R   0.583708 0.409735 0.787268 0.524661
C37   C     C_R   0.953423 0.396285 0.426351 0.070022
C38   C     C_R   0.991441 0.432755 0.068270 0.076730
C39   C     C_R   0.914191 0.315548 0.437817 0.259051
C40   C     C_R   0.915536 0.367200 0.057986 0.267668
C41   C     C_R   0.000026 0.544784 0.430965 0.012635
C42   C     C_R   0.128392 0.558906 0.060849 0.013701
C43   C     C_R   0.135577 0.563164 0.313757 -0.068322
C44   C     C_R   0.135713 0.561540 0.186021 -0.071810
C45   C     C_R   0.862446 0.426417 0.686075 -0.042805
C46   C     C_R   0.872508 0.428159 0.812173 -0.049418
C47   C     C_R   0.941755 0.370970 0.510124 0.053489
C48   C     C_R   0.965336 0.384779 0.985952 0.046820
C49   C     C_R   0.013778 0.525097 0.513202 0.069079
C50   C     C_R   0.099929 0.514482 0.978417 0.060669
C51   C     C_R   0.974449 0.445368 0.525459 -0.060771
C52   C     C_R   0.024776 0.445965 0.968614 -0.071739
C53   C     C_R   0.176300 0.591653 0.287847 0.595980
C54   C     C_R   0.176158 0.591473 0.212080 0.593526
C55   C     C_R   0.913940 0.293668 0.523680 0.226304
C56   C     C_R   0.902013 0.307145 0.975216 0.229069
C57   C     C_R   0.894858 0.287816 0.550768 0.266515
C58   C     C_R   0.887559 0.299372 0.947836 0.281041
C59   C     C_R   0.923696 0.361786 0.565726 0.057329
C60   C     C_R   0.936025 0.368667 0.931296 0.049630
C61   C     C_R   0.970052 0.440653 0.553225 -0.133779
C62   C     C_R   0.009570 0.438068 0.941247 -0.146456
C63   C     C_R   0.009846 0.515023 0.568388 0.053712
C64   C     C_R   0.067742 0.499923 0.923882 0.042567
C65   C     C_R   0.997309 0.508991 0.595773 0.529404
C66   C     C_R   0.045167 0.497201 0.897260 0.520209
C67   C     C_R   0.907659 0.359451 0.592932 0.484896
C68   C     C_R   0.915327 0.368830 0.904692 0.487343
C69   C     C_R   0.929079 0.383255 0.653273 -0.123093
C70   C     C_R   0.929738 0.372355 0.844292 -0.120797
C71   C     C_R   0.900913 0.379889 0.678947 -0.203127
C72   C     C_R   0.894799 0.368255 0.819728 -0.185594
C73   C     C_R   0.852719 0.476461 0.667036 0.412779
C74   C     C_R   0.889610 0.494708 0.829399 0.409973
C75   C     C_R   0.415589 0.824088 0.287514 0.496990
C76   C     C_R   0.415733 0.824915 0.212475 0.560587
C77   C     C_R   0.878754 0.477942 0.641329 0.499973
C78   C     C_R   0.924017 0.498167 0.854111 0.500626
C79   C     C_R   0.917251 0.431512 0.634194 0.154078
C80   C     C_R   0.942685 0.436056 0.861861 0.159351
C81   C     C_R   0.943456 0.378033 0.482053 0.035080
C82   C     C_R   0.973291 0.402006 0.013366 0.033754
C83   C     C_R   0.976290 0.458500 0.470267 -0.055533
C84   C     C_R   0.046426 0.472965 0.023320 -0.057541
C85   C     C_R   0.003891 0.530703 0.485937 0.041529
C86   C     C_R   0.108701 0.530806 0.005869 0.030984
C87   C     C_R   0.906614 0.307502 0.465222 -0.076373
C88   C     C_R   0.906615 0.354984 0.030882 -0.061722
C89   C     C_R   0.011624 0.612404 0.446854 0.296406
C90   C     C_R   0.186944 0.619389 0.043298 0.327058
C91   C     C_R   0.067488 0.596589 0.528258 0.289169
C92   C     C_R   0.165967 0.560573 0.960361 0.296042
C93   C     C_R   0.060924 0.593196 0.555838 0.266215
C94   C     C_R   0.147449 0.560677 0.933465 0.254219
C95   C     C_R   0.013265 0.604793 0.474219 0.436239
C96   C     C_R   0.173107 0.607593 0.016234 0.452805
C97   C     C_R   0.966176 0.409542 0.398942 0.464969
C98   C     C_R   0.004000 0.446549 0.095546 0.529632
C99   C     C_R   0.372851 0.895372 0.409239 0.539052
C100  C     C_R   0.358803 0.916950 0.095802 0.543662
C101  C     C_R   0.523021 0.960981 0.406357 0.544176
C102  C     C_R   0.488184 0.045079 0.103862 0.534367
C103  C     C_R   0.404614 0.814853 0.360941 0.479882
C104  C     C_R   0.459986 0.884316 0.141033 0.370102
C105  C     C_R   0.396020 0.789950 0.334926 0.257674
C106  C     C_R   0.460064 0.850268 0.165758 0.214324
C107  C     C_R   0.455587 0.937549 0.321320 0.225506
C108  C     C_R   0.398759 0.929632 0.184731 0.210279
C109  C     C_R   0.462816 0.960321 0.347773 0.464083
C110  C     C_R   0.397976 0.961364 0.159829 0.472229
C111  C     C_R   0.437507 0.899257 0.367510 0.127770
C112  C     C_R   0.427712 0.938312 0.138035 0.155918
C113  C     C_R   0.456762 0.942497 0.449020 -0.130425
C114  C     C_R   0.431498 0.012635 0.059651 -0.149136
C115  C     C_R   0.376932 0.902880 0.436763 0.024354
C116  C     C_R   0.360737 0.938841 0.069172 0.025048
C117  C     C_R   0.303352 0.868459 0.452302 0.298153
C118  C     C_R   0.293527 0.890390 0.051958 0.294821
C119  C     C_R   0.006371 0.551171 0.403463 0.548624
C120  C     C_R   0.138835 0.569150 0.088279 0.538809
C121  C     C_R   0.530754 0.973179 0.433766 0.071241
C122  C     C_R   0.492310 0.069608 0.077383 0.051092
C123  C     C_R   0.422039 0.851561 0.314721 -0.088119
C124  C     C_R   0.428122 0.871730 0.187713 -0.069041
C125  C     C_R   0.557943 0.128061 0.688138 0.025246
C126  C     C_R   0.563754 0.138431 0.814509 0.015188
C127  C     C_R   0.397604 0.946077 0.518828 0.048940
C128  C     C_R   0.398978 0.980166 0.987275 0.051443
C129  C     C_R   0.544274 0.979753 0.516892 0.049619
C130  C     C_R   0.528928 0.114593 0.995479 0.051830
C131  C     C_R   0.474341 0.968152 0.531593 -0.096704
C132  C     C_R   0.471005 0.053880 0.977734 -0.096136
C133  C     C_R   0.333853 0.949369 0.533354 0.435797
C134  C     C_R   0.351395 0.914819 0.969209 0.451826
C135  C     C_R   0.342013 0.963149 0.560203 -0.044061
C136  C     C_R   0.365283 0.927677 0.942470 -0.037948
C137  C     C_R   0.415033 0.977967 0.573346 -0.014618
C138  C     C_R   0.431419 0.002868 0.932649 -0.019077
C139  C     C_R   0.481834 0.980648 0.559054 -0.111672
C140  C     C_R   0.486989 0.064953 0.950277 -0.118790
C141  C     C_R   0.115880 0.599575 0.357780 0.449883
C142  C     C_R   0.085656 0.590161 0.145256 0.435057
C143  C     C_R   0.556544 0.997532 0.572044 0.033604
C144  C     C_R   0.559132 0.136935 0.940477 0.049705
C145  C     C_R   0.564798 0.017640 0.598998 0.488626
C146  C     C_R   0.570458 0.147831 0.912988 0.507658
C147  C     C_R   0.424422 0.995071 0.600278 0.451467
C148  C     C_R   0.445696 0.015002 0.905525 0.452643
C149  C     C_R   0.507052 0.122151 0.643967 -0.029357
C150  C     C_R   0.472340 0.110596 0.852341 -0.016424
C151  C     C_R   0.528284 0.160153 0.668476 0.313336
C152  C     C_R   0.489681 0.129951 0.825767 0.323287
C153  C     C_R   0.562903 0.055463 0.683195 0.333281
C154  C     C_R   0.616608 0.121368 0.830336 0.334025
C155  C     C_R   0.540091 0.016702 0.658708 -0.014936
C156  C     C_R   0.598601 0.102100 0.856864 -0.021330
C157  C     C_R   0.513831 0.050946 0.638761 0.102769
C158  C     C_R   0.527808 0.098919 0.868165 0.102942
C159  C     C_R   0.389179 0.925222 0.491794 0.021789
C160  C     C_R   0.381541 0.971016 0.014632 0.023121
C161  C     C_R   0.462473 0.950342 0.476649 -0.080406
C162  C     C_R   0.442003 0.028994 0.032310 -0.096637
C163  C     C_R   0.147997 0.623517 0.332611 0.374216
C164  C     C_R   0.107906 0.608482 0.171548 0.358297
C165  C     C_R   0.541462 0.983759 0.489140 0.090331
C166  C     C_R   0.511501 0.104336 0.022909 0.071912
C167  C     C_R   0.310219 0.877916 0.479627 0.437344
C168  C     C_R   0.303205 0.909316 0.025031 0.435730
C169  C     C_R   0.610178 0.014677 0.446222 0.276583
C170  C     C_R   0.554074 0.149650 0.068233 0.247352
C171  C     C_R   0.613429 0.984186 0.530368 0.438185
C172  C     C_R   0.606479 0.179000 0.985364 0.434281
C173  C     C_R   0.620907 0.994674 0.557731 0.279366
C174  C     C_R   0.619613 0.193828 0.958291 0.344439
C175  C     C_R   0.615066 0.025341 0.473721 0.295617
C176  C     C_R   0.556726 0.169377 0.041297 0.292716
C177  C     C_R   0.546685 0.536790 0.401748 0.524033
C178  C     C_R   0.543548 0.516680 0.099277 0.534820
C179  C     C_R   0.510869 0.644097 0.408990 0.524114
C180  C     C_R   0.454253 0.575476 0.092168 0.513213
C181  C     C_R   0.405589 0.537576 0.359798 0.272872
C182  C     C_R   0.536134 0.628535 0.150116 0.250217
C183  C     C_R   0.379383 0.533847 0.333677 0.354039
C184  C     C_R   0.516388 0.635238 0.176343 0.329867
C185  C     C_R   0.096031 0.478493 0.321418 0.403390
C186  C     C_R   0.134676 0.491882 0.173890 0.300100
C187  C     C_R   0.525833 0.614387 0.319570 0.198031
C188  C     C_R   0.403248 0.489088 0.175518 0.202083
C189  C     C_R   0.551073 0.618869 0.345657 0.466678
C190  C     C_R   0.421932 0.483811 0.149396 0.451840
C191  C     C_R   0.491602 0.581805 0.365706 0.167192
C192  C     C_R   0.486009 0.553627 0.136514 0.169402
C193  C     C_R   0.551764 0.588638 0.445945 -0.149969
C194  C     C_R   0.506543 0.533780 0.054786 -0.149278
C195  C     C_R   0.564479 0.535917 0.428667 0.085751
C196  C     C_R   0.549657 0.507778 0.072007 0.086821
C197  C     C_R   0.591822 0.482060 0.438864 0.271101
C198  C     C_R   0.597645 0.474137 0.061500 0.264126
C199  C     C_R   0.526880 0.644637 0.435993 -0.030679
C200  C     C_R   0.458445 0.567700 0.064912 -0.025338
C201  C     C_R   0.438835 0.573892 0.313504 -0.070303
C202  C     C_R   0.445584 0.567910 0.188576 -0.083117
C203  C     C_R   0.572552 0.444418 0.687359 -0.029959
C204  C     C_R   0.569822 0.443500 0.811806 -0.091298
C205  C     C_R   0.612345 0.537009 0.510458 -0.012584
C206  C     C_R   0.543643 0.463809 0.990063 -0.013095
C207  C     C_R   0.064686 0.454122 0.346991 0.258273
C208  C     C_R   0.112697 0.473890 0.147250 0.254802
C209  C     C_R   0.534215 0.611145 0.518059 0.049269
C210  C     C_R   0.491269 0.561646 0.982721 0.045550
C211  C     C_R   0.575013 0.568681 0.527942 -0.085218
C212  C     C_R   0.519583 0.508386 0.972701 -0.088101
C213  C     C_R   0.664320 0.507822 0.520926 0.403137
C214  C     C_R   0.558530 0.401284 0.979660 0.397126
C215  C     C_R   0.668935 0.498526 0.547800 0.469134
C216  C     C_R   0.559234 0.390228 0.952792 0.457584
C217  C     C_R   0.622693 0.518929 0.565214 -0.017038
C218  C     C_R   0.545162 0.441049 0.935303 -0.008096
C219  C     C_R   0.576920 0.555893 0.555315 -0.172387
C220  C     C_R   0.524634 0.500104 0.945268 -0.172755
C221  C     C_R   0.532190 0.578869 0.572668 0.024186
C222  C     C_R   0.509395 0.550881 0.927899 0.021276
C223  C     C_R   0.532431 0.562499 0.599740 0.527184
C224  C     C_R   0.516373 0.542482 0.900668 0.526637
C225  C     C_R   0.621044 0.503368 0.592286 0.518070
C226  C     C_R   0.550261 0.433766 0.908062 0.511939
C227  C     C_R   0.639210 0.548015 0.652573 0.431062
C228  C     C_R   0.628468 0.509168 0.853591 0.406243
Cr1   Cr    Cr6+3 0.456550 0.732290 0.250000 1.161550
Cr2   Cr    Cr6+3 0.275740 0.543450 0.250000 1.216072
Cr3   Cr    Cr6+3 0.267710 0.724260 0.250000 1.166742
Cr4   Cr    Cr6+3 0.543450 0.275740 0.750000 1.184038
Cr5   Cr    Cr6+3 0.724260 0.267710 0.750000 1.118497
Cr6   Cr    Cr6+3 0.732290 0.456550 0.750000 1.122672
H1    H     H_    0.488177 0.150017 0.628625 0.187999
H2    H     H_    0.417028 0.107550 0.860879 0.196408
H3    H     H_    0.291787 0.965397 0.570545 0.206056
H4    H     H_    0.325865 0.876391 0.929439 0.204991
H5    H     H_    0.545072 0.961422 0.654985 0.203948
H6    H     H_    0.641266 0.092052 0.868909 0.196055
H7    H     H_    0.695205 0.557278 0.689743 0.222151
H8    H     H_    0.702468 0.510646 0.821400 0.230235
H9    H     H_    0.908351 0.340299 0.693168 0.172670
H10   H     H_    0.882965 0.316573 0.806940 0.194795
H11   H     H_    0.622158 0.436565 0.473070 0.180961
H12   H     H_    0.637178 0.439418 0.026857 0.187718
H13   H     H_    0.958903 0.347320 0.648127 0.190484
H14   H     H_    0.944153 0.324258 0.850046 0.185756
H15   H     H_    0.868515 0.244857 0.472655 0.183080
H16   H     H_    0.844627 0.311090 0.023802 0.203728
N1    N     N_R   0.012757 0.490723 0.389151 -0.403174
N2    N     N_R   0.077220 0.513195 0.105009 -0.370202
N3    N     N_R   0.942621 0.432832 0.607311 -0.398190
N4    N     N_R   0.968572 0.433903 0.888381 -0.400806
N5    N     N_R   0.444962 0.921952 0.394729 -0.379573
N6    N     N_R   0.423893 0.968278 0.112275 -0.369282
N7    N     N_R   0.499732 0.017772 0.612513 -0.390832
N8    N     N_R   0.514066 0.087153 0.896058 -0.399999
N9    N     N_R   0.518488 0.588867 0.392558 -0.368750
N10   N     N_R   0.496146 0.549724 0.108759 -0.365734
N11   N     N_R   0.575270 0.523992 0.608974 -0.362642
N12   N     N_R   0.537123 0.484976 0.891302 -0.367187
O1    O     O_R   0.475290 0.813700 0.278840 -0.475549
O2    O     O_R   0.475290 0.813700 0.221160 -0.405892
O3    O     O_2   0.002427 0.607742 0.392190 -0.311238
O4    O     O_2   0.202979 0.627506 0.097436 -0.327873
O5    O     O_2   0.033912 0.571564 0.609480 -0.360584
O6    O     O_2   0.093087 0.551105 0.881927 -0.361003
O7    O     O_2   0.305147 0.864411 0.398003 -0.315904
O8    O     O_2   0.300528 0.851305 0.104295 -0.330239
O9    O     O_2   0.365999 0.991005 0.612877 -0.468898
O10   O     O_2   0.397681 0.961049 0.890271 -0.457525
O11   O     O_2   0.585396 0.983728 0.392751 -0.346111
O12   O     O_2   0.542462 0.090865 0.119379 -0.357380
O13   O     O_2   0.630804 0.037896 0.610296 -0.388592
O14   O     O_2   0.630118 0.211469 0.904009 -0.347623
O15   O     O_2   0.554878 0.490436 0.386446 -0.360971
O16   O     O_2   0.579604 0.494577 0.114692 -0.353696
O17   O     O_2   0.659174 0.470162 0.601089 -0.343167
O18   O     O_2   0.566774 0.382143 0.899092 -0.376312
O19   O     O_2   0.488941 0.691781 0.400031 -0.327745
O20   O     O_2   0.413042 0.604776 0.101306 -0.363751
O21   O     O_2   0.494285 0.581892 0.615149 -0.366237
O22   O     O_2   0.504717 0.586510 0.885232 -0.354668
O23   O     O_R   0.448450 0.657720 0.276690 -0.506655
O24   O     O_R   0.448450 0.657720 0.223310 -0.410668
O25   O     O_R   0.524710 0.338410 0.721160 -0.399998
O26   O     O_R   0.524710 0.338410 0.778840 -0.450161
O27   O     O_R   0.551550 0.209270 0.723310 -0.448770
O28   O     O_R   0.551550 0.209270 0.776690 -0.441732
O29   O     O_R   0.661590 0.186300 0.721160 -0.451700
O30   O     O_R   0.661590 0.186300 0.778840 -0.426364
O31   O     O_R   0.790730 0.342280 0.723310 -0.508526
O32   O     O_R   0.790730 0.342280 0.776690 -0.507118
O33   O     O_R   0.813700 0.475290 0.721160 -0.428411
O34   O     O_R   0.813700 0.475290 0.778840 -0.429675
O35   O     O_R   0.657720 0.448450 0.723310 -0.506943
O36   O     O_R   0.657720 0.448450 0.776690 -0.501235
O37   O     O_3   0.666667 0.333333 0.750000 -0.298903
O38   O     O_R   0.338410 0.524710 0.278840 -0.412515
O39   O     O_R   0.338410 0.524710 0.221160 -0.467274
O40   O     O_R   0.209270 0.551550 0.276690 -0.427003
O41   O     O_R   0.209270 0.551550 0.223310 -0.425981
O42   O     O_R   0.186300 0.661590 0.278840 -0.436996
O43   O     O_R   0.186300 0.661590 0.221160 -0.423416
O44   O     O_R   0.342280 0.790730 0.276690 -0.473719
O45   O     O_R   0.342280 0.790730 0.223310 -0.494750
O46   O     O_3   0.333333 0.666667 0.250000 -0.326555
O47   O     O_2   0.931413 0.350165 0.384028 -0.332054
O48   O     O_2   0.950123 0.399346 0.111002 -0.354106
O49   O     O_2   0.861210 0.292546 0.603776 -0.395011
O50   O     O_2   0.848682 0.312506 0.896136 -0.375114
F1    F     F_    0.093086 0.419701 0.304721 -0.494600
F2    F     F_    0.158400 0.443524 0.187458 -0.555244
F3    F     F_    0.145338 0.661390 0.376055 -0.465762
F4    F     F_    0.062558 0.638365 0.131382 -0.493612
O51   O     O_3   0.022532 0.685388 0.435284 -0.558502
H17   H     H_    0.027440 0.725860 0.448880 0.390029
O52   O     O_3   0.254950 0.691975 0.052929 -0.533312
H18   H     H_    0.293960 0.724085 0.038481 0.400765
O53   O     O_3   0.131283 0.666069 0.515705 -0.573033
H19   H     H_    0.178914 0.696464 0.527961 0.362892
O54   O     O_3   0.248227 0.596750 0.968875 -0.543546
H20   H     H_    0.285124 0.602478 0.953951 0.360501
F5    F     F_    0.813485 0.520249 0.672822 -0.551879
F6    F     F_    0.869195 0.553957 0.823026 -0.540546
O55   O     O_3   0.102775 0.665575 0.570652 -0.600279
H21   H     H_    0.111810 0.714359 0.559884 0.371647
O56   O     O_3   0.207065 0.617930 0.916369 -0.595002
H22   H     H_    0.247551 0.668356 0.926340 0.365319
F7    F     F_    0.863813 0.522599 0.623043 -0.482928
F8    F     F_    0.935260 0.559662 0.871067 -0.503067
F9    F     F_    0.016069 0.666822 0.489385 -0.547828
F10   F     F_    0.216309 0.675803 0.000529 -0.514765
O57   O     O_3   0.481999 0.001023 0.302875 -0.557941
H23   H     H_    0.472176 0.977180 0.285033 0.330554
O58   O     O_3   0.370073 0.956517 0.205441 -0.554694
H24   H     H_    0.390129 0.945081 0.222083 0.329032
F11   F     F_    0.494235 0.042229 0.354313 -0.496445
F12   F     F_    0.367771 0.014746 0.156796 -0.488615
O59   O     O_3   0.225374 0.823310 0.440523 -0.551582
H25   H     H_    0.180443 0.808732 0.453600 0.397136
O60   O     O_3   0.217952 0.827483 0.061947 -0.556197
H26   H     H_    0.179164 0.795857 0.047449 0.392974
O61   O     O_3   0.050193 0.376418 0.354877 -0.508243
H27   H     H_    0.074035 0.383281 0.372729 0.344341
O62   O     O_3   0.115697 0.409441 0.134381 -0.591840
H28   H     H_    0.132996 0.379424 0.146771 0.414514
F13   F     F_    0.525490 0.231675 0.672335 -0.599040
F14   F     F_    0.435423 0.143648 0.811480 -0.565792
F15   F     F_    0.267921 0.949661 0.521534 -0.536129
F16   F     F_    0.297840 0.834779 0.976997 -0.502448
F17   F     F_    0.240123 0.832291 0.494326 -0.542065
F18   F     F_    0.233257 0.874616 0.009805 -0.541340
O63   O     O_3   0.362541 0.704851 0.330436 -0.605736
H29   H     H_    0.351598 0.692076 0.311618 0.328584
O64   O     O_3   0.486840 0.792736 0.168776 -0.595912
H30   H     H_    0.506126 0.783176 0.151711 0.401212
F19   F     F_    0.380456 0.755994 0.380166 -0.483579
F20   F     F_    0.488917 0.863236 0.119567 -0.563893
O65   O     O_3   0.682375 0.044668 0.431331 -0.601772
H31   H     H_    0.727298 0.045471 0.442267 0.352451
O66   O     O_3   0.609289 0.208531 0.085828 -0.587023
H32   H     H_    0.660098 0.250544 0.076299 0.347953
F21   F     F_    0.670009 0.970833 0.517294 -0.553170
F22   F     F_    0.673985 0.221291 0.001331 -0.630959
F23   F     F_    0.590787 0.022817 0.701916 -0.563084
F24   F     F_    0.688168 0.127416 0.820697 -0.572664
O67   O     O_3   0.882780 0.245067 0.422075 -0.573753
H33   H     H_    0.859299 0.193863 0.433159 0.340489
O68   O     O_3   0.849504 0.317038 0.074549 -0.592676
H34   H     H_    0.802496 0.272521 0.064303 0.340149
O69   O     O_3   0.689776 0.001146 0.570842 -0.578575
H35   H     H_    0.730683 0.001575 0.558173 0.386142
O70   O     O_3   0.693154 0.261412 0.948911 -0.546424
H36   H     H_    0.725030 0.299657 0.963489 0.377284
O71   O     O_3   0.689441 0.083255 0.485575 -0.639102
H37   H     H_    0.725119 0.126894 0.472640 0.324468
O72   O     O_3   0.594525 0.252088 0.033047 -0.573208
H38   H     H_    0.596809 0.287898 0.047835 0.336272
O73   O     O_3   0.587955 0.650820 0.300780 -0.560767
H39   H     H_    0.563790 0.626729 0.283467 0.336595
O74   O     O_3   0.342311 0.416513 0.187333 -0.529188
H40   H     H_    0.360368 0.416551 0.205619 0.351953
F25   F     F_    0.634197 0.660020 0.351597 -0.497992
F26   F     F_    0.376428 0.410413 0.136244 -0.512648
O75   O     O_3   0.602828 0.428807 0.422356 -0.585458
H41   H     H_    0.623074 0.396440 0.432528 0.340377
O76   O     O_3   0.644664 0.453677 0.077892 -0.586451
H42   H     H_    0.675260 0.432288 0.067398 0.330654
F27   F     F_    0.707581 0.618516 0.643449 -0.513755
F28   F     F_    0.696582 0.551394 0.869290 -0.525432
F29   F     F_    0.719220 0.469223 0.556615 -0.503419
F30   F     F_    0.573399 0.328776 0.944037 -0.533860
F31   F     F_    0.716498 0.494189 0.505584 -0.583649
F32   F     F_    0.564927 0.344840 0.995189 -0.581597
F33   F     F_    0.295902 0.496092 0.328240 -0.571232
F34   F     F_    0.564555 0.708190 0.189479 -0.558468
O77   O     O_3   0.349034 0.500580 0.380113 -0.619538
H43   H     H_    0.291042 0.471569 0.373099 0.391819
O78   O     O_3   0.601467 0.694611 0.136894 -0.607909
H44   H     H_    0.630762 0.743310 0.148802 0.400796
F35   F     F_    0.504611 0.761109 0.444355 -0.526029
F36   F     F_    0.359984 0.615133 0.056562 -0.513403
O79   O     O_3   0.426299 0.647635 0.525106 -0.609134
H45   H     H_    0.394698 0.655915 0.539337 0.389867
O80   O     O_3   0.480817 0.686238 0.975547 -0.593562
H46   H     H_    0.477362 0.720824 0.961243 0.392386
O81   O     O_3   0.434853 0.324002 0.680659 -0.605060
H47   H     H_    0.406162 0.286485 0.665640 0.367286
O82   O     O_3   0.418307 0.381673 0.804915 -0.642250
H48   H     H_    0.436425 0.399255 0.786605 0.351604
F37   F     F_    0.438327 0.632277 0.578756 -0.567059
F38   F     F_    0.481547 0.664040 0.921798 -0.567659
O83   O     O_3   0.429440 0.390414 0.629748 -0.651740
H49   H     H_    0.378221 0.362699 0.640734 0.350938
O84   O     O_3   0.398676 0.408863 0.858197 -0.624938
H50   H     H_    0.354525 0.377841 0.844955 0.392445
F39   F     F_    0.530786 0.755682 0.495535 -0.520655
F40   F     F_    0.365405 0.594248 0.005333 -0.523871
O85   O     O_3   0.851081 0.210315 0.562969 -0.600973
H51   H     H_    0.815327 0.167740 0.549807 0.355658
O86   O     O_3   0.829545 0.223718 0.936690 -0.605204
H52   H     H_    0.828982 0.177206 0.946672 0.344552
O87   O     O_3   0.913848 0.227149 0.511142 -0.697210
H53   H     H_    0.920176 0.190733 0.524197 0.367889
O88   O     O_3   0.860271 0.237561 0.991234 -0.685558
H54   H     H_    0.801690 0.203321 0.984938 0.366485
F41   F     F_    0.196515 0.706934 0.327327 -0.527112
F42   F     F_    0.105525 0.674609 0.182370 -0.497768

loop_
_geom_bond_atom_site_label_1
_geom_bond_atom_site_label_2
_ccdc_geom_bond_type
C194  C196  A    
O88   H54   S    
C63   C65   A    
O64   H30   S    
C136  H4    S    
C33   C45   S    
O87   H53   S    
C148  O10   D    
C2    C202  S    
C39   C87   A    
O58   H24   S    
C170  C176  A    
C171  C173  A    
C80   N4    S    
C215  F29   S    
C18   C210  A    
C84   C86   A    
C53   O40   A    
C10   O84   S    
C146  O14   D    
C4    C142  A    
C57   C59   A    
C155  C157  A    
C205  C211  A    
C58   C60   A    
C119  O3    D    
C142  F4    S    
C105  C123  A    
C60   C62   A    
C61   C63   A    
C185  C207  A    
C7    C203  A    
C49   C51   A    
C65   N3    Am   
C98   O48   D    
C50   C52   A    
C54   O43   A    
Cr5   O37   S    
C46   C72   A    
Cr3   O44   S    
C206  C214  A    
C182  C192  A    
C49   C91   A    
C104  C106  A    
C93   O55   S    
C4    C208  A    
C77   C79   A    
C168  F18   S    
C75   O1    A    
C59   C61   A    
C145  N7    Am   
O54   H20   S    
C183  C201  A    
C127  C133  A    
C8    C204  A    
C4    N2    S    
C25   C41   A    
C26   C38   A    
C212  C220  A    
C193  C199  A    
C21   C29   A    
C135  H3    S    
C64   C66   A    
C178  O16   D    
O63   H29   S    
C92   C94   A    
C79   N3    S    
Cr5   O30   S    
C12   N12   S    
C102  O12   D    
Cr2   O39   S    
C20   C198  A    
C33   O33   A    
C138  C140  A    
Cr4   O37   S    
C34   O34   A    
C126  C154  A    
C82   C84   A    
C14   C206  A    
O73   H39   S    
C35   O25   A    
C40   O68   S    
C57   O85   S    
C9    O83   S    
Cr4   O25   S    
O74   H40   S    
C32   O28   A    
Cr1   O2    S    
C135  C137  A    
C187  C201  A    
C177  C195  A    
C145  O13   D    
C120  N2    Am   
C53   O42   A    
O70   H36   S    
C186  C208  A    
C3    C207  A    
C40   C88   A    
C156  C158  A    
C108  O58   S    
C64   C94   A    
O79   H45   S    
C142  C164  A    
C224  O22   D    
C188  C202  A    
C159  C167  A    
C47   C81   A    
C127  C131  A    
C12   C228  A    
C113  C161  A    
O57   H23   S    
C206  C212  A    
C48   C52   A    
C28   C222  A    
O53   H19   S    
C106  C124  A    
C133  C135  A    
C73   C77   A    
O81   H47   S    
C100  N6    Am   
C218  C226  A    
C161  C165  A    
C113  C115  A    
C73   F5    S    
C198  O76   S    
C41   C89   A    
O85   H51   S    
C141  F3    S    
C186  F2    S    
C213  F31   S    
C1    O38   A    
C3    C141  A    
C214  F32   S    
C38   C98   A    
C184  F34   S    
O78   H44   S    
C97   N1    Am   
C58   O86   S    
C101  N5    Am   
C216  C218  A    
C119  N1    Am   
C90   O52   S    
C149  C151  A    
C31   O29   A    
C207  O61   S    
C43   C185  A    
O77   H43   S    
Cr5   O32   S    
C188  C190  A    
C32   C126  S    
C189  C191  A    
C125  C151  A    
C59   C67   A    
C34   O32   A    
C139  C143  A    
C69   H13   S    
C194  C200  A    
Cr5   O31   S    
C181  O77   S    
C62   C64   A    
C34   C46   S    
C14   C16   A    
C24   C28   A    
C92   O54   S    
C160  C168  A    
C76   O2    A    
C227  F27   S    
C94   O56   S    
C180  N10   Am   
Cr6   O36   S    
C216  F30   S    
C21   C199  A    
C182  O78   S    
C81   C83   A    
C172  C174  A    
Cr3   O45   S    
C1    O23   A    
C175  O71   S    
C143  C173  A    
C120  O4    D    
C76   C124  S    
C104  C112  A    
C75   O44   A    
C179  N9    Am   
C224  N12   Am   
C122  C170  A    
C178  C196  A    
C55   O87   S    
C5    C227  A    
C42   C90   A    
C160  C162  A    
C180  C200  A    
C128  C134  A    
C177  N9    Am   
C36   O36   A    
C159  C161  A    
C103  C105  A    
C222  C224  A    
C144  C174  A    
C10   C12   A    
C21   F35   S    
C8    C10   A    
Cr1   O24   S    
C210  C212  A    
C147  N7    Am   
C146  N8    Am   
C153  C155  A    
C31   C125  S    
C180  O20   D    
C26   C42   A    
C25   C83   A    
C87   H15   S    
C26   C84   A    
C22   C30   A    
C151  F13   S    
C54   O41   A    
C5    C203  A    
C114  C116  A    
C31   O27   A    
C90   C96   A    
C211  C219  A    
C190  F26   S    
Cr6   O33   S    
C213  C215  A    
C52   C62   A    
C98   N2    Am   
C85   C95   A    
C42   C120  A    
C82   C88   A    
C56   C58   A    
C102  N6    Am   
C225  N11   Am   
C110  C112  A    
C131  C139  A    
C205  C213  A    
C44   C54   S    
C113  C121  A    
C11   C227  A    
C6    H8    S    
C112  N6    S    
C19   C197  A    
C188  O74   S    
C217  C225  A    
C195  C197  A    
C24   O80   S    
C187  O73   S    
C17   C29   A    
C72   H10   S    
C107  O57   S    
C100  C116  A    
C106  O64   S    
C107  C123  A    
C1    C201  S    
C208  O62   S    
C28   F38   S    
O72   H38   S    
C100  O8    D    
C137  C139  A    
C128  C160  A    
C149  H1    S    
C169  O65   S    
C22   C200  A    
C38   C40   A    
C108  C124  A    
O67   H33   S    
C17   C209  A    
C103  F19   S    
C114  C162  A    
C45   C71   A    
C153  F23   S    
O68   H34   S    
C103  C111  A    
O56   H22   S    
C89   O51   S    
C147  O9    D    
C171  F21   S    
C162  C166  A    
C43   C53   S    
C66   N4    Am   
C130  C172  A    
C115  C117  A    
C6    C228  A    
O66   H32   S    
Cr5   O29   S    
C191  N9    S    
Cr2   O40   S    
C154  C156  A    
C7    O81   S    
C176  O72   S    
C181  C183  A    
C155  H5    S    
C111  N5    S    
C107  C109  A    
C173  O69   S    
Cr4   O26   S    
C37   C97   A    
C223  O21   D    
Cr1   O1    S    
C167  F17   S    
C104  F20   S    
C13   C19   A    
C70   C80   A    
C14   C20   A    
C144  C146  A    
Cr4   O27   S    
C24   C210  A    
C47   C51   A    
C158  N8    S    
C99   O7    D    
C101  C121  A    
C89   C95   A    
C130  C132  A    
C6    C204  A    
C118  O60   S    
C91   C93   A    
C170  O66   S    
C130  C166  A    
C30   F40   S    
C225  O17   D    
C41   C119  A    
C81   C87   A    
C86   C96   A    
C196  C198  A    
C83   C85   A    
C13   C205  A    
C165  C175  A    
C65   O5    D    
C223  N11   Am   
C66   O6    D    
C15   C17   A    
C179  O19   D    
C190  C192  A    
C150  C158  A    
C185  F1    S    
C137  C147  A    
C140  C144  A    
C3    N1    S    
C183  F33   S    
C132  C140  A    
C63   C93   A    
C96   F10   S    
C129  C165  A    
C218  C220  A    
C109  C111  A    
C23   O79   S    
C71   H9    S    
O55   H21   S    
C37   C39   A    
Cr1   O46   S    
C117  O59   S    
C181  C191  A    
C179  C199  A    
C117  C167  A    
C99   C115  A    
C118  C168  A    
C48   C82   A    
C78   C80   A    
C2    O39   A    
Cr2   O38   S    
C91   O53   S    
O52   H18   S    
C15   C193  A    
C154  F24   S    
C60   C68   A    
C74   C78   A    
O82   H48   S    
C68   O50   D    
C44   C164  A    
C102  C122  A    
C149  C157  A    
C74   F6    S    
C44   C186  A    
C43   C163  A    
C121  C169  A    
O60   H26   S    
C97   O47   D    
Cr6   O37   S    
C51   C61   A    
C189  F25   S    
C220  C222  A    
O84   H50   S    
O59   H25   S    
C156  H6    S    
C75   C123  S    
C77   F7    S    
C22   F36   S    
C174  O70   S    
C215  C217  A    
C56   O88   S    
C163  F41   S    
C143  C145  A    
C45   C73   A    
C69   C71   A    
C29   F39   S    
C99   N5    Am   
C25   C37   A    
C109  F11   S    
C108  C110  A    
C193  C195  A    
C172  F22   S    
O80   H46   S    
C18   C30   A    
C23   C27   A    
C27   F37   S    
C226  N12   Am   
C177  O15   D    
C197  O75   S    
C76   O45   A    
C20   H12   S    
Cr1   O23   S    
C101  O11   D    
C126  C152  A    
C128  C132  A    
Cr3   O42   S    
C125  C153  A    
C182  C184  A    
C67   N3    Am   
C169  C175  A    
C35   O35   A    
C157  N7    S    
C184  C202  A    
C49   C85   A    
C16   C194  A    
C136  C138  A    
C214  C216  A    
C88   H16   S    
C138  C148  A    
O86   H52   S    
C134  C136  A    
C23   C209  A    
Cr6   O34   S    
C219  C221  A    
Cr2   O46   S    
O83   H49   S    
C69   C79   A    
C226  O18   D    
C9    C11   A    
C105  O63   S    
O71   H37   S    
C178  N10   Am   
C116  C118  A    
C32   O30   A    
C50   C92   A    
C133  F15   S    
C141  C163  A    
C13   C15   A    
Cr6   O35   S    
C150  C152  A    
C127  C159  A    
C46   C74   A    
C19   H11   S    
C47   C55   A    
Cr3   O46   S    
C48   C56   A    
C8    O82   S    
C129  C171  A    
C228  F28   S    
C148  N8    Am   
C39   O67   S    
C95   F9    S    
C164  F42   S    
C152  F14   S    
C217  C219  A    
O65   H31   S    
C166  C176  A    
C2    O24   A    
Cr4   O28   S    
C5    H7    S    
C55   C57   A    
Cr2   O41   S    
C27   C221  A    
C221  C223  A    
C68   N4    Am   
O62   H28   S    
O69   H35   S    
C35   C203  S    
O76   H42   S    
C67   O49   D    
C150  H2    S    
C209  C211  A    
C78   F8    S    
C134  F16   S    
C11   N11   S    
O51   H17   S    
C110  F12   S    
C187  C189  A    
C192  N10   S    
C50   C86   A    
C114  C122  A    
C7    C9    A    
C16   C18   A    
C70   H14   S    
C36   O26   A    
C70   C72   A    
C36   C204  S    
Cr3   O43   S    
O61   H27   S    
C33   O31   A    
O75   H41   S    
C129  C131  A    
