data_mof_unit_10176.cif
_audit_creation_date              2012-12-10T17:56:43-0500
_audit_creation_method            fapswitch 2.2
_symmetry_space_group_name_H-M    P1
_symmetry_Int_Tables_number       1
_space_group_crystal_system       triclinic
_cell_length_a                    10.885402
_cell_length_b                    9.6705
_cell_length_c                    10.756614
_cell_angle_alpha                 90.948716
_cell_angle_beta                  92.518889
_cell_angle_gamma                 90.609132
_cell_volume                      1130.99723261

loop_
_atom_site_label
_atom_site_type_symbol
_atom_type_description
_atom_site_fract_x
_atom_site_fract_y
_atom_site_fract_z
_atom_type_partial_charge
C1    C     C_R   0.262889 0.499867 0.500824 0.822854
C2    C     C_R   0.737461 0.500804 0.502305 0.795212
C3    C     C_R   0.940778 0.605153 0.571773 -0.148006
C4    C     C_R   0.069745 0.604628 0.572091 -0.071498
C5    C     C_R   0.442889 0.071216 0.404549 0.465527
C6    C     C_R   0.557689 0.076939 0.594644 0.453965
C7    C     C_R   0.444349 0.923741 0.403475 0.010731
C8    C     C_R   0.550170 0.930608 0.598974 -0.018697
C9    C     C_R   0.500490 0.499258 0.263135 0.877378
C10   C     C_R   0.500180 0.500666 0.736928 0.871022
C11   C     C_R   0.730510 0.493676 0.139348 -0.080734
C12   C     C_R   0.729897 0.485130 0.880119 -0.049704
C13   C     C_R   0.841193 0.485533 0.079262 -0.100729
C14   C     C_R   0.840814 0.480148 0.949909 -0.041902
C15   C     C_R   0.616760 0.493875 0.939434 0.006763
C16   C     C_R   0.616994 0.495811 0.070443 0.004757
C17   C     C_R   0.503695 0.498376 0.129223 -0.138185
C18   C     C_R   0.503434 0.500761 0.871160 -0.158117
C19   C     C_R   0.391217 0.498697 0.060831 0.332023
C20   C     C_R   0.391146 0.504110 0.930156 0.318193
C21   C     C_R   0.059450 0.402996 0.429453 0.319030
C22   C     C_R   0.931150 0.400046 0.434093 0.397481
C23   C     C_R   0.871964 0.502676 0.502961 -0.228462
C24   C     C_R   0.128856 0.501506 0.502126 -0.232623
Cu1   Cu    Cu3+1 0.500000 0.640660 0.500000 0.939810
Cu2   Cu    Cu3+1 0.500000 0.359340 0.500000 1.020290
H1    H     H_    0.734487 0.497860 0.239784 0.145456
H2    H     H_    0.733592 0.481711 0.779787 0.099973
H3    H     H_    0.927442 0.482909 0.133266 0.155737
H4    H     H_    0.926806 0.472989 0.903433 0.157920
N1    N     N_R   0.500000 0.852070 0.500000 -0.302229
N2    N     N_R   0.500000 0.147940 0.500000 -0.284531
O1    O     O_R   0.319640 0.618740 0.499990 -0.629482
O2    O     O_R   0.680360 0.618740 0.500010 -0.614474
O3    O     O_R   0.319620 0.381170 0.499990 -0.566824
O4    O     O_R   0.680380 0.381170 0.500010 -0.551693
O5    O     O_R   0.500000 0.618810 0.319650 -0.599124
O6    O     O_R   0.500000 0.618810 0.680350 -0.628745
O7    O     O_R   0.499970 0.381240 0.319640 -0.556298
O8    O     O_R   0.500030 0.381240 0.680360 -0.551025
O9    O     O_3   0.283814 0.492213 0.124545 -0.769387
H5    H     H_    0.219795 0.443559 0.071610 0.342218
O10   O     O_3   0.283675 0.511463 0.857488 -0.764702
H6    H     H_    0.221044 0.560216 0.905248 0.334597
O11   O     O_3   0.114015 0.312903 0.348454 -0.723139
H7    H     H_    0.180610 0.363989 0.308699 0.345104
O12   O     O_3   0.860329 0.302942 0.366246 -0.711274
H8    H     H_    0.913164 0.232369 0.328753 0.382598
C25   C     C_2   0.879082 0.709756 0.648387 0.517883
H9    H     H_    0.817788 0.783316 0.604157 0.130711
O13   O     O_2   0.900604 0.717367 0.760641 -0.502838
C26   C     C_2   0.142659 0.712980 0.644577 0.484504
H10   H     H_    0.226771 0.686435 0.695581 0.116118
O14   O     O_2   0.112013 0.834104 0.643586 -0.514720
O15   O     O_3   0.379099 0.134200 0.308488 -0.655187
H11   H     H_    0.343396 0.218507 0.342560 0.376551
O16   O     O_3   0.618704 0.145562 0.692401 -0.675759
H12   H     H_    0.664753 0.222822 0.657583 0.360878
C27   C     C_2   0.372217 0.850376 0.302433 0.552153
H13   H     H_    0.312785 0.764237 0.322443 0.096936
O17   O     O_2   0.378323 0.885951 0.194446 -0.488538
C28   C     C_2   0.581720 0.871509 0.721371 0.536362
H14   H     H_    0.508825 0.833197 0.777484 0.082513
O18   O     O_2   0.685679 0.881853 0.767809 -0.494622

loop_
_geom_bond_atom_site_label_1
_geom_bond_atom_site_label_2
_ccdc_geom_bond_type
Cu1   N1    S    
C15   C18   A    
C6    N2    A    
O15   H11   S    
Cu2   N2    S    
C28   H14   S    
C13   C14   A    
Cu1   O6    S    
O9    H5    S    
C21   O11   S    
C19   C20   A    
C12   C15   A    
C11   H1    S    
Cu1   O2    S    
C10   O6    A    
C5    N2    A    
C2    O2    A    
Cu1   O1    S    
C9    O5    A    
C22   O12   S    
C3    C25   S    
C1    O1    A    
C27   H13   S    
C21   C22   A    
C11   C13   A    
C6    O16   S    
Cu2   O8    S    
O16   H12   S    
C14   H4    S    
C4    C24   A    
C9    C17   S    
C17   C19   A    
C26   O14   D    
C4    C26   S    
C18   C20   A    
O10   H6    S    
C10   C18   S    
Cu2   O7    S    
C27   O17   D    
C7    N1    A    
C13   H3    S    
C2    O4    A    
C15   C16   A    
O12   H8    S    
C19   O9    S    
Cu2   O3    S    
C9    O7    A    
C20   O10   S    
C26   H10   S    
C12   H2    S    
C1    C24   S    
C10   O8    A    
C25   H9    S    
C11   C16   A    
C21   C24   A    
Cu2   O4    S    
C2    C23   S    
C5    C7    A    
C1    O3    A    
C22   C23   A    
C28   O18   D    
C6    C8    A    
Cu1   O5    S    
Cu1   Cu2   S    
O11   H7    S    
C8    N1    A    
C3    C23   A    
C5    O15   S    
C7    C27   S    
C3    C4    A    
C8    C28   S    
C12   C14   A    
C16   C17   A    
C25   O13   D    
