data_mof_unit_44878.cif
_audit_creation_date              2012-12-10T17:35:00-0500
_audit_creation_method            fapswitch 2.2
_symmetry_space_group_name_H-M    P1
_symmetry_Int_Tables_number       1
_space_group_crystal_system       triclinic
_cell_length_a                    12.352176
_cell_length_b                    13.188113
_cell_length_c                    13.856106
_cell_angle_alpha                 104.950884
_cell_angle_beta                  73.542306
_cell_angle_gamma                 116.619679
_cell_volume                      1912.50831629

loop_
_atom_site_label
_atom_site_type_symbol
_atom_type_description
_atom_site_fract_x
_atom_site_fract_y
_atom_site_fract_z
_atom_type_partial_charge
C1    C     C_R   0.144508 0.713666 0.508945 0.776318
C2    C     C_1   0.974276 0.506697 0.791936 -0.188685
C3    C     C_R   0.738282 0.978467 0.364316 -0.162851
C4    C     C_R   0.775433 0.165136 0.465513 -0.049513
C5    C     C_R   0.178112 0.915614 0.577185 -0.193282
C6    C     C_R   0.255113 0.030475 0.597908 -0.159530
C7    C     C_R   0.381756 0.067644 0.562116 -0.121722
C8    C     C_R   0.434151 0.990381 0.500820 0.080833
C9    C     C_R   0.353449 0.876166 0.469888 0.015850
C10   C     C_R   0.563727 0.023244 0.467959 -0.004571
C11   C     C_R   0.610128 0.946024 0.396894 0.047719
C12   C     C_R   0.983929 0.504052 0.686449 0.811605
C13   C     C_R   0.528289 0.838362 0.357930 0.397807
C14   C     C_R   0.401556 0.805311 0.392699 -0.293747
C15   C     C_R   0.649031 0.131040 0.503710 -0.207892
C16   C     C_R   0.820337 0.087650 0.397883 -0.230816
C17   C     C_R   0.226064 0.836811 0.515521 -0.081489
C18   C     C_R   0.651852 0.691158 0.641867 0.278386
C19   C     C_R   0.244553 0.345473 0.370148 0.005138
C20   C     C_R   0.332511 0.300663 0.348526 -0.350794
C21   C     C_R   0.434501 0.353668 0.397208 0.446227
C22   C     C_R   0.446372 0.454973 0.470669 -0.057335
C23   C     C_R   0.856155 0.286418 0.485941 0.785488
C24   C     C_R   0.347223 0.492015 0.494666 0.202758
C25   C     C_R   0.549944 0.521346 0.522440 -0.068114
C26   C     C_R   0.549537 0.619641 0.595158 -0.027407
C27   C     C_R   0.447520 0.646848 0.621068 -0.255435
C28   C     C_R   0.348731 0.583843 0.573059 -0.168543
C29   C     C_R   0.657030 0.499091 0.503321 -0.077222
C30   C     C_R   0.746431 0.655215 0.628551 0.538924
C31   C     C_R   0.015763 0.495575 0.313536 0.802666
C32   C     C_1   0.024648 0.492416 0.208106 -0.172292
C33   C     C_2   0.038671 0.487399 0.013950 -0.156061
C34   C     C_2   0.958752 0.511339 0.986319 -0.167496
C35   C     C_1   0.966359 0.509043 0.880763 0.004650
C36   C     C_1   0.031649 0.489878 0.119414 0.003026
Cu1   Cu    Cu3+1 0.899780 0.525060 0.522890 0.961818
Cu2   Cu    Cu3+1 0.100220 0.474940 0.477110 0.924032
H1    H     H_    0.887564 0.532775 0.042625 0.153631
H2    H     H_    0.341827 0.724760 0.355662 0.187346
H3    H     H_    0.443199 0.718234 0.679694 0.185964
H4    H     H_    0.672690 0.433982 0.444520 0.225180
H5    H     H_    0.166557 0.302175 0.332219 0.151643
H6    H     H_    0.317392 0.220945 0.296521 0.149502
H7    H     H_    0.274495 0.610427 0.600683 0.208464
H8    H     H_    0.109837 0.466026 0.957581 0.158674
H9    H     H_    0.918263 0.112963 0.367632 0.152150
H10   H     H_    0.775554 0.920721 0.310648 0.178665
H11   H     H_    0.619884 0.191659 0.560359 0.149670
H12   H     H_    0.081023 0.888092 0.611582 0.193721
H13   H     H_    0.435390 0.157970 0.581816 0.142524
H14   H     H_    0.216803 0.090695 0.644732 0.144283
N1    N     N_R   0.748810 0.563010 0.557590 -0.254103
N2    N     N_R   0.250540 0.437620 0.443020 -0.203880
O1    O     O_R   0.025040 0.682470 0.528790 -0.526387
O2    O     O_R   0.194310 0.640150 0.490130 -0.613191
O3    O     O_R   0.903380 0.524130 0.659910 -0.552344
O4    O     O_R   0.072660 0.481800 0.621240 -0.585067
O5    O     O_R   0.805690 0.359850 0.509870 -0.586445
O6    O     O_R   0.974960 0.317530 0.471210 -0.585767
O7    O     O_R   0.927340 0.518200 0.378760 -0.583394
O8    O     O_R   0.096620 0.475870 0.340090 -0.581129
O9    O     O_3   0.846232 0.721543 0.675847 -0.556714
C37   C     C_3   0.810494 0.712063 0.780538 0.095470
H15   H     H_    0.769071 0.620713 0.792280 0.139206
H16   H     H_    0.743042 0.750752 0.820443 0.180281
C38   C     C_3   0.924013 0.776487 0.829173 -0.788754
H17   H     H_    0.898383 0.766594 0.910816 0.204695
H18   H     H_    0.995249 0.742202 0.790044 0.245703
H19   H     H_    0.963263 0.869140 0.823150 0.238849
O10   O     O_3   0.659351 0.795045 0.702189 -0.601666
C39   C     C_3   0.697327 0.879612 0.639735 0.076615
H20   H     H_    0.662063 0.945575 0.683641 0.168282
H21   H     H_    0.658536 0.846042 0.568771 0.128619
C40   C     C_3   0.837834 0.938648 0.612853 -0.783909
H22   H     H_    0.876022 0.878423 0.559795 0.244184
H23   H     H_    0.865071 0.013517 0.574980 0.208976
H24   H     H_    0.877319 0.968909 0.682912 0.258476
O11   O     O_3   0.508542 0.295671 0.385287 -0.593854
C41   C     C_3   0.567795 0.280698 0.282175 0.029925
H25   H     H_    0.615360 0.363301 0.251379 0.133700
H26   H     H_    0.501193 0.216757 0.233978 0.155194
C42   C     C_3   0.664060 0.235190 0.274154 -0.759214
H27   H     H_    0.619020 0.151201 0.301982 0.263236
H28   H     H_    0.710815 0.223329 0.193458 0.200438
H29   H     H_    0.734612 0.296481 0.319763 0.243435
O12   O     O_3   0.572494 0.767773 0.281018 -0.582969
C43   C     C_3   0.566586 0.677892 0.322528 0.071624
H30   H     H_    0.471199 0.610044 0.330287 0.164772
H31   H     H_    0.595095 0.708177 0.398106 0.136379
C44   C     C_3   0.653699 0.626145 0.251072 -0.808674
H32   H     H_    0.748920 0.693703 0.237981 0.246511
H33   H     H_    0.654364 0.559522 0.285724 0.196080
H34   H     H_    0.623204 0.586597 0.177032 0.246941

loop_
_geom_bond_atom_site_label_1
_geom_bond_atom_site_label_2
_ccdc_geom_bond_type
C2    C35   T    
O12   C43   S    
C29   H4    S    
C31   O7    A    
C19   C20   A    
C18   C26   A    
C9    C14   A    
C2    C12   S    
C7    C8    A    
C23   O5    A    
C26   C27   A    
C32   C36   T    
C1    O2    A    
C10   C15   A    
C41   C42   S    
C5    C6    A    
C5    C17   A    
C24   N2    A    
C3    H10   S    
C33   C36   S    
C34   C35   S    
Cu2   O4    S    
C42   H27   S    
C8    C9    A    
C22   C25   A    
C18   C30   A    
C12   O4    A    
C13   C14   A    
C33   H8    S    
C31   O8    A    
C21   O11   S    
C39   C40   S    
C16   H9    S    
C20   H6    S    
C19   H5    S    
C25   C29   A    
C23   O6    A    
C30   N1    A    
C28   H7    S    
C38   H17   S    
C37   C38   S    
O11   C41   S    
C39   H21   S    
C44   H32   S    
C4    C23   S    
C39   H20   S    
C25   C26   A    
C14   H2    S    
C34   H1    S    
C38   H18   S    
C37   H16   S    
C4    C16   A    
C40   H22   S    
Cu1   Cu2   S    
C44   H33   S    
C27   H3    S    
C31   C32   S    
Cu2   N2    S    
C43   C44   S    
C13   O12   S    
C33   C34   D    
C43   H30   S    
C40   H23   S    
Cu1   O5    S    
Cu2   O6    S    
C12   O3    A    
C19   N2    A    
C41   H26   S    
C42   H28   S    
C43   H31   S    
C22   C24   A    
C5    H12   S    
C9    C17   A    
C18   O10   S    
C24   C28   A    
C41   H25   S    
Cu1   O7    S    
C6    C7    A    
C1    C17   S    
C38   H19   S    
C37   H15   S    
C4    C15   A    
C1    O1    A    
Cu1   N1    S    
O10   C39   S    
C44   H34   S    
C11   C13   A    
C29   N1    A    
C30   O9    S    
C15   H11   S    
C40   H24   S    
C3    C11   A    
C10   C11   A    
C7    H13   S    
O9    C37   S    
Cu1   O1    S    
C42   H29   S    
Cu2   O2    S    
C20   C21   A    
C8    C10   A    
C27   C28   A    
C6    H14   S    
C21   C22   A    
Cu1   O3    S    
C3    C16   A    
Cu2   O8    S    
