data_mof_unit_17582.cif
_audit_creation_date              2012-12-11T17:23:13-0500
_audit_creation_method            fapswitch 2.2
_symmetry_space_group_name_H-M    P1
_symmetry_Int_Tables_number       1
_space_group_crystal_system       monoclinic
_cell_length_a                    22.410315
_cell_length_b                    7.080387
_cell_length_c                    19.552019
_cell_angle_alpha                 90.0
_cell_angle_beta                  99.033913
_cell_angle_gamma                 90.0
_cell_volume                      3063.90787618

loop_
_atom_site_label
_atom_site_type_symbol
_atom_type_description
_atom_site_fract_x
_atom_site_fract_y
_atom_site_fract_z
_atom_type_partial_charge
O1    O     O_R   0.443980 0.494320 0.557430 -0.529404
O2    O     O_R   0.556020 0.994320 0.442570 -0.529404
O3    O     O_R   0.441210 0.822520 0.414610 -0.537441
O4    O     O_R   0.558790 0.322520 0.585390 -0.537441
C1    C     C_R   0.426523 0.655100 0.389455 0.693257
C2    C     C_R   0.573476 0.155100 0.610545 0.693258
O5    O     O_R   0.436920 0.823940 0.555180 -0.534186
O6    O     O_R   0.563080 0.323940 0.444820 -0.534185
O7    O     O_R   0.551700 0.995760 0.584140 -0.539707
O8    O     O_R   0.448300 0.495760 0.415860 -0.539707
C3    C     C_R   0.421483 0.655264 0.574776 0.712201
C4    C     C_R   0.578517 0.155264 0.425224 0.712202
O9    O     O_3   0.537660 0.661290 0.509340 -0.370385
O10   O     O_3   0.462340 0.161290 0.490660 -0.370385
V1    V     V_3+5 0.493010 0.935560 0.498270 1.436454
V2    V     V_3+5 0.506990 0.435560 0.501730 1.436454
C5    C     C_R   0.753039 0.937245 0.209078 0.158922
C6    C     C_R   0.246961 0.437245 0.790924 0.158921
C7    C     C_R   0.794597 0.086008 0.206319 0.041906
C8    C     C_R   0.205403 0.586008 0.793682 0.041906
C9    C     C_R   0.792376 0.244353 0.248859 -0.153319
C10   C     C_R   0.207625 0.744353 0.751141 -0.153320
H1    H     H_    0.824213 0.359020 0.247669 0.150416
H2    H     H_    0.175788 0.859020 0.752331 0.150416
C11   C     C_R   0.749028 0.257460 0.293032 -0.145167
C12   C     C_R   0.250972 0.757460 0.706969 -0.145168
H3    H     H_    0.748162 0.382239 0.324929 0.158106
H4    H     H_    0.251839 0.882239 0.675072 0.158105
C13   C     C_R   0.707275 0.111587 0.296280 0.049190
C14   C     C_R   0.292725 0.611588 0.703721 0.049189
C15   C     C_R   0.709655 0.949178 0.254669 0.144187
C16   C     C_R   0.290346 0.449179 0.745332 0.144188
C17   C     C_1   0.839869 0.078117 0.160295 0.041030
C18   C     C_1   0.160131 0.578117 0.839705 0.041030
C19   C     C_1   0.662273 0.130907 0.342382 0.032126
C20   C     C_1   0.337728 0.630908 0.657619 0.032127
C21   C     C_1   0.624369 0.144538 0.380393 -0.154445
C22   C     C_1   0.375632 0.644538 0.619608 -0.154438
C23   C     C_1   0.877525 0.070578 0.121866 -0.123527
C24   C     C_1   0.122475 0.570578 0.878135 -0.123527
C25   C     C_R   0.628608 0.199308 0.802053 -0.153177
C26   C     C_R   0.371392 0.699305 0.197947 -0.153171
H5    H     H_    0.708326 0.245771 0.911865 0.163759
H6    H     H_    0.291674 0.745770 0.088135 0.163759
H7    H     H_    0.610684 0.238279 0.848527 0.133303
H8    H     H_    0.389317 0.738274 0.151473 0.133302
C27   C     C_R   0.612854 0.147843 0.678387 -0.065485
C28   C     C_R   0.387145 0.647842 0.321613 -0.065490
C29   C     C_R   0.906756 0.018906 0.764211 0.123860
C30   C     C_R   0.093243 0.518909 0.235789 0.123860
C31   C     C_R   0.867927 0.993162 0.701397 -0.107442
C32   C     C_R   0.132072 0.493165 0.298603 -0.107443
C33   C     C_R   0.806075 0.019691 0.696114 -0.196720
C34   C     C_R   0.193924 0.519693 0.303886 -0.196721
C35   C     C_R   0.779475 0.081735 0.752716 0.070379
C36   C     C_R   0.220525 0.581736 0.247284 0.070380
C37   C     C_R   0.818188 0.114721 0.817794 0.004857
C38   C     C_R   0.181812 0.614721 0.182206 0.004856
C39   C     C_R   0.715315 0.114252 0.745977 0.084830
C40   C     C_R   0.284684 0.614253 0.254023 0.084830
C41   C     C_R   0.690565 0.164550 0.805555 0.064762
C42   C     C_R   0.309435 0.664550 0.194445 0.064759
C43   C     C_R   0.727999 0.195453 0.867940 -0.172979
C44   C     C_R   0.272001 0.695453 0.132060 -0.172979
C45   C     C_R   0.790442 0.186972 0.873168 0.096623
C46   C     C_R   0.209558 0.686972 0.126832 0.096623
C47   C     C_R   0.674778 0.105053 0.682103 -0.239062
C48   C     C_R   0.325221 0.605055 0.317897 -0.239063
C49   C     C_R   0.589554 0.194467 0.739082 0.106983
C50   C     C_R   0.410446 0.694462 0.260918 0.106988
C51   C     C_R   0.882033 0.073290 0.823912 -0.128865
C52   C     C_R   0.117967 0.573291 0.176088 -0.128863
H9    H     H_    0.690123 0.074016 0.633784 0.102405
H10   H     H_    0.309876 0.574021 0.366216 0.102405
H11   H     H_    0.780017 0.988974 0.646272 0.117956
H12   H     H_    0.219982 0.488977 0.353728 0.117956
H13   H     H_    0.884710 0.947602 0.655225 0.132318
H14   H     H_    0.115289 0.447605 0.344775 0.132318
O11   O     O_R   0.051730 0.724670 0.084120 -0.529099
O12   O     O_R   0.948270 0.224670 0.915880 -0.529099
O13   O     O_R   0.063080 0.393540 0.944820 -0.531132
O14   O     O_R   0.936920 0.893540 0.055180 -0.531132
C53   C     C_R   0.077377 0.561768 0.923858 0.728593
C54   C     C_R   0.922623 0.061768 0.076142 0.728593
O15   O     O_R   0.058800 0.395030 0.085390 -0.540209
O16   O     O_R   0.941200 0.895030 0.914610 -0.540209
O17   O     O_R   0.943980 0.223310 0.057440 -0.527833
O18   O     O_R   0.056020 0.723310 0.942560 -0.527834
C55   C     C_R   0.076312 0.564905 0.108442 0.707233
C56   C     C_R   0.923688 0.064905 0.891558 0.707233
O19   O     O_3   0.962360 0.556290 0.990650 -0.355108
O20   O     O_3   0.037640 0.056290 0.009350 -0.355108
V3    V     V_3+5 0.006980 0.281990 0.001730 1.507502
V4    V     V_3+5 0.993020 0.781990 0.998270 1.507502
I1    I     I_    0.648320 0.722122 0.262350 -0.431469
I2    I     I_    0.351682 0.222125 0.737652 -0.431462
I3    I     I_    0.830095 0.352901 0.957912 -0.333589
I4    I     I_    0.169905 0.852900 0.042088 -0.333589
I5    I     I_    0.756403 0.697229 0.143461 -0.340144
I6    I     I_    0.243598 0.197230 0.856540 -0.340144
C57   C     C_3   0.523899 0.246410 0.738499 -0.344762
C58   C     C_3   0.516429 0.460362 0.742548 -0.677011
H15   H     H_    0.542789 0.516327 0.791169 0.224234
H16   H     H_    0.532025 0.529943 0.697606 0.221511
H17   H     H_    0.468115 0.495791 0.741888 0.237655
H18   H     H_    0.494532 0.192993 0.691455 0.190115
H19   H     H_    0.507321 0.179200 0.783357 0.207249
C59   C     C_3   0.476102 0.746398 0.261502 -0.344764
C60   C     C_3   0.483574 0.960351 0.257452 -0.676963
H20   H     H_    0.457225 0.016325 0.208818 0.224221
H21   H     H_    0.467966 0.029943 0.302387 0.221504
H22   H     H_    0.531891 0.995758 0.258130 0.237653
H23   H     H_    0.505468 0.692981 0.308547 0.190108
H24   H     H_    0.492680 0.679184 0.216645 0.207245
C61   C     C_3   0.974894 0.986569 0.769441 -0.337328
C62   C     C_3   0.998742 0.955290 0.701155 -0.784421
H25   H     H_    0.981087 0.820805 0.676639 0.224613
H26   H     H_    0.986123 0.075531 0.665303 0.230219
H27   H     H_    0.048822 0.945486 0.711563 0.223517
H28   H     H_    0.998848 0.111950 0.794669 0.176426
H29   H     H_    0.988033 0.861952 0.802937 0.184704
C63   C     C_3   0.025105 0.486571 0.230559 -0.337328
C64   C     C_3   0.001257 0.455308 0.298845 -0.784422
H30   H     H_    0.018911 0.320826 0.323365 0.224613
H31   H     H_    0.013877 0.575555 0.334694 0.230221
H32   H     H_    0.951177 0.445507 0.288437 0.223518
H33   H     H_    0.001152 0.611946 0.205327 0.176427
H34   H     H_    0.011968 0.361947 0.197066 0.184703

loop_
_geom_bond_atom_site_label_1
_geom_bond_atom_site_label_2
_ccdc_geom_bond_type
C57   H19   S    
C43   C45   A    
C57   C58   S    
C61   H29   S    
C35   C39   A    
C63   H33   S    
O1    C3    A    
C54   O17   A    
C25   C41   A    
O2    C4    A    
C2    O7    A    
H5    C43   S    
C64   H30   S    
H6    C44   S    
O5    C3    A    
C17   C23   T    
C18   C24   T    
C19   C21   T    
C23   C54   S    
C60   H21   S    
C64   H31   S    
C48   H10   S    
C61   C62   S    
C26   C50   A    
C59   C60   S    
C58   H17   S    
C40   C42   A    
C26   H8    S    
C59   H24   S    
C4    C21   S    
C41   C43   A    
C30   C52   A    
C27   C49   A    
C42   C44   A    
O16   V4    S    
C39   C47   A    
O15   V3    S    
C38   C46   A    
C36   C38   A    
C29   C31   A    
C30   C63   S    
C30   C32   A    
C47   H9    S    
C26   C42   A    
C8    C18   S    
O5    V1    S    
C53   O18   A    
O6    V2    S    
O12   C56   A    
C24   C53   S    
C33   H11   S    
C6    I6    S    
C32   H14   S    
C27   C47   A    
O13   C53   A    
C32   C34   A    
O18   V4    S    
C33   C35   A    
C11   C13   A    
C1    C28   S    
C34   C36   A    
C39   C41   A    
C2    C27   S    
O11   V4    S    
O4    C2    A    
O16   C56   A    
C60   H22   S    
C37   C45   A    
O15   C55   A    
C64   H32   S    
C28   C48   A    
C36   C40   A    
C31   C33   A    
C44   C46   A    
C59   H23   S    
O4    V2    S    
C3    C22   S    
C31   H13   S    
O19   V3    S    
O13   V3    S    
O6    C4    A    
O20   V4    S    
O1    V2    S    
C37   C51   A    
C58   H16   S    
O2    V1    S    
C5    I5    S    
C34   H12   S    
C29   C61   S    
C8    C10   A    
C12   C14   A    
O14   C54   A    
C9    H1    S    
C7    C17   S    
C5    C15   A    
C10   H2    S    
C6    C16   A    
O14   V4    S    
O3    V1    S    
C25   C49   A    
C57   H18   S    
C9    C11   A    
O12   V3    S    
C16   I2    S    
C28   C50   A    
O3    C1    A    
C49   C57   S    
C11   H3    S    
C13   C19   S    
C12   H4    S    
C62   H27   S    
C14   C20   S    
C46   I4    S    
C35   C37   A    
O7    V1    S    
C45   I3    S    
C1    O8    A    
C13   C15   A    
O8    V2    S    
C60   H20   S    
O19   V4    S    
C14   C16   A    
C52   C55   S    
C38   C52   A    
C51   C56   S    
C15   I1    S    
O17   V3    S    
C20   C22   T    
O20   V3    S    
C5    C7    A    
C62   H26   S    
C62   H25   S    
C6    C8    A    
C63   H34   S    
C58   H15   S    
O11   C55   A    
C10   C12   A    
C40   C48   A    
C61   H28   S    
C29   C51   A    
O9    V2    S    
C25   H7    S    
O10   V1    S    
C50   C59   S    
C63   C64   S    
C7    C9    A    
