data_mof_unit_34020.cif
_audit_creation_date              2012-12-11T17:37:45-0500
_audit_creation_method            fapswitch 2.2
_symmetry_space_group_name_H-M    P1
_symmetry_Int_Tables_number       1
_space_group_crystal_system       triclinic
_cell_length_a                    13.116705
_cell_length_b                    13.062597
_cell_length_c                    15.508123
_cell_angle_alpha                 117.353299
_cell_angle_beta                  63.129063
_cell_angle_gamma                 97.867136
_cell_volume                      2096.79773038

loop_
_atom_site_label
_atom_site_type_symbol
_atom_type_description
_atom_site_fract_x
_atom_site_fract_y
_atom_site_fract_z
_atom_type_partial_charge
Br1   Br    Br    0.429571 0.967714 0.205962 -0.628215
Br2   Br    Br    0.506679 0.324981 0.984044 -0.673439
C1    C     C_R   0.023271 0.835049 0.031537 -0.132461
C2    C     C_R   0.320549 0.522908 0.779219 -0.133539
C3    C     C_R   0.254454 0.452642 0.081311 -0.110049
C4    C     C_R   0.701194 0.406562 0.209987 -0.153423
C5    C     C_R   0.974210 0.303918 0.703640 -0.145451
C6    C     C_R   0.353503 0.496252 0.032609 0.099430
C7    C     C_R   0.909122 0.211579 0.706764 0.081722
C8    C     C_R   0.327049 0.441639 0.679440 0.041039
C9    C     C_R   0.073267 0.141907 0.975665 0.048206
C10   C     C_R   0.285581 0.034735 0.244214 0.376645
C11   C     C_R   0.184195 0.017148 0.320127 -0.221019
C12   C     C_R   0.700766 0.442832 0.309285 0.065068
C13   C     C_R   0.077691 0.064712 0.347353 0.066060
C14   C     C_R   0.074423 0.132858 0.300138 -0.207165
C15   C     C_R   0.176107 0.151683 0.225611 -0.169549
C16   C     C_R   0.739203 0.575349 0.947206 -0.119055
C17   C     C_R   0.281445 0.102062 0.196962 -0.181763
C18   C     C_R   0.921013 0.146332 0.528474 -0.219942
C19   C     C_R   0.871069 0.134217 0.623997 0.068816
C20   C     C_R   0.824654 0.028952 0.620477 0.023992
C21   C     C_R   0.852325 0.934507 0.519995 -0.242926
C22   C     C_R   0.935146 0.940044 0.425347 0.060193
C23   C     C_R   0.638755 0.559570 0.023730 0.187419
C24   C     C_R   0.971350 0.048909 0.430526 0.048759
C25   C     C_R   0.798765 0.941485 0.741459 -0.220522
C26   C     C_R   0.729808 0.918805 0.829602 -0.127886
C27   C     C_R   0.614436 0.961884 0.891770 -0.090816
C28   C     C_R   0.957919 0.721771 0.315971 -0.133338
C29   C     C_R   0.568056 0.027979 0.866067 -0.068464
C30   C     C_R   0.637322 0.052577 0.779041 -0.075502
C31   C     C_R   0.753237 0.010086 0.716735 0.096151
C32   C     C_R   0.943622 0.451026 0.412062 -0.170179
C33   C     C_R   0.843938 0.392902 0.417859 -0.200878
C34   C     C_R   0.978826 0.832278 0.324606 0.056419
C35   C     C_R   0.735677 0.453249 0.495572 0.123397
C36   C     C_R   0.729419 0.563732 0.578204 -0.172121
C37   C     C_R   0.828344 0.620393 0.573495 -0.245400
C38   C     C_R   0.935316 0.568859 0.486066 0.225942
C39   C     C_R   0.534831 0.409263 0.566217 -0.238566
C40   C     C_R   0.664890 0.492107 0.058003 -0.037609
C41   C     C_R   0.424806 0.418625 0.576105 0.075795
C42   C     C_R   0.409923 0.426632 0.494406 0.020357
C43   C     C_R   0.504225 0.416613 0.402222 -0.213414
C44   C     C_R   0.613707 0.419682 0.396488 0.072451
C45   C     C_R   0.333199 0.555458 0.987930 -0.141200
C46   C     C_R   0.630389 0.417242 0.480237 0.033811
C47   C     C_R   0.237500 0.386329 0.459696 -0.168873
C48   C     C_R   0.120154 0.411914 0.500823 -0.143521
C49   C     C_R   0.065197 0.516111 0.592377 -0.112880
C50   C     C_R   0.129427 0.600732 0.635213 -0.126887
C51   C     C_R   0.247375 0.577059 0.592423 -0.109464
C52   C     C_R   0.041755 0.820546 0.220307 -0.115976
C53   C     C_R   0.299553 0.465997 0.510625 0.102818
C54   C     C_2   0.460936 0.482476 0.027905 0.290252
C55   C     C_2   0.525773 0.572373 0.037225 -0.338995
C56   C     C_R   0.895963 0.204534 0.797237 -0.126602
C57   C     C_2   0.888677 0.968122 0.039300 -0.194307
C58   C     C_2   0.876518 0.059518 0.132037 -0.098159
C59   C     C_R   0.794128 0.505011 0.309042 -0.134551
C60   C     C_R   0.923543 0.749864 0.936290 -0.143914
C61   C     C_R   0.946617 0.856175 0.001146 0.132828
C62   C     C_3   0.033562 0.646190 0.473227 -0.457350
C63   C     C_3   0.141682 0.591981 0.365673 -0.271603
C64   C     C_3   0.231765 0.678578 0.355921 -0.837880
C65   C     C_R   0.216625 0.422290 0.691577 -0.086355
C66   C     C_R   0.090219 0.248379 0.047548 -0.111866
C67   C     C_R   0.992140 0.165710 0.951052 -0.101306
H1    H     H_    0.068521 0.899727 0.070947 0.099442
H2    H     H_    0.188107 0.966154 0.357511 0.149054
H3    H     H_    0.648205 0.344805 0.177941 0.126850
H4    H     H_    0.993456 0.171943 0.321791 0.123389
H5    H     H_    0.173443 0.205685 0.190867 0.126912
H6    H     H_    0.945650 0.228847 0.529625 0.119186
H7    H     H_    0.815099 0.854797 0.518045 0.131750
H8    H     H_    0.887887 0.906891 0.693141 0.117064
H9    H     H_    0.765531 0.866832 0.848943 0.108306
H10   H     H_    0.560785 0.943413 0.959353 0.148433
H11   H     H_    0.478283 0.059968 0.913529 0.140284
H12   H     H_    0.837479 0.155730 0.835661 0.132961
H13   H     H_    0.600369 0.102953 0.759120 0.146405
H14   H     H_    0.746139 0.614684 0.897211 0.096712
H15   H     H_    0.024860 0.406021 0.345255 0.108425
H16   H     H_    0.850373 0.307135 0.354121 0.127646
H17   H     H_    0.646955 0.611072 0.640364 0.127467
H18   H     H_    0.820217 0.708346 0.633747 0.138472
H19   H     H_    0.545136 0.409706 0.631978 0.136946
H20   H     H_    0.489692 0.424998 0.342121 0.131590
H21   H     H_    0.277254 0.301230 0.395450 0.149658
H22   H     H_    0.070793 0.348703 0.465360 0.132061
H23   H     H_    0.190795 0.360169 0.631374 0.127178
H24   H     H_    0.972994 0.532395 0.628971 0.118632
H25   H     H_    0.087307 0.683003 0.703632 0.107869
H26   H     H_    0.913607 0.697210 0.379882 0.098071
H27   H     H_    0.295226 0.640007 0.630959 0.109462
H28   H     H_    0.496150 0.655180 0.051915 0.163553
H29   H     H_    0.846875 0.974473 0.995258 0.138681
H30   H     H_    0.912192 0.057309 0.182165 0.117541
H31   H     H_    0.606520 0.462597 0.116236 0.132735
H32   H     H_    0.077391 0.886151 0.195475 0.115515
H33   H     H_    0.819353 0.548632 0.372382 0.130142
H34   H     H_    0.147238 0.260951 0.083260 0.093342
H35   H     H_    0.874926 0.735740 0.891992 0.085472
H36   H     H_    0.389110 0.609501 0.953838 0.098781
H37   H     H_    0.197792 0.753889 0.358543 0.259107
H38   H     H_    0.256806 0.709101 0.422782 0.259573
H39   H     H_    0.309215 0.636381 0.277674 0.249965
H40   H     H_    0.179561 0.515947 0.358705 0.213540
H41   H     H_    0.117703 0.563915 0.298631 0.197763
H42   H     H_    0.003022 0.726348 0.480745 0.183371
H43   H     H_    0.055252 0.676501 0.541582 0.199496
H44   H     H_    0.958859 0.103065 0.896899 0.096260
H45   H     H_    0.391241 0.561541 0.796749 0.098166
H46   H     H_    0.240419 0.412792 0.132818 0.104844
H47   H     H_    0.987742 0.346186 0.654727 0.107039
H48   H     H_    0.359749 0.116887 0.138957 0.155129
N1    N     N_R   0.037320 0.720000 0.995830 -0.044894
N2    N     N_R   0.824900 0.517970 0.936430 -0.049105
N3    N     N_R   0.003190 0.648180 0.211390 -0.042780
N4    N     N_R   0.774330 0.457010 0.995830 -0.046932
N5    N     N_R   0.053760 0.709130 0.151980 -0.040868
N6    N     N_R   0.853840 0.498830 0.211390 -0.042005
N7    N     N_R   0.974250 0.667320 0.936430 -0.041585
N8    N     N_R   0.225670 0.542990 0.004170 -0.037214
N9    N     N_R   0.946240 0.290870 0.848020 -0.044922
N10   N     N_R   0.146160 0.501170 0.788610 -0.045385
N11   N     N_R   0.025750 0.332680 0.063570 -0.044373
N12   N     N_R   0.962680 0.280000 0.004170 -0.042079
N13   N     N_R   0.209230 0.553860 0.848010 -0.043588
N14   N     N_R   0.175100 0.482030 0.063570 -0.048164
N15   N     N_R   0.996810 0.351820 0.788610 -0.044420
N16   N     N_R   0.790770 0.446140 0.151990 -0.044833
Ni1   Ni    Ni4+2 0.130310 0.630310 0.000000 0.221171
Ni2   Ni    Ni4+2 0.869690 0.369690 0.000000 0.236439
Ni3   Ni    Ni4+2 0.985660 0.509480 0.863750 0.215537
Ni4   Ni    Ni4+2 0.014340 0.490520 0.136250 0.206572

loop_
_geom_bond_atom_site_label_1
_geom_bond_atom_site_label_2
_ccdc_geom_bond_type
N8    Ni1   S    
C52   H32   S    
C66   H34   S    
C37   H18   S    
C21   H7    S    
N11   Ni4   S    
C58   H30   S    
N11   N12   A    
C6    C54   S    
C60   N7    A    
C29   H11   S    
C12   C44   S    
C8    C65   A    
C25   C31   A    
C4    H3    S    
C10   C11   A    
C16   C23   A    
C67   H44   S    
C28   H26   S    
C32   H15   S    
C36   H17   S    
C32   C38   A    
C2    H45   S    
C26   C27   A    
C33   C35   A    
C35   C36   A    
C22   C24   A    
C7    C56   A    
C4    N16   A    
C40   H31   S    
C36   C37   A    
C62   H43   S    
C13   C14   A    
C54   C55   D    
C32   C33   A    
C20   C31   S    
C25   H8    S    
N5    Ni1   S    
N12   Ni2   S    
C14   C15   A    
C45   H36   S    
C21   C22   A    
C50   H25   S    
C43   H20   S    
C64   H38   S    
N1    Ni1   S    
N2    N4    A    
C52   N5    A    
C57   C58   D    
C19   C20   A    
C3    H46   S    
C51   H27   S    
C39   C41   A    
N13   Ni1   S    
Br1   C10   S    
C23   C55   S    
C64   H37   S    
N3    N5    A    
C45   N8    A    
C60   H35   S    
C51   C53   A    
C44   C46   A    
C28   N3    A    
N7    Ni3   S    
C14   H4    S    
C1    H1    S    
N10   Ni3   S    
C56   H12   S    
C37   C38   A    
C13   C24   S    
C2    N13   A    
C11   H2    S    
C48   C49   A    
C43   C44   A    
C12   C59   A    
C49   C50   A    
C18   H6    S    
C5    H47   S    
C41   C42   A    
C60   C61   A    
N14   Ni4   S    
C1    N1    A    
C65   N10   A    
C4    C12   A    
N8    N14   A    
C29   C30   A    
C27   H10   S    
N9    N15   A    
N15   Ni3   S    
C55   H28   S    
C16   H14   S    
N1    N7    A    
C50   C51   A    
N4    Ni2   S    
C35   C46   S    
C63   H40   S    
C5    N15   A    
C49   H24   S    
N6    N16   A    
N9    Ni2   S    
C56   N9    A    
C11   C13   A    
C15   H5    S    
C2    C8    A    
C26   H9    S    
C9    C66   A    
C5    C7    A    
C39   H19   S    
C66   N11   A    
C8    C41   S    
C42   C43   A    
C64   H39   S    
C62   H42   S    
C23   C40   A    
C3    C6    A    
C9    C67   A    
C1    C61   A    
C30   H13   S    
N6    Ni4   S    
C57   C61   S    
N2    Ni3   S    
C38   C62   S    
C28   C34   A    
C22   C34   S    
C59   N6    A    
C30   C31   A    
C59   H33   S    
C6    C45   A    
C27   C29   A    
C47   C53   A    
C62   C63   S    
C33   H16   S    
C42   C53   S    
C7    C19   S    
C18   C24   A    
C10   C17   A    
C65   H23   S    
C15   C17   A    
C39   C46   A    
C63   C64   S    
C63   H41   S    
N10   N13   A    
C34   C52   A    
C48   H22   S    
C3    N14   A    
C18   C19   A    
C17   H48   S    
C67   N12   A    
C47   C48   A    
C25   C26   A    
N16   Ni2   S    
C57   H29   S    
C20   C21   A    
Br2   C54   S    
N3    Ni4   S    
C16   N2    A    
C47   H21   S    
C40   N4    A    
