data_mof_unit_24641.cif
_audit_creation_date              2013-03-05T15:43:42-0500
_audit_creation_method            fapswitch 2.2
_symmetry_space_group_name_H-M    P1
_symmetry_Int_Tables_number       1
_space_group_crystal_system       triclinic
_cell_length_a                    13.912791
_cell_length_b                    14.047274
_cell_length_c                    27.288392
_cell_angle_alpha                 90.176005
_cell_angle_beta                  89.684911
_cell_angle_gamma                 120.541431
_cell_volume                      4593.17424739

loop_
_atom_site_label
_atom_site_type_symbol
_atom_site_description
_atom_site_fract_x
_atom_site_fract_y
_atom_site_fract_z
_atom_type_partial_charge
O1    O     O_R   0.137150 0.468200 0.553200 -0.509706
O2    O     O_R   0.531800 0.668950 0.553200 -0.507502
O3    O     O_R   0.331050 0.862850 0.553200 -0.510288
O4    O     O_R   0.173970 0.688730 0.549930 -0.496348
O5    O     O_R   0.311270 0.485240 0.549930 -0.496553
O6    O     O_R   0.514760 0.826030 0.549930 -0.492630
C1    C     C_R   0.233105 0.787553 0.568611 0.541560
C2    C     C_R   0.212160 0.446867 0.568937 0.543104
C3    C     C_R   0.552866 0.765746 0.568906 0.542623
O7    O     O_R   0.140110 0.470540 0.446010 -0.497018
O8    O     O_R   0.529460 0.669570 0.446010 -0.499287
O9    O     O_R   0.330430 0.859890 0.446010 -0.506227
O10   O     O_R   0.176710 0.690910 0.450560 -0.463299
O11   O     O_R   0.309090 0.485800 0.450560 -0.467330
O12   O     O_R   0.514200 0.823290 0.450560 -0.463202
C4    C     C_R   0.231187 0.788146 0.431964 0.556430
C5    C     C_R   0.211374 0.443192 0.431925 0.562198
C6    C     C_R   0.555988 0.767337 0.431472 0.560267
Cr1   Cr    Cr6+3 0.164410 0.584450 0.499910 1.070938
Cr2   Cr    Cr6+3 0.415550 0.579960 0.499910 1.071476
Cr3   Cr    Cr6+3 0.420040 0.835590 0.499910 1.072949
O13   O     O_3   0.333333 0.666667 0.499990 -0.294032
C7    C     C_3   0.561124 0.842690 0.738211 -0.215484
C8    C     C_3   0.125722 0.738216 0.737060 -0.217299
C9    C     C_3   0.293423 0.417205 0.735503 -0.215255
C10   C     C_3   0.767979 0.934226 0.722658 -0.214882
C11   C     C_3   0.056151 0.864611 0.711504 -0.212309
C12   C     C_3   0.133684 0.223416 0.721979 -0.214883
C13   C     C_3   0.788083 0.946762 0.778813 -0.216246
C14   C     C_3   0.038838 0.882988 0.766260 -0.219271
C15   C     C_3   0.126503 0.203021 0.778078 -0.216547
H1    H     H_    0.590245 0.934079 0.807064 0.118933
H2    H     H_    0.022837 0.692292 0.803553 0.118719
H3    H     H_    0.342278 0.365286 0.801946 0.116831
H4    H     H_    0.559949 0.916311 0.724040 0.114823
H5    H     H_    0.048865 0.664853 0.722800 0.115291
H6    H     H_    0.353372 0.395875 0.718939 0.115595
H7    H     H_    0.835840 0.927111 0.704424 0.111854
H8    H     H_    0.074312 0.939066 0.689896 0.113857
H9    H     H_    0.049759 0.171076 0.705426 0.112130
H10   H     H_    0.770927 0.009427 0.707887 0.116080
H11   H     H_    0.977979 0.793672 0.696762 0.115733
H12   H     H_    0.190593 0.198477 0.705090 0.113415
H13   H     H_    0.800314 0.027885 0.790983 0.113672
H14   H     H_    0.952353 0.820931 0.777719 0.109052
H15   H     H_    0.180024 0.168395 0.788077 0.108414
H16   H     H_    0.865989 0.946648 0.787421 0.101222
H17   H     H_    0.048671 0.966085 0.770743 0.101355
H18   H     H_    0.039174 0.140648 0.788326 0.103826
C16   C     C_1   0.736054 0.872508 0.902275 -0.011859
C17   C     C_1   0.099586 0.908673 0.893381 -0.019664
C18   C     C_1   0.138693 0.263969 0.902217 -0.015483
C19   C     C_3   0.653358 0.830656 0.711491 0.070101
C20   C     C_3   0.153620 0.841840 0.706193 0.069712
C21   C     C_3   0.176883 0.346949 0.711474 0.070628
C22   C     C_3   0.581520 0.854717 0.794342 -0.213950
C23   C     C_3   0.108216 0.756576 0.791674 -0.210840
C24   C     C_3   0.286064 0.396661 0.791632 -0.214634
C25   C     C_3   0.688137 0.851398 0.806800 0.070096
C26   C     C_3   0.124183 0.873132 0.799043 0.069968
C27   C     C_3   0.164452 0.312030 0.806735 0.070795
C28   C     C_3   0.672944 0.740014 0.788462 -0.212367
C29   C     C_3   0.243476 0.960127 0.781887 -0.212031
C30   C     C_3   0.088610 0.358100 0.791746 -0.212332
C31   C     C_3   0.652675 0.727885 0.732442 -0.213626
C32   C     C_3   0.260627 0.942042 0.727276 -0.213239
C33   C     C_3   0.095936 0.378663 0.735747 -0.213916
C34   C     C_1   0.709953 0.862664 0.859769 -0.071387
C35   C     C_1   0.109211 0.891499 0.850895 -0.074329
C36   C     C_1   0.154824 0.290098 0.859685 -0.072548
C37   C     C_1   0.630904 0.816633 0.658578 -0.071616
C38   C     C_1   0.172872 0.824191 0.654832 -0.071441
C39   C     C_1   0.184355 0.369277 0.658591 -0.072189
C40   C     C_1   0.602263 0.797874 0.616401 -0.007837
C41   C     C_1   0.196146 0.808492 0.614231 -0.010023
C42   C     C_1   0.193993 0.397706 0.616423 -0.008945
H19   H     H_    0.571090 0.651955 0.724828 0.111652
H20   H     H_    0.332296 0.928041 0.723806 0.111990
H21   H     H_    0.125143 0.467353 0.728723 0.110173
H22   H     H_    0.718682 0.717629 0.714253 0.114541
H23   H     H_    0.282139 0.017939 0.706047 0.116333
H24   H     H_    0.011334 0.329134 0.719434 0.116629
H25   H     H_    0.600978 0.670046 0.807635 0.117277
H26   H     H_    0.306458 0.954077 0.804547 0.121693
H27   H     H_    0.114302 0.436843 0.811524 0.117774
H28   H     H_    0.477660 0.769095 0.730752 0.106687
H29   H     H_    0.194668 0.720057 0.733969 0.106804
H30   H     H_    0.326540 0.506644 0.728458 0.107459
H31   H     H_    0.508199 0.786683 0.813684 0.115749
H32   H     H_    0.168654 0.747091 0.814682 0.120350
H33   H     H_    0.315273 0.476068 0.811418 0.114922
H34   H     H_    0.748387 0.735147 0.797136 0.111208
H35   H     H_    0.257568 0.044906 0.786892 0.107945
H36   H     H_    0.000489 0.298580 0.802215 0.116774
O14   O     O_R   0.176750 0.985260 0.074180 -0.455755
O15   O     O_R   0.014740 0.191490 0.074180 -0.514975
O16   O     O_R   0.808510 0.823250 0.074180 -0.497544
O17   O     O_R   0.146100 0.172630 0.068980 -0.476818
O18   O     O_R   0.827370 0.973470 0.068980 -0.457490
O19   O     O_R   0.026530 0.853900 0.068980 -0.412915
C43   C     C_R   0.108166 0.225007 0.087290 0.580776
C44   C     C_R   0.774258 0.882923 0.086871 0.578372
C45   C     C_R   0.085468 0.932990 0.096415 0.560318
Cr4   Cr    Cr6+3 0.155170 0.075460 0.019960 1.108123
Cr5   Cr    Cr6+3 0.924540 0.079710 0.019960 1.086858
Cr6   Cr    Cr6+3 0.920290 0.844830 0.019960 1.113849
C46   C     C_R   0.107858 0.220372 0.950746 0.556721
C47   C     C_R   0.779988 0.886621 0.950743 0.554207
C48   C     C_R   0.089711 0.932132 0.943634 0.551286
O20   O     O_3   0.000000 0.000000 0.020040 -0.313523
O21   O     O_R   0.148270 0.170520 0.969620 -0.513526
O22   O     O_R   0.829480 0.977750 0.969620 -0.489739
O23   O     O_R   0.022250 0.851730 0.969620 -0.470258
C49   C     C_R   0.650232 0.909118 0.363326 0.046487
C50   C     C_R   0.081927 0.733474 0.366800 0.050027
C51   C     C_R   0.274258 0.368093 0.362376 0.046646
C52   C     C_R   0.672296 0.923426 0.312236 -0.000823
C53   C     C_R   0.056215 0.754822 0.319543 -0.004077
C54   C     C_R   0.269802 0.354305 0.310860 -0.006303
C55   C     C_R   0.692895 0.940836 0.208487 0.008904
C56   C     C_R   0.023090 0.791218 0.220907 0.010375
C57   C     C_R   0.258142 0.330194 0.207390 0.002145
C58   C     C_R   0.716052 0.032896 0.237664 -0.095663
C59   C     C_R   0.949837 0.690598 0.244043 -0.104994
C60   C     C_R   0.354169 0.350529 0.232817 -0.135082
C61   C     C_R   0.705135 0.024202 0.288478 -0.114419
C62   C     C_R   0.964576 0.673557 0.292849 -0.125113
C63   C     C_R   0.358353 0.358413 0.283726 -0.149109
C64   C     C_R   0.698995 0.945527 0.156383 0.180384
C65   C     C_R   0.016094 0.805728 0.170294 0.202118
C66   C     C_R   0.246442 0.309497 0.156264 0.175017
H37   H     H_    0.747975 0.114116 0.222282 0.165782
H38   H     H_    0.881514 0.623277 0.224561 0.180222
H39   H     H_    0.426288 0.358115 0.214076 0.179037
H40   H     H_    0.724085 0.097880 0.308806 0.154635
H41   H     H_    0.905670 0.594185 0.308538 0.156274
H42   H     H_    0.432740 0.369140 0.301050 0.156248
C67   C     C_R   0.708092 0.861279 0.131845 -0.012880
C68   C     C_R   0.089197 0.909929 0.148652 -0.026999
C69   C     C_R   0.144912 0.284117 0.133957 -0.010457
C70   C     C_R   0.625013 0.724507 0.356939 -0.137523
C71   C     C_R   0.243898 0.920551 0.369375 -0.129128
C72   C     C_R   0.091839 0.353451 0.361186 -0.124010
C73   C     C_R   0.640075 0.735419 0.306772 0.008829
C74   C     C_R   0.217134 0.943173 0.323560 0.015764
C75   C     C_R   0.084809 0.336161 0.311140 0.014231
C76   C     C_R   0.660816 0.833813 0.283856 0.046317
C77   C     C_R   0.126273 0.858884 0.297531 0.047349
C78   C     C_R   0.175029 0.339799 0.285424 0.049026
C79   C     C_R   0.628379 0.646158 0.279060 -0.120150
C80   C     C_R   0.284909 0.046978 0.302020 -0.104299
C81   C     C_R   0.991274 0.322738 0.286139 -0.109787
C82   C     C_R   0.635357 0.653276 0.228409 -0.102585
C83   C     C_R   0.266364 0.065630 0.253899 -0.099781
C84   C     C_R   0.986761 0.313442 0.235588 -0.118417
C85   C     C_R   0.656610 0.750628 0.205060 0.010897
C86   C     C_R   0.179992 0.980996 0.226784 0.009344
C87   C     C_R   0.074574 0.314966 0.209699 0.003410
C88   C     C_R   0.670249 0.842040 0.232449 0.027415
C89   C     C_R   0.108373 0.877627 0.248640 0.032264
C90   C     C_R   0.169380 0.328048 0.234164 0.036093
C91   C     C_R   0.673548 0.760542 0.154979 -0.128526
C92   C     C_R   0.167041 0.997127 0.177605 -0.165077
C93   C     C_R   0.065301 0.297367 0.159850 -0.151089
C94   C     C_R   0.618382 0.805100 0.384738 -0.022887
C95   C     C_R   0.182050 0.814640 0.389920 -0.021036
C96   C     C_R   0.189444 0.379417 0.386209 -0.015118
H43   H     H_    0.669161 0.692330 0.134415 0.196667
H44   H     H_    0.220557 0.077039 0.161120 0.180897
H45   H     H_    0.989609 0.283293 0.142019 0.168376
H46   H     H_    0.626234 0.583377 0.207536 0.149150
H47   H     H_    0.322737 0.144488 0.237134 0.148137
H48   H     H_    0.913856 0.303561 0.216750 0.131777
H49   H     H_    0.612035 0.570133 0.296536 0.135443
H50   H     H_    0.354733 0.112482 0.321770 0.131467
H51   H     H_    0.922363 0.321181 0.305622 0.136020
H52   H     H_    0.606830 0.647005 0.373376 0.196343
H53   H     H_    0.317731 0.984334 0.387731 0.162239
H54   H     H_    0.024460 0.356509 0.379886 0.182013
O24   O     O_R   0.179100 0.982980 0.967000 -0.476573
O25   O     O_R   0.017020 0.196120 0.967000 -0.500212
O26   O     O_R   0.803880 0.820900 0.967000 -0.515683
N1    N     N_R   0.683331 0.024505 0.128297 0.083119
O27   O     O_R   0.656909 0.090863 0.149789 -0.324293
O28   O     O_R   0.664603 0.009871 0.081425 -0.300685
N2    N     N_R   0.944086 0.712116 0.140536 0.086103
O29   O     O_R   0.836716 0.670487 0.142141 -0.373013
O30   O     O_R   0.984715 0.659170 0.117385 -0.285343
N3    N     N_R   0.335605 0.315609 0.126821 0.069793
O31   O     O_R   0.382816 0.259105 0.138211 -0.354943
O32   O     O_R   0.363334 0.370870 0.085923 -0.310448
C97   C     C_2   0.656849 0.000017 0.393764 0.580089
O33   O     O_2   0.713833 0.029175 0.430828 -0.510171
O34   O     O_R   0.595820 0.050118 0.380697 -0.703494
H55   H     H_    0.606312 0.110034 0.404594 0.336400
C98   C     C_2   0.006094 0.626217 0.391001 0.588037
O35   O     O_2   0.994427 0.540427 0.373877 -0.541591
O36   O     O_R   0.949926 0.624306 0.433939 -0.680946
H56   H     H_    0.901567 0.546792 0.447372 0.334816
C99   C     C_2   0.363880 0.367994 0.391704 0.583607
O37   O     O_2   0.461993 0.435184 0.383443 -0.556659
O38   O     O_R   0.334635 0.293322 0.430476 -0.689359
H57   H     H_    0.402146 0.301740 0.448422 0.335299

loop_
_geom_bond_atom_site_label_1
_geom_bond_atom_site_label_2
_geom_bond_distance
_ccdc_geom_bond_type
C27   C36   1.469458 S    
C60   H39   1.079662 S    
C72   C75   1.381642 A    
O15   Cr5   2.057434 S    
O8    C6    1.290864 A    
C54   C78   1.413523 A    
C58   H37   1.077525 S    
O12   C6    1.298335 A    
O1    C2    1.298795 A    
C15   C27   1.552627 S    
C14   H14   1.112216 S    
C93   H45   1.085481 S    
C71   C74   1.389415 A    
C56   C65   1.407820 A    
Cr5   O20   1.884335 S    
C76   C88   1.407846 A    
O6    C3    1.314651 A    
C85   C88   1.411206 A    
C11   C20   1.549406 S    
C7    C22   1.552305 S    
O5    Cr2   1.940586 S    
C71   H53   1.084614 S    
O17   C43   1.207898 A    
C8    H5    1.113106 S    
C57   C90   1.418493 A    
C59   H38   1.081387 S    
C46   O25   1.211283 A    
C26   C29   1.549459 S    
C70   H52   1.082729 S    
C14   H17   1.110513 S    
O3    C1    1.297726 A    
O4    C1    1.305126 A    
C77   C89   1.408469 A    
C51   C99   1.485938 S    
C12   H9    1.113203 S    
O7    C5    1.288550 A    
C8    C20   1.552014 S    
C2    C42   1.429830 S    
C44   C67   1.466798 S    
C80   C83   1.390721 A    
C3    C40   1.430644 S    
N3    O32   1.301208 A    
C22   C25   1.547256 S    
Cr6   O26   2.072219 S    
C56   C59   1.403373 A    
C73   C79   1.399541 A    
C66   C69   1.410418 A    
C87   C90   1.407779 A    
C9    H6    1.113012 S    
O4    Cr1   1.954048 S    
C12   C21   1.547860 S    
C64   C67   1.418235 A    
O9    C4    1.287738 A    
C18   C46   1.429870 S    
C4    C95   1.480537 S    
C8    C23   1.550626 S    
C79   C82   1.385419 A    
C14   C26   1.552058 S    
C60   C63   1.392474 A    
C51   C96   1.422101 A    
O36   H56   1.013822 S    
C72   H54   1.084694 S    
C19   C31   1.549881 S    
C24   H33   1.113069 S    
C86   C92   1.389552 A    
O16   C44   1.205017 A    
C55   C58   1.408223 A    
C48   O23   1.256833 A    
C54   C63   1.409742 A    
C84   H48   1.083769 S    
C24   C27   1.548213 S    
O34   H55   1.013789 S    
C64   N1    1.455506 S    
C29   C32   1.548450 S    
C85   C91   1.380884 A    
C17   C48   1.431475 S    
C31   H22   1.113326 S    
O15   C43   1.192174 A    
C11   C14   1.553750 S    
C16   C47   1.430499 S    
O11   C5    1.282124 A    
C15   H18   1.112631 S    
C73   C76   1.408071 A    
C32   H20   1.113580 S    
C65   C68   1.418228 A    
C6    C94   1.478265 S    
O14   C45   1.251676 A    
C7    C19   1.554462 S    
C66   N3    1.439791 S    
O18   Cr5   1.945795 S    
O8    Cr2   2.053721 S    
O1    Cr1   2.074678 S    
C31   H19   1.113551 S    
C23   H32   1.113189 S    
O10   Cr1   1.956789 S    
Cr6   O23   1.936072 S    
O2    Cr2   2.062306 S    
C55   C64   1.423630 A    
C30   C33   1.549206 S    
O11   Cr2   1.943398 S    
Cr1   O13   2.024529 S    
C33   H21   1.113592 S    
C62   H41   1.080961 S    
C83   C86   1.399042 A    
C98   O36   1.397531 S    
O38   H57   1.013836 S    
C70   C73   1.380933 A    
C11   H8    1.113105 S    
C99   O37   1.222079 D    
C23   C26   1.548985 S    
C1    C41   1.430084 S    
O6    Cr3   1.954119 S    
O9    Cr3   2.071230 S    
C7    H28   1.113495 S    
C9    H30   1.113513 S    
C47   O22   1.217450 A    
C81   H51   1.084190 S    
C28   H34   1.112722 S    
C28   H25   1.113310 S    
C50   C95   1.424624 A    
C49   C97   1.484480 S    
C97   O34   1.398429 S    
C27   C30   1.549153 S    
C63   H42   1.078765 S    
N1    O27   1.300190 A    
C45   C68   1.469815 S    
C25   C34   1.470037 S    
C71   C95   1.402463 A    
C75   C78   1.412794 A    
C81   C84   1.383982 A    
O7    Cr1   2.068644 S    
C50   C53   1.413280 A    
C82   H46   1.084122 S    
C83   H47   1.080606 S    
C67   C91   1.393876 A    
C82   C85   1.398531 A    
C72   C96   1.395928 A    
C37   C40   1.203907 T    
C74   C80   1.400959 A    
C33   H24   1.113214 S    
C59   C62   1.388506 A    
C75   C81   1.397881 A    
O16   Cr6   2.048882 S    
C22   H31   1.113061 S    
C79   H49   1.083864 S    
Cr5   O22   1.941726 S    
C13   H16   1.111106 S    
C61   H40   1.081280 S    
C86   C89   1.409011 A    
C7    H4    1.113119 S    
C12   C15   1.551586 S    
C13   H13   1.113134 S    
C5    C96   1.473587 S    
C39   C42   1.203446 T    
C91   H43   1.083704 S    
O3    Cr3   2.062241 S    
C78   C90   1.405941 A    
C53   C62   1.408977 A    
N2    O30   1.300887 A    
C19   C37   1.470354 S    
C10   C19   1.548308 S    
C30   H27   1.113201 S    
C74   C77   1.409967 A    
O14   Cr4   2.070694 S    
C49   C94   1.420262 A    
Cr6   O20   1.877308 S    
C43   C69   1.463478 S    
C25   C28   1.550304 S    
H2    C23   1.113067 S    
C56   C89   1.412239 A    
C28   C31   1.549137 S    
C46   O21   1.215460 A    
C55   C88   1.418367 A    
C10   H7    1.113283 S    
C9    C21   1.553810 S    
Cr2   O13   2.051304 S    
C98   O35   1.222945 D    
C58   C61   1.393053 A    
O5    C2    1.303606 A    
C21   C33   1.550952 S    
C65   N2    1.433791 S    
C48   O24   1.251613 A    
C20   C32   1.550273 S    
C87   C93   1.376834 A    
O19   Cr6   1.954400 S    
C69   C93   1.400292 A    
C50   C98   1.483985 S    
C29   H35   1.112361 S    
C12   H12   1.113067 S    
C70   C94   1.402065 A    
C51   C54   1.415851 A    
C47   O26   1.214759 A    
C29   H26   1.113282 S    
C52   C76   1.414549 A    
C97   O33   1.222908 D    
C57   C60   1.403235 A    
C68   C92   1.397412 A    
C30   H36   1.113368 S    
C32   H23   1.113293 S    
Cr4   O20   1.859693 S    
C11   H11   1.112918 S    
C38   C41   1.203383 T    
C57   C66   1.417532 A    
Cr4   O24   2.076010 S    
C26   C35   1.470079 S    
O17   Cr4   1.957149 S    
C53   C77   1.413696 A    
O19   C45   1.242160 A    
N3    O31   1.300635 A    
C92   H44   1.080190 S    
C8    H29   1.113528 S    
C49   C52   1.418652 A    
C18   C36   1.203394 T    
Cr4   O21   1.955092 S    
C21   C39   1.469572 S    
C80   H50   1.084018 S    
O12   Cr3   1.941338 S    
O18   C44   1.202839 A    
C20   C38   1.469274 S    
C15   H15   1.112061 S    
C10   C13   1.552542 S    
C99   O38   1.397701 S    
C9    C24   1.552634 S    
O10   C4    1.282779 A    
H3    C24   1.112948 S    
C13   C25   1.553330 S    
C52   C61   1.406454 A    
N1    O28   1.301447 A    
C17   C35   1.204044 T    
Cr5   O25   2.067321 S    
N2    O29   1.298838 A    
Cr3   O13   2.043701 S    
O2    C3    1.308132 A    
C16   C34   1.203765 T    
H1    C22   1.112939 S    
C10   H10   1.112865 S    
C84   C87   1.398631 A    
