data_mof_unit_63989.cif
_audit_creation_date              2012-12-10T20:49:55-0500
_audit_creation_method            fapswitch 2.2
_symmetry_space_group_name_H-M    P1
_symmetry_Int_Tables_number       1
_space_group_crystal_system       triclinic
_cell_length_a                    19.216384
_cell_length_b                    19.204316
_cell_length_c                    19.199934
_cell_angle_alpha                 94.488626
_cell_angle_beta                  90.350974
_cell_angle_gamma                 85.214217
_cell_volume                      7039.13610383

loop_
_atom_site_label
_atom_site_type_symbol
_atom_type_description
_atom_site_fract_x
_atom_site_fract_y
_atom_site_fract_z
_atom_type_partial_charge
C1    C     C_R   0.492362 0.492813 0.310697 0.508702
C2    C     C_R   0.122319 0.581218 0.506094 -0.094231
C3    C     C_R   0.512294 0.507130 0.765658 0.029024
C4    C     C_R   0.507494 0.506995 0.689259 0.506690
C5    C     C_R   0.462010 0.475927 0.802606 -0.153452
C6    C     C_R   0.467189 0.473681 0.874678 -0.093167
C7    C     C_R   0.523135 0.502629 0.911284 0.224419
C8    C     C_R   0.573756 0.532898 0.874267 -0.111526
C9    C     C_R   0.568134 0.535863 0.802011 -0.148125
C10   C     C_R   0.542038 0.465466 0.120270 -0.091787
C11   C     C_R   0.545467 0.463727 0.192733 -0.152239
C12   C     C_R   0.912871 0.478471 0.492662 0.224850
C13   C     C_R   0.480795 0.493824 0.088585 0.224036
C14   C     C_R   0.488276 0.490960 0.234288 0.030645
C15   C     C_R   0.427027 0.518094 0.202401 -0.144161
C16   C     C_R   0.492419 0.690003 0.507716 0.500102
C17   C     C_R   0.423170 0.518575 0.130040 -0.109660
C18   C     C_R   0.512681 0.233332 0.492330 0.030079
C19   C     C_R   0.461897 0.200586 0.527040 -0.152095
C20   C     C_R   0.467442 0.128164 0.529565 -0.093333
C21   C     C_R   0.524261 0.086964 0.497406 0.224294
C22   C     C_R   0.575446 0.119750 0.463705 -0.110960
C23   C     C_R   0.877428 0.426544 0.455752 -0.112612
C24   C     C_R   0.569440 0.192396 0.460429 -0.147893
C25   C     C_R   0.539531 0.877053 0.536722 -0.093423
C26   C     C_R   0.542779 0.804290 0.538271 -0.152095
C27   C     C_R   0.481255 0.913207 0.507001 0.224167
C28   C     C_R   0.507544 0.310107 0.492423 0.508147
C29   C     C_R   0.488449 0.766854 0.509417 0.027360
C30   C     C_R   0.430246 0.803360 0.480497 -0.155279
C31   C     C_R   0.426310 0.876001 0.480467 -0.112694
C32   C     C_R   0.310778 0.508434 0.508035 0.523001
C33   C     C_R   0.689326 0.491990 0.492312 0.508771
C34   C     C_R   0.804545 0.431268 0.454422 -0.148732
C35   C     C_R   0.766057 0.487705 0.491166 0.029143
C36   C     C_R   0.801510 0.539467 0.528774 -0.153211
C37   C     C_R   0.874121 0.535092 0.529586 -0.093180
C38   C     C_3   0.232771 0.674715 0.566260 0.007382
C39   C     C_3   0.282844 0.731943 0.562126 -0.248557
C40   C     C_3   0.289157 0.774192 0.632199 -0.487230
C41   C     C_R   0.127084 0.456371 0.519127 -0.110296
C42   C     C_R   0.199812 0.453024 0.519515 -0.203154
C43   C     C_R   0.087824 0.520627 0.511260 0.179133
C44   C     C_R   0.234323 0.513361 0.511504 0.036610
C45   C     C_R   0.195256 0.578232 0.506419 0.239039
H1    H     H_    0.229166 0.402988 0.524469 0.135184
H2    H     H_    0.582032 0.905016 0.559072 0.134787
H3    H     H_    0.619699 0.088790 0.439315 0.121597
H4    H     H_    0.101718 0.408897 0.524969 0.147445
H5    H     H_    0.609702 0.216579 0.434024 0.135301
H6    H     H_    0.387627 0.775828 0.457803 0.136465
H7    H     H_    0.427707 0.104530 0.557271 0.135468
H8    H     H_    0.380906 0.903382 0.458275 0.121928
H9    H     H_    0.417819 0.230963 0.552420 0.135591
H10   H     H_    0.906469 0.382478 0.427602 0.120284
H11   H     H_    0.778399 0.390362 0.425460 0.135666
H12   H     H_    0.586836 0.444412 0.089132 0.136449
H13   H     H_    0.899725 0.575627 0.559697 0.135247
H14   H     H_    0.092396 0.630924 0.500980 0.127201
H15   H     H_    0.773147 0.583424 0.557782 0.136034
H16   H     H_    0.593124 0.442360 0.216306 0.133756
H17   H     H_    0.253264 0.639019 0.606238 0.119550
H18   H     H_    0.180312 0.699310 0.582734 0.128459
H19   H     H_    0.335228 0.707186 0.546318 0.184436
H20   H     H_    0.264052 0.767858 0.522065 0.171842
H21   H     H_    0.237532 0.800369 0.648779 0.150319
H22   H     H_    0.326168 0.814945 0.627118 0.156486
H23   H     H_    0.617340 0.554774 0.901641 0.121643
H24   H     H_    0.309232 0.739450 0.672725 0.149921
H25   H     H_    0.607975 0.559586 0.774528 0.136629
H26   H     H_    0.381967 0.538720 0.233416 0.140731
H27   H     H_    0.427878 0.448637 0.901553 0.137032
H28   H     H_    0.375514 0.539530 0.106146 0.122907
H29   H     H_    0.418615 0.453071 0.775804 0.136843
H30   H     H_    0.588127 0.777296 0.560946 0.133846
N1    N     N_2   0.987028 0.471347 0.492637 -0.242862
N2    N     N_2   0.013824 0.527053 0.510118 -0.249794
N3    N     N_2   0.530609 0.500973 0.984721 -0.247047
N4    N     N_2   0.474301 0.496493 0.015347 -0.251095
N5    N     N_2   0.531787 0.012966 0.498962 -0.246457
N6    N     N_2   0.474972 0.986925 0.504666 -0.251988
O1    O     O_3   0.500000 0.500000 0.500000 -0.437137
O2    O     O_R   0.340900 0.545940 0.467290 -0.496333
O3    O     O_R   0.655960 0.450920 0.450930 -0.546366
O4    O     O_R   0.347180 0.467040 0.545670 -0.559015
O5    O     O_R   0.655970 0.536100 0.536110 -0.546757
O6    O     O_3   0.228360 0.638517 0.499664 -0.548395
O7    O     O_R   0.536480 0.656330 0.545680 -0.544272
O8    O     O_R   0.545300 0.340270 0.450920 -0.544931
O9    O     O_R   0.451550 0.536740 0.347440 -0.542487
O10   O     O_R   0.466670 0.466660 0.655960 -0.545685
O11   O     O_R   0.536460 0.451300 0.340640 -0.542927
O12   O     O_R   0.545320 0.545300 0.655970 -0.545579
O13   O     O_R   0.451560 0.656600 0.467300 -0.547008
O14   O     O_R   0.466660 0.346810 0.536100 -0.545789
Zn1   Zn    Zn3+2 0.558430 0.558420 0.558430 0.931234
Zn2   Zn    Zn3+2 0.437090 0.558800 0.446440 0.955656
Zn3   Zn    Zn3+2 0.446060 0.446060 0.558420 0.928152
Zn4   Zn    Zn3+2 0.558420 0.436720 0.436720 0.935333

loop_
_geom_bond_atom_site_label_1
_geom_bond_atom_site_label_2
_ccdc_geom_bond_type
C22   H3    S    
C30   H6    S    
O7    Zn1   S    
C34   H11   S    
C1    O9    A    
C39   H20   S    
C41   C42   A    
C35   C36   A    
C13   N4    S    
O14   Zn3   S    
C7    C8    A    
C6    H27   S    
C39   H19   S    
C12   C23   A    
O8    Zn4   S    
C28   O14   A    
C18   C24   A    
C36   C37   A    
C45   O6    S    
C18   C19   A    
C42   H1    S    
C5    C6    A    
C11   C14   A    
C12   C37   A    
C34   C35   A    
O1    Zn4   S    
C5    H29   S    
O4    Zn3   S    
C19   C20   A    
C8    C9    A    
C40   H22   S    
C28   O8    A    
C25   H2    S    
O9    Zn2   S    
C37   H13   S    
C4    O10   A    
C40   H21   S    
C21   C22   A    
C17   H28   S    
C41   C43   A    
C42   C44   A    
C41   H4    S    
C2    C45   A    
C24   H5    S    
O1    Zn1   S    
C40   H24   S    
O1    Zn3   S    
C27   C31   A    
C27   N6    S    
C10   H12   S    
C18   C28   S    
C9    H25   S    
C39   C40   S    
C2    H14   S    
O13   Zn2   S    
C36   H15   S    
C16   C29   S    
C31   H8    S    
C33   O5    A    
C11   H16   S    
C29   C30   A    
C3    C9    A    
C2    C43   A    
C23   C34   A    
C26   H30   S    
C32   C44   S    
N1    N2    D    
O5    Zn1   S    
C7    N3    S    
C19   H9    S    
C8    H23   S    
O12   Zn1   S    
C12   N1    S    
O1    Zn2   S    
C22   C24   A    
C25   C27   A    
C3    C4    S    
C44   C45   A    
C38   H18   S    
C15   C17   A    
C32   O2    A    
N3    N4    D    
O3    Zn4   S    
N5    N6    D    
C3    C5    A    
C10   C13   A    
C23   H10   S    
C6    C7    A    
C43   N2    S    
C15   H26   S    
C16   O13   A    
C13   C17   A    
C38   O6    S    
C25   C26   A    
C20   H7    S    
C30   C31   A    
C38   C39   S    
C32   O4    A    
C21   N5    S    
C33   C35   S    
O10   Zn3   S    
C33   O3    A    
C1    O11   A    
C10   C11   A    
C4    O12   A    
C20   C21   A    
C26   C29   A    
O2    Zn2   S    
C16   O7    A    
C14   C15   A    
C1    C14   S    
O11   Zn4   S    
C38   H17   S    
