data_mof_unit_46805.cif
_audit_creation_date              2012-12-10T19:25:49-0500
_audit_creation_method            fapswitch 2.2
_symmetry_space_group_name_H-M    P1
_symmetry_Int_Tables_number       1
_space_group_crystal_system       triclinic
_cell_length_a                    9.803684
_cell_length_b                    10.545613
_cell_length_c                    16.523139
_cell_angle_alpha                 89.511768
_cell_angle_beta                  85.087706
_cell_angle_gamma                 89.224157
_cell_volume                      1701.78186565

loop_
_atom_site_label
_atom_site_type_symbol
_atom_type_description
_atom_site_fract_x
_atom_site_fract_y
_atom_site_fract_z
_atom_type_partial_charge
C1    C     C_R   0.499097 0.742232 0.498906 0.865273
C2    C     C_R   0.500896 0.257745 0.501111 0.911455
C3    C     C_3   0.378857 0.965011 0.480861 0.282013
C4    C     C_3   0.621103 0.034884 0.519210 0.300532
C5    C     C_3   0.477230 0.045956 0.425447 -0.209836
C6    C     C_3   0.522737 0.953926 0.574631 -0.217810
C7    C     C_3   0.502852 0.122846 0.501226 -0.083586
C8    C     C_3   0.497112 0.877068 0.498838 -0.078495
C9    C     C_3   0.401709 0.043271 0.556208 -0.241406
C10   C     C_3   0.598254 0.956630 0.443866 -0.239945
C11   C     C_3   0.946279 0.610267 0.520712 -0.156137
C12   C     C_3   0.053566 0.389594 0.479423 -0.134406
C13   C     C_3   0.052201 0.581297 0.450228 0.311233
C14   C     C_3   0.947291 0.418459 0.549846 0.308666
C15   C     C_3   0.038158 0.526927 0.571728 -0.149161
C16   C     C_3   0.961678 0.472723 0.428466 -0.144454
C17   C     C_R   0.480826 0.504255 0.653367 0.913420
C18   C     C_R   0.519495 0.503433 0.346635 0.915102
C19   C     C_R   0.469131 0.543085 0.737858 -0.111299
C20   C     C_R   0.533402 0.539446 0.261444 -0.114255
C21   C     C_R   0.556347 0.638961 0.759913 -0.274601
C22   C     C_R   0.456679 0.644254 0.237623 -0.270551
C23   C     C_R   0.544394 0.685880 0.838241 -0.147148
C24   C     C_R   0.473078 0.688964 0.158423 -0.137493
C25   C     C_R   0.445320 0.636935 0.895574 0.123381
C26   C     C_R   0.566994 0.629337 0.102141 0.119584
C27   C     C_R   0.354453 0.544765 0.873207 -0.192648
C28   C     C_R   0.649450 0.528997 0.126604 -0.192719
C29   C     C_R   0.366478 0.496664 0.794603 0.372333
C30   C     C_R   0.633029 0.483337 0.206198 0.367206
C31   C     C_2   0.448292 0.665881 0.981522 -0.200105
C32   C     C_2   0.567335 0.658198 0.015640 -0.199558
H1    H     H_    0.633325 0.678506 0.716190 0.164301
H2    H     H_    0.386221 0.693658 0.280781 0.163990
H3    H     H_    0.896301 0.701607 0.538593 0.139449
H4    H     H_    0.103375 0.298128 0.461645 0.142679
H5    H     H_    0.074587 0.548071 0.631900 0.165907
H6    H     H_    0.925260 0.451449 0.368329 0.186656
H7    H     H_    0.662699 0.643923 0.977949 0.159755
H8    H     H_    0.351878 0.663630 0.019270 0.158795
H9    H     H_    0.279352 0.505214 0.918060 0.170003
H10   H     H_    0.721760 0.482370 0.082900 0.170354
H11   H     H_    0.410843 0.768452 0.140661 0.152411
H12   H     H_    0.614469 0.757981 0.854698 0.151006
H13   H     H_    0.458117 0.086929 0.365278 0.162653
H14   H     H_    0.541818 0.912791 0.634772 0.146955
H15   H     H_    0.320791 0.081760 0.600799 0.171735
H16   H     H_    0.679169 0.918139 0.399277 0.158895
N1    N     N_3   0.136700 0.499970 0.500060 -0.109278
N2    N     N_3   0.863300 0.500030 0.499940 -0.109911
O1    O     O_R   0.383390 0.686040 0.500000 -0.625210
O2    O     O_R   0.616610 0.313960 0.500000 -0.611339
O3    O     O_R   0.616650 0.686050 0.499970 -0.625444
O4    O     O_R   0.383350 0.313950 0.500030 -0.613534
O5    O     O_R   0.369590 0.500020 0.615820 -0.574041
O6    O     O_R   0.630410 0.499980 0.384180 -0.576771
O7    O     O_R   0.602840 0.500020 0.615790 -0.644203
O8    O     O_R   0.397160 0.499980 0.384210 -0.637436
Zn1   Zn    Zn3+2 0.344250 0.499990 0.500020 0.959767
Zn2   Zn    Zn3+2 0.655750 0.500010 0.499980 0.956583
Cl1   Cl    Cl    0.733826 0.352742 0.233435 -0.655568
Cl2   Cl    Cl    0.259199 0.372100 0.771493 -0.676428
N3    N     N_2   0.246290 0.923711 0.459913 -0.279133
H17   H     H_    0.199419 0.863237 0.502711 0.252407
C33   C     C_3   0.156196 0.025429 0.437905 -0.796013
H18   H     H_    0.060468 0.985861 0.418193 0.251379
H19   H     H_    0.205021 0.082317 0.386781 0.251900
H20   H     H_    0.130112 0.087147 0.491110 0.226490
N4    N     N_2   0.753647 0.076339 0.540071 -0.273915
H21   H     H_    0.800764 0.136068 0.496907 0.258181
C34   C     C_3   0.843452 0.974942 0.562912 -0.811673
H22   H     H_    0.939305 0.014784 0.582282 0.249062
H23   H     H_    0.869436 0.912274 0.510211 0.228207
H24   H     H_    0.794446 0.919053 0.614460 0.245127
N5    N     N_2   0.114186 0.672104 0.392908 -0.291431
H25   H     H_    0.192888 0.632523 0.356133 0.248978
C35   C     C_3   0.018436 0.741051 0.346604 -0.810168
H26   H     H_    0.073758 0.814921 0.309005 0.255881
H27   H     H_    0.938032 0.788064 0.387712 0.239686
H28   H     H_    0.969475 0.675745 0.305654 0.247950
N6    N     N_2   0.883709 0.325897 0.605553 -0.304171
H29   H     H_    0.798852 0.360746 0.639509 0.261525
C36   C     C_3   0.976534 0.259651 0.655008 -0.746999
H30   H     H_    0.921616 0.181646 0.688855 0.252656
H31   H     H_    0.014315 0.325749 0.699613 0.284444
H32   H     H_    0.064452 0.218481 0.616669 0.242314

loop_
_geom_bond_atom_site_label_1
_geom_bond_atom_site_label_2
_ccdc_geom_bond_type
C25   C31   S    
N3    C33   S    
C26   C32   S    
O5    Zn1   S    
C27   C29   A    
C1    C8    S    
C2    C7    S    
C6    C9    S    
N6    H29   S    
C20   C30   A    
C35   H26   S    
C36   H30   S    
C19   C21   A    
C24   C26   A    
C21   H1    S    
C31   H8    S    
C32   H7    S    
C28   H10   S    
N4    C34   S    
C1    O3    A    
C15   H5    S    
O2    Zn2   S    
C11   C15   S    
C18   O8    A    
C13   N5    S    
C33   H19   S    
C12   H4    S    
C17   O5    A    
C18   O6    A    
C23   C25   A    
C4    C7    S    
C4    N4    S    
N6    C36   S    
O3    Zn2   S    
C12   N1    S    
O4    Zn1   S    
C35   H27   S    
C22   H2    S    
C12   C16   S    
C4    C6    S    
C3    C8    S    
C2    O4    A    
C5    C7    S    
O7    Zn2   S    
C6    C8    S    
O8    Zn1   S    
C5    H13   S    
C23   H12   S    
O6    Zn2   S    
N5    H25   S    
C3    C9    S    
N5    C35   S    
C27   H9    S    
C31   C32   D    
C33   H20   S    
C1    O1    A    
C2    O2    A    
C13   N1    S    
C36   H31   S    
C20   C22   A    
C9    H15   S    
C21   C23   A    
C10   H16   S    
C22   C24   A    
C30   Cl1   S    
O1    Zn1   S    
C4    C10   S    
C19   C29   A    
C34   H23   S    
C35   H28   S    
C7    C9    S    
C29   Cl2   S    
C6    H14   S    
C16   N2    S    
C3    C5    S    
C34   H24   S    
C3    N3    S    
C25   C27   A    
C26   C28   A    
N1    Zn1   S    
N2    Zn2   S    
C11   H3    S    
C12   C14   S    
C34   H22   S    
C11   N2    S    
C11   C13   S    
C14   N2    S    
C28   C30   A    
C17   C19   S    
C18   C20   S    
C15   N1    S    
N4    H21   S    
N3    H17   S    
C5    C10   S    
C36   H32   S    
C8    C10   S    
C33   H18   S    
C13   C16   S    
C17   O7    A    
C24   H11   S    
C14   C15   S    
C14   N6    S    
C16   H6    S    
