data_mof_unit_26382.cif
_audit_creation_date              2012-12-10T17:43:20-0500
_audit_creation_method            fapswitch 2.2
_symmetry_space_group_name_H-M    P1
_symmetry_Int_Tables_number       1
_space_group_crystal_system       triclinic
_cell_length_a                    15.035205
_cell_length_b                    13.873483
_cell_length_c                    10.624318
_cell_angle_alpha                 89.933941
_cell_angle_beta                  87.516581
_cell_angle_gamma                 89.783034
_cell_volume                      2214.0351689

loop_
_atom_site_label
_atom_site_type_symbol
_atom_type_description
_atom_site_fract_x
_atom_site_fract_y
_atom_site_fract_z
_atom_type_partial_charge
C1    C     C_R   0.329229 0.500227 0.497462 0.850108
C2    C     C_R   0.670780 0.499755 0.502508 0.850193
C3    C     C_R   0.953102 0.499547 0.501013 0.004790
C4    C     C_R   0.046956 0.499775 0.498242 0.004224
C5    C     C_R   0.907541 0.555148 0.412218 0.054842
C6    C     C_R   0.092520 0.444138 0.586990 0.046051
C7    C     C_R   0.951628 0.389437 0.679952 -0.141705
C8    C     C_R   0.048452 0.609586 0.319006 -0.142649
C9    C     C_R   0.044186 0.389130 0.677744 0.267604
C10   C     C_R   0.955905 0.609773 0.321083 0.265743
C11   C     C_R   0.451575 0.794115 0.591347 0.524660
C12   C     C_R   0.562390 0.205417 0.427743 0.531525
C13   C     C_R   0.548235 0.793897 0.408437 0.527943
C14   C     C_R   0.437648 0.205907 0.572500 0.526739
C15   C     C_R   0.554185 0.896614 0.411043 -0.108990
C16   C     C_R   0.441578 0.103409 0.583070 -0.103780
C17   C     C_R   0.445566 0.896883 0.588805 -0.110430
C18   C     C_R   0.558228 0.103043 0.416996 -0.108543
C19   C     C_R   0.499890 0.948348 0.499972 -0.086620
C20   C     C_R   0.499899 0.051483 0.500026 -0.087854
C21   C     C_R   0.612189 0.949191 0.326605 0.269205
C22   C     C_R   0.388270 0.051547 0.673598 0.271296
C23   C     C_R   0.387421 0.949754 0.673122 0.272904
C24   C     C_R   0.611295 0.050967 0.326175 0.272569
C25   C     C_R   0.499884 0.500158 0.259582 0.865032
C26   C     C_R   0.500072 0.499843 0.740419 0.861065
C27   C     C_3   0.487695 0.591140 0.041410 -0.125602
C28   C     C_3   0.512195 0.408853 0.958587 -0.170127
C29   C     C_3   0.566453 0.556411 0.953727 -0.190299
C30   C     C_3   0.433444 0.443582 0.046278 -0.217219
C31   C     C_3   0.422278 0.533576 0.963051 0.316123
C32   C     C_3   0.577615 0.466411 0.036945 0.304530
C33   C     C_3   0.500203 0.499325 0.877222 -0.122640
C34   C     C_3   0.499696 0.500670 0.122779 -0.126937
C35   C     C_R   0.814717 0.554438 0.416362 -0.196167
C36   C     C_R   0.185330 0.445180 0.583170 -0.172746
C37   C     C_R   0.767187 0.499132 0.505545 -0.111307
C38   C     C_R   0.232845 0.500718 0.494238 -0.122769
C39   C     C_R   0.811215 0.444090 0.595135 0.240913
C40   C     C_R   0.188837 0.555538 0.404428 0.225560
C41   C     C_R   0.904926 0.443883 0.592772 0.014616
C42   C     C_R   0.095136 0.555467 0.406516 0.017372
Cu1   Cu    Cu3+1 0.500000 0.597420 0.500000 1.012719
Cu2   Cu    Cu3+1 0.500000 0.402580 0.500000 1.011534
H1    H     H_    0.477019 0.665578 0.077394 0.229117
H2    H     H_    0.522841 0.334414 0.922583 0.211627
H3    H     H_    0.621193 0.601844 0.913209 0.203538
H4    H     H_    0.378701 0.398152 0.086793 0.204837
H5    H     H_    0.778003 0.595634 0.349175 0.196857
H6    H     H_    0.222045 0.404111 0.650474 0.214406
H7    H     H_    0.917148 0.346016 0.750890 0.230182
H8    H     H_    0.082939 0.652796 0.247849 0.230977
N1    N     N_R   0.500000 0.743810 0.500000 -0.279871
N2    N     N_R   0.500000 0.256190 0.500000 -0.284775
O1    O     O_R   0.370260 0.582280 0.500030 -0.579230
O2    O     O_R   0.629740 0.417720 0.499970 -0.529151
O3    O     O_R   0.629740 0.582280 0.499970 -0.622051
O4    O     O_R   0.370260 0.417720 0.500030 -0.568088
O5    O     O_R   0.499980 0.582260 0.316850 -0.549217
O6    O     O_R   0.500020 0.417740 0.683150 -0.606916
O7    O     O_R   0.500020 0.582260 0.683150 -0.553432
O8    O     O_R   0.499980 0.417740 0.316850 -0.611493
Br1   Br    Br    0.309173 0.580441 0.906682 -0.375350
Br2   Br    Br    0.690658 0.419387 0.093331 -0.383042
Br3   Br    Br    0.742262 0.374690 0.724030 -0.415669
Br4   Br    Br    0.257825 0.625041 0.275671 -0.427878
Br5   Br    Br    0.100215 0.311577 0.802295 -0.330773
Br6   Br    Br    0.899986 0.686370 0.195514 -0.344089
O9    O     O_3   0.413565 0.745552 0.692012 -0.645479
H9    H     H_    0.376876 0.694085 0.657807 0.376714
O10   O     O_3   0.634831 0.251984 0.374136 -0.637030
H10   H     H_    0.612757 0.308741 0.329768 0.378282
O11   O     O_3   0.585796 0.745323 0.307254 -0.668138
H11   H     H_    0.622464 0.693180 0.340726 0.360244
O12   O     O_3   0.365468 0.253206 0.626525 -0.664230
H12   H     H_    0.387904 0.308625 0.672876 0.361512
Br7   Br    Br    0.702216 0.886635 0.217874 -0.274333
Br8   Br    Br    0.324194 0.116177 0.812391 -0.294053
Br9   Br    Br    0.297325 0.887626 0.781700 -0.252463
Br10  Br    Br    0.674643 0.115423 0.186837 -0.265019

loop_
_geom_bond_atom_site_label_1
_geom_bond_atom_site_label_2
_ccdc_geom_bond_type
C27   C29   S    
O11   H11   S    
C19   C20   A    
Cu1   Cu2   S    
C6    C9    A    
C2    O3    A    
C39   C41   A    
C15   C19   A    
C28   H2    S    
C17   C23   A    
C29   H3    S    
C18   C24   A    
C30   H4    S    
C35   C37   A    
C26   O7    A    
C8    C42   A    
C29   C32   S    
C30   C31   S    
C29   C33   S    
C24   Br10  S    
C11   C17   A    
Cu2   O4    S    
C35   H5    S    
C31   C33   S    
C8    H8    S    
C11   N1    A    
Cu1   O5    S    
C25   C34   S    
C27   H1    S    
C40   C42   A    
C40   Br4   S    
C39   Br3   S    
Cu1   N1    S    
C13   N1    A    
C27   C34   S    
C30   C34   S    
C27   C31   S    
C31   Br1   S    
C28   C32   S    
C22   Br8   S    
C4    C6    A    
Cu2   O8    S    
C32   C34   S    
O12   H12   S    
C9    Br5   S    
Cu2   O2    S    
C26   C33   S    
C15   C21   A    
C16   C20   A    
C32   Br2   S    
C1    C38   S    
Cu1   O1    S    
C14   N2    A    
C12   O10   S    
C13   O11   S    
C28   C33   S    
C13   C15   A    
C14   C16   A    
C21   Br7   S    
C3    C4    A    
C36   H6    S    
Cu1   O7    S    
C7    C9    A    
C3    C41   A    
C16   C22   A    
C3    C5    A    
C11   O9    S    
C10   Br6   S    
C14   O12   S    
C36   C38   A    
C1    O1    A    
C7    H7    S    
C5    C10   A    
C37   C39   A    
C2    O2    A    
C1    O4    A    
C38   C40   A    
C2    C37   S    
C4    C42   A    
Cu2   O6    S    
C5    C35   A    
C28   C30   S    
C17   C19   A    
C6    C36   A    
C18   C20   A    
C25   O8    A    
C7    C41   A    
O9    H9    S    
Cu1   O3    S    
Cu2   N2    S    
O10   H10   S    
C8    C10   A    
C21   C24   A    
C12   C18   A    
C22   C23   A    
C25   O5    A    
C23   Br9   S    
C26   O6    A    
C12   N2    A    
