data_mof_unit_19534.cif
_audit_creation_date              2012-12-10T20:41:45-0500
_audit_creation_method            fapswitch 2.2
_symmetry_space_group_name_H-M    P1
_symmetry_Int_Tables_number       1
_space_group_crystal_system       triclinic
_cell_length_a                    15.00433
_cell_length_b                    15.12235
_cell_length_c                    9.866552
_cell_angle_alpha                 89.825666
_cell_angle_beta                  90.211534
_cell_angle_gamma                 90.170226
_cell_volume                      2238.69242254

loop_
_atom_site_label
_atom_site_type_symbol
_atom_type_description
_atom_site_fract_x
_atom_site_fract_y
_atom_site_fract_z
_atom_type_partial_charge
C1    C     C_R   0.381709 0.878613 0.500042 0.904981
C2    C     C_R   0.383415 0.123244 0.499628 0.891489
C3    C     C_R   0.881707 0.378614 0.500042 0.904977
C4    C     C_R   0.883408 0.623236 0.499629 0.891503
C5    C     C_3   0.225397 0.150124 0.702634 -0.484827
C6    C     C_3   0.185449 0.885790 0.615189 -0.502719
C7    C     C_3   0.725249 0.649997 0.702427 -0.484857
C8    C     C_3   0.685426 0.385806 0.615112 -0.502723
C9    C     C_R   0.422524 0.012595 0.070815 0.210947
C10   C     C_R   0.922517 0.512556 0.070815 0.210962
C11   C     C_R   0.577440 0.995853 0.072436 -0.118286
C12   C     C_R   0.077443 0.495892 0.072436 -0.118307
C13   C     C_R   0.577455 0.996006 0.928442 -0.144837
C14   C     C_R   0.077458 0.496046 0.928442 -0.144829
C15   C     C_R   0.422499 0.012490 0.928305 0.221653
C16   C     C_R   0.922493 0.512451 0.928305 0.221637
C17   C     C_3   0.341530 0.955197 0.923067 -0.519587
C18   C     C_3   0.841553 0.455115 0.923067 -0.519529
C19   C     C_3   0.341449 0.955645 0.076833 -0.505217
C20   C     C_3   0.841472 0.455564 0.076833 -0.505212
C21   C     C_R   0.620332 0.119212 0.500119 0.885193
C22   C     C_R   0.621284 0.881434 0.500480 0.886650
C23   C     C_R   0.120331 0.619213 0.500119 0.885197
C24   C     C_R   0.121285 0.381433 0.500479 0.886660
C25   C     C_R   0.278209 0.213566 0.618301 0.050580
C26   C     C_R   0.251046 0.812731 0.594333 0.040715
C27   C     C_R   0.778124 0.713483 0.618262 0.050591
C28   C     C_R   0.751029 0.312746 0.594307 0.040705
C29   C     C_R   0.327437 0.198978 0.501216 -0.132168
C30   C     C_R   0.320640 0.807669 0.502134 -0.119068
C31   C     C_R   0.827410 0.698953 0.501218 -0.132141
C32   C     C_R   0.820636 0.307672 0.502134 -0.119064
C33   C     C_R   0.323237 0.260516 0.392628 0.170346
C34   C     C_R   0.333015 0.731231 0.422362 0.168388
C35   C     C_R   0.823260 0.760537 0.392688 0.170342
C36   C     C_R   0.833024 0.231223 0.422392 0.168401
C37   C     C_R   0.755647 0.823447 0.394861 -0.222627
C38   C     C_R   0.765720 0.167654 0.422443 -0.218005
C39   C     C_R   0.255618 0.323420 0.394802 -0.222638
C40   C     C_R   0.265710 0.667663 0.422414 -0.218005
C41   C     C_R   0.695921 0.824780 0.503519 -0.183833
C42   C     C_R   0.690329 0.180758 0.502559 -0.171838
C43   C     C_R   0.195931 0.324790 0.503510 -0.183849
C44   C     C_R   0.190330 0.680757 0.502558 -0.171848
C45   C     C_R   0.713181 0.776090 0.619981 0.136244
C46   C     C_R   0.686385 0.249174 0.595152 0.140865
C47   C     C_R   0.213252 0.276158 0.620008 0.136227
C48   C     C_R   0.186400 0.749160 0.595176 0.140848
C49   C     C_3   0.652068 0.719339 0.703273 -0.023330
C50   C     C_3   0.613340 0.314912 0.615432 -0.029638
C51   C     C_3   0.152193 0.219442 0.703450 -0.023338
C52   C     C_3   0.113361 0.814898 0.615505 -0.029651
H1    H     H_    0.283572 0.991187 0.120508 0.199844
H2    H     H_    0.354689 0.889545 0.121856 0.220174
H3    H     H_    0.783576 0.491075 0.120507 0.199849
H4    H     H_    0.854747 0.389470 0.121855 0.220169
H5    H     H_    0.747086 0.868256 0.309815 0.161796
H6    H     H_    0.770746 0.109568 0.358735 0.152647
H7    H     H_    0.247019 0.368191 0.309717 0.161835
H8    H     H_    0.270726 0.609586 0.358686 0.152658
H9    H     H_    0.590851 0.698761 0.647487 0.156763
H10   H     H_    0.566847 0.319260 0.527486 0.156232
H11   H     H_    0.090960 0.198801 0.647758 0.156768
H12   H     H_    0.066855 0.819262 0.527577 0.156224
H13   H     H_    0.257485 0.138464 0.802809 0.211567
H14   H     H_    0.195127 0.919357 0.714030 0.209447
H15   H     H_    0.757282 0.638251 0.802618 0.211547
H16   H     H_    0.695088 0.419390 0.713942 0.209449
H17   H     H_    0.206682 0.089220 0.646360 0.169885
H18   H     H_    0.181135 0.931179 0.526497 0.169668
H19   H     H_    0.706542 0.589142 0.646025 0.169874
H20   H     H_    0.681125 0.431178 0.526400 0.169656
H21   H     H_    0.639825 0.990597 0.127144 0.140129
H22   H     H_    0.139831 0.490666 0.127144 0.140123
H23   H     H_    0.639840 0.990792 0.874482 0.153930
H24   H     H_    0.139845 0.490862 0.874482 0.153933
H25   H     H_    0.283460 0.990259 0.878845 0.189848
H26   H     H_    0.354906 0.888883 0.879344 0.226058
H27   H     H_    0.783465 0.490146 0.878845 0.189835
H28   H     H_    0.854966 0.388807 0.879345 0.226048
N1    N     N_R   0.499140 0.000000 0.142800 -0.106803
N2    N     N_R   0.999140 0.500000 0.142800 -0.106806
N3    N     N_R   0.499160 0.000000 0.857150 -0.111263
N4    N     N_R   0.999160 0.500000 0.857150 -0.111267
O1    O     O_R   0.408400 0.908380 0.614690 -0.619748
O2    O     O_R   0.408400 0.091620 0.614690 -0.618175
O3    O     O_R   0.908400 0.408380 0.614690 -0.619759
O4    O     O_R   0.908400 0.591620 0.614690 -0.618175
O5    O     O_R   0.408370 0.908370 0.385350 -0.617186
O6    O     O_R   0.408370 0.091630 0.385350 -0.614019
O7    O     O_R   0.908370 0.408370 0.385350 -0.617192
O8    O     O_R   0.908370 0.591630 0.385350 -0.614021
O9    O     O_R   0.591610 0.091610 0.614650 -0.614677
O10   O     O_R   0.591610 0.908390 0.614650 -0.618560
O11   O     O_R   0.091610 0.591610 0.614650 -0.614686
O12   O     O_R   0.091610 0.408390 0.614650 -0.618512
O13   O     O_R   0.591590 0.091600 0.385310 -0.624448
O14   O     O_R   0.591590 0.908400 0.385310 -0.623899
O15   O     O_R   0.091590 0.591600 0.385310 -0.624445
O16   O     O_R   0.091590 0.408400 0.385310 -0.623904
Zn1   Zn    Zn3+2 0.500010 1.000000 0.653130 0.934826
Zn2   Zn    Zn3+2 0.000010 0.500000 0.653130 0.934827
Zn3   Zn    Zn3+2 0.499980 0.000000 0.346870 0.932361
Zn4   Zn    Zn3+2 0.999980 0.500000 0.346870 0.932361
C53   C     C_3   0.386127 0.259162 0.273652 -0.866639
H29   H     H_    0.456132 0.255618 0.310232 0.236609
H30   H     H_    0.371020 0.201823 0.207394 0.254305
H31   H     H_    0.379804 0.319950 0.210878 0.218731
C54   C     C_3   0.415315 0.716841 0.337988 -0.882144
H32   H     H_    0.475812 0.724430 0.402183 0.225821
H33   H     H_    0.416342 0.649469 0.293474 0.226691
H34   H     H_    0.417672 0.765157 0.253347 0.252935
C55   C     C_3   0.886205 0.759228 0.273778 -0.866653
H35   H     H_    0.956193 0.755671 0.310430 0.236572
H36   H     H_    0.871130 0.701913 0.207455 0.254317
H37   H     H_    0.879910 0.820040 0.211050 0.218744
C56   C     C_3   0.915338 0.216822 0.338053 -0.882169
H38   H     H_    0.975824 0.224414 0.402270 0.225822
H39   H     H_    0.916370 0.149446 0.293553 0.226700
H40   H     H_    0.917712 0.265131 0.253404 0.252928
C57   C     C_3   0.633590 0.757389 0.843991 -0.846805
H41   H     H_    0.605960 0.704715 0.910417 0.236720
H42   H     H_    0.695349 0.784156 0.891338 0.241004
H43   H     H_    0.583625 0.811054 0.836029 0.261146
C58   C     C_3   0.566203 0.303250 0.751587 -0.849733
H44   H     H_    0.523732 0.361747 0.771423 0.238668
H45   H     H_    0.522982 0.243554 0.748153 0.254568
H46   H     H_    0.614925 0.295816 0.836011 0.249664
C59   C     C_3   0.133763 0.257577 0.844129 -0.846750
H47   H     H_    0.106374 0.204890 0.910761 0.236720
H48   H     H_    0.195491 0.284584 0.891241 0.240989
H49   H     H_    0.083618 0.311078 0.836167 0.261093
C60   C     C_3   0.066244 0.803216 0.751672 -0.849628
H50   H     H_    0.023785 0.861723 0.771554 0.238651
H51   H     H_    0.023010 0.743526 0.748217 0.254564
H52   H     H_    0.114981 0.795755 0.836082 0.249644

loop_
_geom_bond_atom_site_label_1
_geom_bond_atom_site_label_2
_ccdc_geom_bond_type
C23   O15   A    
C22   O14   A    
O12   Zn2   S    
N4    Zn2   S    
C14   N4    A    
O7    Zn4   S    
C20   H4    S    
C51   C59   S    
C6    C26   S    
C11   N1    A    
C53   H30   S    
C28   C46   A    
C33   C39   A    
C6    H14   S    
C2    C29   S    
C34   C40   A    
C32   C36   A    
C35   C37   A    
C38   C42   A    
C48   C52   S    
C12   H22   S    
C24   O12   A    
C7    H19   S    
C22   C41   S    
O14   Zn3   S    
C29   C33   A    
C16   N4    A    
C7    C27   S    
C3    O7    A    
C42   C46   A    
C2    O6    A    
C17   H26   S    
C57   H43   S    
C5    H17   S    
C54   H33   S    
C38   H6    S    
C9    C19   S    
O16   Zn4   S    
C47   C51   S    
C13   H23   S    
O10   Zn1   S    
C10   C20   S    
C18   H27   S    
C60   H52   S    
C35   C55   S    
C25   C47   A    
O11   Zn2   S    
C26   C48   A    
C55   H37   S    
C27   C45   A    
O15   Zn4   S    
C49   C57   S    
O5    Zn3   S    
C25   C29   A    
C52   C60   S    
C22   O10   A    
C20   H3    S    
C15   C17   S    
C1    O1    A    
C53   H31   S    
C8    H20   S    
C49   H9    S    
C30   C34   A    
C27   C31   A    
C28   C32   A    
C51   H11   S    
C7    C49   S    
C5    H13   S    
C52   H12   S    
C54   H34   S    
O9    Zn1   S    
C39   C43   A    
C3    O3    A    
C10   N2    A    
C23   C44   S    
N2    Zn4   S    
C55   H36   S    
C14   H24   S    
C58   H46   S    
O3    Zn2   S    
C21   O13   A    
C45   C49   S    
C34   C54   S    
C39   H7    S    
C17   H25   S    
C12   N2    A    
C50   C58   S    
C36   C56   S    
C57   H41   S    
O13   Zn3   S    
C5    C25   S    
C19   H2    S    
C18   H28   S    
C12   C14   A    
C8    H16   S    
C11   H21   S    
C60   H50   S    
C50   H10   S    
C31   C35   A    
C56   H40   S    
C8    C50   S    
O1    Zn1   S    
C60   H51   S    
C55   H35   S    
N1    Zn3   S    
C6    H18   S    
C46   C50   S    
C1    O5    A    
N3    Zn1   S    
C24   O16   A    
O4    Zn2   S    
C26   C30   A    
C4    O4    A    
C53   H29   S    
C13   N3    A    
C33   C53   S    
C6    C52   S    
C59   H49   S    
C56   H39   S    
C59   H47   S    
C10   C16   A    
C56   H38   S    
C11   C13   A    
C19   H1    S    
C58   H44   S    
C21   O9    A    
C15   N3    A    
C36   C38   A    
C1    C30   S    
C17   C19   S    
C23   O11   A    
C2    O2    A    
C18   C20   S    
C37   C41   A    
C3    C32   S    
O6    Zn3   S    
C57   H42   S    
C4    C31   S    
O8    Zn4   S    
C7    H15   S    
C21   C42   S    
C40   C44   A    
C8    C28   S    
C16   C18   S    
C40   H8    S    
C58   H45   S    
C24   C43   S    
C41   C45   A    
C5    C51   S    
C59   H48   S    
C54   H32   S    
O2    Zn1   S    
C43   C47   A    
C37   H5    S    
C44   C48   A    
C9    C15   A    
C9    N1    A    
C4    O8    A    
