data_mof_unit_64025.cif
_audit_creation_date              2012-12-10T18:21:56-0500
_audit_creation_method            fapswitch 2.2
_symmetry_space_group_name_H-M    P1
_symmetry_Int_Tables_number       1
_space_group_crystal_system       triclinic
_cell_length_a                    18.585001
_cell_length_b                    18.514786
_cell_length_c                    18.661108
_cell_angle_alpha                 109.367604
_cell_angle_beta                  109.953707
_cell_angle_gamma                 109.309713
_cell_volume                      4929.62305619

loop_
_atom_site_label
_atom_site_type_symbol
_atom_type_description
_atom_site_fract_x
_atom_site_fract_y
_atom_site_fract_z
_atom_type_partial_charge
C1    C     C_R   0.622272 0.621683 0.501219 0.833373
C2    C     C_3   0.810343 0.808544 0.498061 0.189067
C3    C     C_3   0.720864 0.757108 0.410089 -0.383010
C4    C     C_R   0.378823 0.500198 0.378626 0.860025
C5    C     C_3   0.797710 0.853932 0.575112 -0.420100
C6    C     C_3   0.693693 0.412996 0.652436 -0.379261
C7    C     C_3   0.763589 0.413554 0.726365 -0.421892
C8    C     C_3   0.777378 0.579544 0.727954 -0.425382
C9    C     C_3   0.667177 0.503403 0.765294 -0.396027
C10   C     C_3   0.687656 0.497970 0.690147 0.190636
C11   C     C_3   0.810708 0.501649 0.813207 0.193553
C12   C     C_3   0.188710 0.416238 0.187573 -0.165579
C13   C     C_3   0.850633 0.580468 0.798998 -0.372412
C14   C     C_3   0.741907 0.508983 0.839754 -0.409847
C15   C     C_3   0.268328 0.217023 0.418597 -0.374951
C16   C     C_R   0.377221 0.378357 0.498293 0.827557
C17   C     C_3   0.196133 0.147201 0.419578 -0.419442
C18   C     C_3   0.351358 0.308795 0.584671 -0.420761
C19   C     C_3   0.234178 0.331564 0.493416 -0.398600
C20   C     C_3   0.309080 0.310098 0.498288 0.188133
C21   C     C_3   0.189681 0.191224 0.501708 0.184411
C22   C     C_3   0.281351 0.236988 0.585840 -0.377513
C23   C     C_3   0.214215 0.457815 0.285502 -0.153495
C24   C     C_3   0.164758 0.262571 0.497917 -0.399319
C25   C     C_R   0.000151 0.621712 0.121178 0.825166
C26   C     C_R   0.122691 0.499947 0.122321 0.867520
C27   C     C_R   0.995664 0.378572 0.874754 0.836599
C28   C     C_R   0.619289 0.497646 0.621499 0.831789
C29   C     C_R   0.879541 0.501849 0.881302 0.826261
C30   C     C_R   0.998398 0.876564 0.378984 0.830695
C31   C     C_R   0.878495 0.876395 0.497693 0.827684
C32   C     C_R   0.998905 0.120524 0.620978 0.854663
C33   C     C_R   0.121545 0.123255 0.501974 0.836530
C34   C     C_3   0.311557 0.500291 0.311013 0.028441
C35   C     C_3   0.903952 0.670918 0.160163 -0.404550
C36   C     C_3   0.902921 0.739886 0.232984 -0.397075
C37   C     C_3   0.038785 0.688033 0.275826 -0.414762
C38   C     C_3   0.056540 0.783790 0.206106 -0.373857
C39   C     C_3   0.000066 0.689972 0.189235 0.188469
C40   C     C_3   0.313359 0.584223 0.313118 -0.166789
C41   C     C_3   0.998750 0.808632 0.310870 0.186790
C42   C     C_3   0.039848 0.759419 0.348357 -0.380267
C43   C     C_3   0.054054 0.853569 0.276710 -0.419124
C44   C     C_3   0.053044 0.277901 0.850530 -0.444557
C45   C     C_3   0.768844 0.672661 0.514428 -0.407530
C46   C     C_3   0.054093 0.205282 0.781516 -0.391623
C47   C     C_3   0.896824 0.228299 0.735309 -0.135378
C48   C     C_3   0.035198 0.348090 0.755564 -0.137896
C49   C     C_3   0.993370 0.309315 0.804790 0.091785
C50   C     C_3   0.997838 0.188452 0.687912 0.148014
C51   C     C_3   0.900810 0.157885 0.666069 -0.433241
C52   C     C_3   0.214674 0.541704 0.286324 -0.153620
C53   C     C_3   0.036736 0.275210 0.686216 -0.451162
C54   C     C_3   0.190452 0.500163 0.189727 0.026122
C55   C     C_3   0.287909 0.542692 0.215334 -0.176599
C56   C     C_3   0.838982 0.741710 0.510685 -0.395211
C57   C     C_3   0.287222 0.458705 0.214287 -0.175650
C58   C     C_R   0.842084 0.186751 0.771049 0.180402
C59   C     C_R   0.858588 0.133040 0.805629 -0.146313
C60   C     C_R   0.807209 0.096583 0.837619 -0.156650
C61   C     C_R   0.738292 0.112462 0.835133 -0.125268
C62   C     C_R   0.720089 0.164250 0.799931 -0.140547
C63   C     C_R   0.771073 0.200642 0.767626 -0.118530
C64   C     C_R   0.996051 0.396825 0.717226 0.121228
C65   C     C_R   0.915856 0.351687 0.636534 -0.188164
C66   C     C_R   0.884810 0.398274 0.601340 -0.159162
C67   C     C_3   0.650514 0.685919 0.411538 -0.413968
C68   C     C_R   0.933056 0.490391 0.645562 -0.128970
C69   C     C_R   0.013050 0.536134 0.724618 -0.159461
C70   C     C_R   0.044671 0.489913 0.759889 -0.100331
C71   C     C_3   0.725632 0.784090 0.576201 -0.370812
C72   C     C_3   0.690455 0.689970 0.501288 0.184862
H1    H     H_    0.183147 0.575593 0.313703 0.117141
H2    H     H_    0.697574 0.803013 0.399950 0.181636
H3    H     H_    0.712136 0.409363 0.601008 0.182275
H4    H     H_    0.366079 0.652761 0.366146 0.129234
H5    H     H_    0.628457 0.353072 0.621185 0.155793
H6    H     H_    0.730802 0.357062 0.734556 0.165437
H7    H     H_    0.812287 0.404318 0.708381 0.177118
H8    H     H_    0.792305 0.577840 0.674646 0.150053
H9    H     H_    0.899256 0.576321 0.778424 0.192706
H10   H     H_    0.660733 0.562692 0.792893 0.181932
H11   H     H_    0.603277 0.444106 0.739066 0.148310
H12   H     H_    0.847944 0.708179 0.455356 0.147764
H13   H     H_    0.713073 0.454793 0.852462 0.179995
H14   H     H_    0.774340 0.572766 0.901576 0.146339
H15   H     H_    0.775304 0.641432 0.757033 0.169661
H16   H     H_    0.316545 0.577315 0.185075 0.139723
H17   H     H_    0.886207 0.644271 0.861664 0.157740
H18   H     H_    0.320405 0.199051 0.421483 0.176379
H19   H     H_    0.239376 0.217162 0.355686 0.163084
H20   H     H_    0.131682 0.115559 0.358420 0.170834
H21   H     H_    0.212018 0.094355 0.420135 0.151818
H22   H     H_    0.406710 0.295510 0.590312 0.147564
H23   H     H_    0.626257 0.619674 0.356818 0.176576
H24   H     H_    0.301981 0.187651 0.589326 0.178913
H25   H     H_    0.261011 0.398299 0.548898 0.183192
H26   H     H_    0.202504 0.331813 0.431018 0.148260
H27   H     H_    0.098897 0.232152 0.439013 0.183311
H28   H     H_    0.318437 0.424835 0.186306 0.140069
H29   H     H_    0.160741 0.295461 0.557207 0.150620
H30   H     H_    0.379341 0.374227 0.642714 0.173084
H31   H     H_    0.277459 0.267210 0.645872 0.157616
H32   H     H_    0.861285 0.603835 0.146622 0.180438
H33   H     H_    0.875429 0.672810 0.098201 0.144798
H34   H     H_    0.729198 0.725580 0.353581 0.154151
H35   H     H_    0.870953 0.772779 0.204808 0.181952
H36   H     H_    0.862419 0.706477 0.256513 0.147055
H37   H     H_    0.998451 0.622044 0.265975 0.175665
H38   H     H_    0.002062 0.728301 0.375192 0.155561
H39   H     H_    0.126381 0.799830 0.228613 0.175941
H40   H     H_    0.136053 0.347704 0.134462 0.130300
H41   H     H_    0.030801 0.786138 0.144083 0.162162
H42   H     H_    0.024895 0.887974 0.248145 0.168200
H43   H     H_    0.122673 0.904332 0.331987 0.153436
H44   H     H_    0.107238 0.699748 0.296750 0.149855
H45   H     H_    0.670733 0.798712 0.567584 0.176712
H46   H     H_    0.109405 0.806745 0.403211 0.180936
H47   H     H_    0.031403 0.254257 0.890930 0.178640
H48   H     H_    0.121874 0.334433 0.897555 0.160288
H49   H     H_    0.123761 0.226416 0.797739 0.179004
H50   H     H_    0.028320 0.143385 0.784163 0.164175
H51   H     H_    0.186141 0.423183 0.316060 0.115962
H52   H     H_    0.871515 0.092417 0.661580 0.148756
H53   H     H_    0.106136 0.397599 0.805762 0.141877
H54   H     H_    0.106194 0.296506 0.701360 0.139853
H55   H     H_    0.000181 0.263776 0.618772 0.179839
H56   H     H_    0.753361 0.788020 0.641398 0.164121
H57   H     H_    0.860029 0.253918 0.700771 0.102756
H58   H     H_    0.859900 0.147007 0.599842 0.166271
H59   H     H_    0.745965 0.605478 0.462335 0.179938
H60   H     H_    0.798610 0.675917 0.579102 0.145588
H61   H     H_    0.903254 0.776234 0.572866 0.182202
H62   H     H_    0.909765 0.117422 0.806632 0.116446
H63   H     H_    0.820603 0.055508 0.863962 0.122432
H64   H     H_    0.698637 0.084164 0.859972 0.117872
H65   H     H_    0.666328 0.176194 0.797558 0.115352
H66   H     H_    0.755549 0.240519 0.740698 0.093897
H67   H     H_    0.860778 0.890184 0.638959 0.165440
H68   H     H_    0.877833 0.280388 0.598866 0.125677
H69   H     H_    0.823189 0.362774 0.539542 0.125753
H70   H     H_    0.908615 0.526322 0.618427 0.119247
H71   H     H_    0.050826 0.607610 0.758587 0.117249
H72   H     H_    0.107677 0.527209 0.820574 0.119926
H73   H     H_    0.778510 0.903201 0.567989 0.156810
H74   H     H_    0.592913 0.696477 0.400235 0.150966
O1    O     O_R   0.592740 0.540340 0.447840 -0.630357
O2    O     O_R   0.947900 0.907390 0.355230 -0.630518
O3    O     O_R   0.959780 0.907430 0.552420 -0.632345
O4    O     O_R   0.592480 0.644870 0.552180 -0.631911
O5    O     O_R   0.854990 0.907370 0.447560 -0.632423
O6    O     O_R   0.052100 0.092610 0.644770 -0.633129
O7    O     O_R   0.947310 0.092550 0.539920 -0.631115
O8    O     O_R   0.145010 0.092640 0.552440 -0.631102
O9    O     O_R   0.040220 0.092570 0.447580 -0.629153
O10   O     O_R   0.407320 0.447740 0.355030 -0.628190
O11   O     O_R   0.407060 0.552270 0.459360 -0.624200
O12   O     O_R   0.053270 0.644880 0.093500 -0.634020
O13   O     O_R   0.407520 0.355130 0.447820 -0.632959
O14   O     O_R   0.407260 0.459660 0.552160 -0.631436
O15   O     O_R   0.592940 0.447730 0.540640 -0.632654
O16   O     O_R   0.592680 0.552260 0.644970 -0.631279
O17   O     O_R   0.948700 0.540360 0.093520 -0.631910
O18   O     O_R   0.041720 0.447740 0.093910 -0.620337
O19   O     O_R   0.146290 0.552270 0.093890 -0.628015
O20   O     O_R   0.949110 0.355140 0.908700 -0.606415
O21   O     O_R   0.053680 0.459670 0.908680 -0.639206
O22   O     O_R   0.856090 0.447760 0.908300 -0.635014
O23   O     O_R   0.960660 0.552280 0.908280 -0.630492
O24   O     O_R   0.052690 0.907450 0.460090 -0.631182
Zn1   Zn    Zn3+2 0.500170 0.430200 0.430330 0.910640
Zn2   Zn    Zn3+2 0.499830 0.569800 0.569670 0.914790
Zn3   Zn    Zn3+2 0.931370 0.430220 0.001110 0.936974
Zn4   Zn    Zn3+2 0.071010 0.569800 0.001080 0.906746
Zn5   Zn    Zn3+2 0.069970 0.000040 0.570020 0.907913
Zn6   Zn    Zn3+2 0.930030 0.999960 0.429990 0.909508

loop_
_geom_bond_atom_site_label_1
_geom_bond_atom_site_label_2
_ccdc_geom_bond_type
C44   C49   S    
O9    Zn6   S    
C66   C68   A    
C26   O19   A    
C8    C13   S    
C36   H36   S    
C24   H27   S    
C41   C42   S    
C19   C20   S    
C56   H61   S    
C19   H25   S    
C28   O16   A    
C6    H3    S    
C47   C49   S    
C37   H44   S    
C7    C11   S    
O7    Zn6   S    
O2    Zn6   S    
O13   Zn1   S    
O8    Zn5   S    
C47   H57   S    
C34   C40   S    
C29   O22   A    
C67   C72   S    
C43   H42   S    
C38   C39   S    
C31   O3    A    
C11   C14   S    
C48   C64   S    
C16   O14   A    
C44   H48   S    
C13   H9    S    
C37   C42   S    
C24   H29   S    
C18   H30   S    
C55   H16   S    
C3    H2    S    
C30   O24   A    
C53   H55   S    
C43   H43   S    
C48   H53   S    
C65   H68   S    
O12   Zn4   S    
O4    Zn2   S    
C35   C36   S    
C45   C56   S    
C52   C54   S    
C68   C69   A    
C34   C57   S    
O23   Zn4   S    
C30   C41   S    
C68   H70   S    
C64   C70   A    
C9    C10   S    
C37   H37   S    
C61   C62   A    
C9    H10   S    
C23   C34   S    
C59   C60   A    
C21   C22   S    
C16   O13   A    
C67   H23   S    
C51   H52   S    
C41   C43   S    
C36   C41   S    
C15   C20   S    
C17   H20   S    
C26   C54   S    
C19   H26   S    
C44   C46   S    
C28   O15   A    
C5    H67   S    
O24   Zn5   S    
C3    H34   S    
C48   C53   S    
C4    C34   S    
C50   C53   S    
C5    H73   S    
C71   H45   S    
C1    C72   S    
O18   Zn3   S    
C14   H14   S    
C52   H1    S    
C12   C23   S    
C66   H69   S    
C38   H41   S    
C33   O8    A    
C42   H46   S    
C6    H5    S    
C47   C51   S    
C44   H47   S    
O19   Zn4   S    
C40   C52   S    
C57   H28   S    
C17   C21   S    
C22   H31   S    
C40   H4    S    
C2    C31   S    
O3    Zn5   S    
C35   C39   S    
C9    C14   S    
O1    Zn1   S    
C62   C63   A    
C35   H33   S    
C31   O5    A    
C4    O11   A    
C32   O6    A    
O22   Zn3   S    
C16   C20   S    
C40   C55   S    
C67   H74   S    
C33   O9    A    
C50   C51   S    
O14   Zn2   S    
O16   Zn2   S    
C1    O4    A    
C46   H49   S    
C30   O2    A    
C60   H63   S    
C32   C50   S    
C47   C58   S    
C9    H11   S    
O21   Zn4   S    
C12   C57   S    
C8    C10   S    
C48   C49   S    
C4    O10   A    
C35   H32   S    
C56   H12   S    
C7    H6    S    
C18   H22   S    
C63   H66   S    
C71   H56   S    
C1    O1    A    
C2    C5    S    
C17   H21   S    
O17   Zn3   S    
C12   H40   S    
C7    H7    S    
C10   C28   S    
C58   C63   A    
C15   C17   S    
C54   C55   S    
O20   Zn3   S    
O5    Zn6   S    
C59   H62   S    
C13   H17   S    
C18   C22   S    
C22   H24   S    
C3    C67   S    
C14   H13   S    
C51   H58   S    
C6    C10   S    
C23   H51   S    
O6    Zn5   S    
C45   H59   S    
C6    C7    S    
C69   H71   S    
C46   C50   S    
O10   Zn1   S    
C70   H72   S    
C8    H15   S    
C64   C65   A    
C55   C57   S    
C2    C3    S    
C58   C59   A    
C71   C72   S    
C5    C71   S    
C2    C56   S    
C25   C39   S    
C15   H18   S    
O11   Zn2   S    
C11   C13   S    
C23   C52   S    
C25   O17   A    
C26   O18   A    
C19   C24   S    
C18   C20   S    
C62   H65   S    
C42   H38   S    
C69   C70   A    
C46   H50   S    
C53   H54   S    
C27   O20   A    
C15   H19   S    
C32   O7    A    
O15   Zn1   S    
C38   C43   S    
C21   C33   S    
C11   C29   S    
C45   H60   S    
C37   C39   S    
C65   C66   A    
C21   C24   S    
C25   O12   A    
C8    H8    S    
C45   C72   S    
C60   C61   A    
C29   O23   A    
C38   H39   S    
C12   C54   S    
C27   C49   S    
C61   H64   S    
C27   O21   A    
C36   H35   S    
