data_mof_unit_6425.cif
_audit_creation_date              2013-03-05T15:59:14-0500
_audit_creation_method            fapswitch 2.2
_symmetry_space_group_name_H-M    P1
_symmetry_Int_Tables_number       1
_space_group_crystal_system       triclinic
_cell_length_a                    6.962215
_cell_length_b                    21.336711
_cell_length_c                    23.608522
_cell_angle_alpha                 90.091471
_cell_angle_beta                  90.212368
_cell_angle_gamma                 89.874685
_cell_volume                      3507.02720411

loop_
_atom_site_label
_atom_site_type_symbol
_atom_site_description
_atom_site_fract_x
_atom_site_fract_y
_atom_site_fract_z
_atom_type_partial_charge
O1    O     O_R   0.494270 0.443530 0.442350 -0.589155
O2    O     O_R   0.824060 0.436290 0.557250 -0.592215
O3    O     O_R   0.994370 0.556470 0.557650 -0.588886
C1    C     C_R   0.655574 0.421113 0.576654 0.978202
O4    O     O_R   0.823990 0.436120 0.442760 -0.591928
O5    O     O_R   0.994300 0.556300 0.442340 -0.590503
C2    C     C_R   0.655059 0.420849 0.423368 0.977381
O6    O     O_R   0.494350 0.443700 0.557660 -0.588900
O7    O     O_3   0.660800 0.539430 0.500000 -0.273595
V1    V     V_3+5 0.935650 0.492690 0.500000 1.158419
O8    O     O_R   0.324020 0.563710 0.442750 -0.591832
C3    C     C_R   0.154675 0.578900 0.423430 0.978784
O9    O     O_R   0.324090 0.563880 0.557240 -0.591943
C4    C     C_R   0.155378 0.579065 0.576627 0.979912
V2    V     V_3+5 0.435660 0.507310 0.500000 1.158430
O10   O     O_3   0.160640 0.460570 0.500000 -0.273187
C5    C     C_3   0.024886 0.722612 0.794170 -0.164471
C6    C     C_3   0.214291 0.700103 0.766287 -0.165498
H1    H     H_    0.300711 0.658975 0.779883 0.113349
H2    H     H_    0.954688 0.700459 0.831203 0.113990
H3    H     H_    0.432832 0.784548 0.776745 0.121911
C7    C     C_1   0.145590 0.624881 0.622076 -0.290746
C8    C     C_1   0.073981 0.874466 0.877052 -0.274954
C9    C     C_3   0.932878 0.730714 0.734705 -0.165753
C10   C     C_3   0.122129 0.708812 0.707441 0.222512
C11   C     C_3   0.005337 0.799345 0.732764 -0.143737
C12   C     C_3   0.097500 0.790633 0.791611 0.221832
C13   C     C_3   0.194744 0.776834 0.704879 -0.148012
C14   C     C_3   0.286752 0.768734 0.764345 -0.154707
C15   C     C_1   0.135612 0.662832 0.660415 -0.039492
C16   C     C_1   0.083997 0.836571 0.838670 -0.027749
H4    H     H_    0.264939 0.798986 0.667844 0.125417
H5    H     H_    0.918922 0.840475 0.719169 0.131534
H6    H     H_    0.786796 0.714901 0.722305 0.119912
C17   C     C_3   0.314562 0.785896 0.231042 0.571321
C18   C     C_3   0.956462 0.809116 0.256214 0.287593
C19   C     C_3   0.970546 0.762408 0.307527 0.400912
H7    H     H_    0.359930 0.768046 0.322067 0.173591
H8    H     H_    0.361072 0.831850 0.247313 0.024588
H9    H     H_    0.814096 0.798519 0.236982 0.103907
H10   H     H_    0.828682 0.738121 0.311790 -0.024387
C20   C     C_1   0.142895 0.624891 0.378287 -0.314533
C21   C     C_3   0.104086 0.792116 0.207801 0.006080
C22   C     C_3   0.319366 0.740466 0.283823 -0.583048
C23   C     C_3   0.119541 0.709981 0.293490 0.203336
C24   C     C_3   0.055124 0.677630 0.237290 -0.549342
C25   C     C_3   0.047877 0.725431 0.187109 -0.474103
C26   C     C_1   0.131552 0.663134 0.340288 0.052014
C27   C     C_1   0.089426 0.837669 0.160052 0.109747
C28   C     C_1   0.076774 0.875122 0.121471 -0.280019
H11   H     H_    0.140712 0.709843 0.151727 0.211812
H12   H     H_    0.903382 0.726450 0.167872 0.168774
H13   H     H_    0.153358 0.638203 0.226991 0.193168
H14   H     H_    0.429481 0.703156 0.281970 0.170861
H15   H     H_    0.911251 0.656204 0.243024 0.163380
C29   C     C_3   0.429306 0.253981 0.703199 -0.509088
C30   C     C_3   0.788303 0.242608 0.704742 -0.384277
C31   C     C_3   0.776779 0.195560 0.754907 -0.292819
H16   H     H_    0.420666 0.229548 0.661607 0.203421
H17   H     H_    0.928515 0.267510 0.706323 0.151231
H18   H     H_    0.782820 0.216421 0.663972 0.187820
H19   H     H_    0.778932 0.146697 0.738736 0.223883
H20   H     H_    0.907517 0.200653 0.781785 0.165880
C32   C     C_1   0.572950 0.124005 0.877199 -0.243661
C33   C     C_3   0.621084 0.290736 0.707211 0.358052
C34   C     C_3   0.411008 0.206516 0.753279 0.264908
C35   C     C_3   0.595241 0.207970 0.791446 0.202912
C36   C     C_3   0.613907 0.275731 0.814991 -0.477917
C37   C     C_3   0.628728 0.324021 0.765743 -0.390316
C38   C     C_1   0.582422 0.161905 0.838855 -0.017570
C39   C     C_1   0.635892 0.337173 0.660212 -0.058155
C40   C     C_1   0.646167 0.375238 0.622013 -0.285388
H21   H     H_    0.508988 0.358457 0.769024 0.156957
H22   H     H_    0.765385 0.350623 0.769902 0.159586
H23   H     H_    0.487578 0.287333 0.841817 0.160861
H24   H     H_    0.306451 0.287423 0.704486 0.138270
H25   H     H_    0.288100 0.222261 0.779955 0.045470
H26   H     H_    0.743491 0.279422 0.842541 0.176935
C41   C     C_3   0.509943 0.318938 0.241312 -0.547499
C42   C     C_3   0.822618 0.270062 0.271867 -0.376251
C43   C     C_3   0.807413 0.222059 0.222358 -0.557426
H27   H     H_    0.584143 0.290663 0.154927 -0.028123
H28   H     H_    0.583411 0.362338 0.226933 0.129751
H29   H     H_    0.904385 0.248680 0.307559 0.182773
H30   H     H_    0.904752 0.311795 0.257546 0.180329
H31   H     H_    0.881844 0.240864 0.184508 0.219821
H32   H     H_    0.882886 0.178054 0.234236 0.221310
C44   C     C_1   0.573835 0.123896 0.121685 -0.273762
C45   C     C_3   0.620170 0.290400 0.292354 0.279677
C46   C     C_3   0.498048 0.271482 0.190888 0.617110
C47   C     C_3   0.594017 0.207936 0.207759 0.052283
C48   C     C_3   0.499324 0.181402 0.262585 0.605927
C49   C     C_3   0.509810 0.231007 0.311355 -0.542462
C50   C     C_1   0.582822 0.161693 0.160239 0.050220
C51   C     C_1   0.634523 0.336731 0.339644 -0.002857
C52   C     C_1   0.644842 0.374842 0.377953 -0.305302
H33   H     H_    0.362451 0.244482 0.324996 0.196855
H34   H     H_    0.582518 0.209824 0.348790 0.137314
H35   H     H_    0.362994 0.332919 0.254926 0.194626
H36   H     H_    0.587028 0.139715 0.275450 -0.015680
O11   O     O_R   0.724990 0.055630 0.941600 -0.588535
O12   O     O_R   0.395220 0.063160 0.056480 -0.585478
O13   O     O_R   0.225040 0.942970 0.056870 -0.586626
C53   C     C_R   0.564064 0.078292 0.075987 0.966224
O14   O     O_R   0.395270 0.063000 0.941990 -0.587593
O15   O     O_R   0.225080 0.942800 0.941570 -0.586773
C54   C     C_R   0.563747 0.078215 0.922617 0.974415
O16   O     O_R   0.724940 0.055790 0.056910 -0.590866
O17   O     O_3   0.558580 0.959880 0.999250 -0.272093
V3    V     V_3+5 0.283680 0.006590 0.999220 1.183003
O18   O     O_R   0.895380 0.935350 0.941950 -0.592661
C55   C     C_R   0.064116 0.920216 0.922554 0.986928
O19   O     O_R   0.895330 0.935520 0.056440 -0.587160
C56   C     C_R   0.064685 0.920490 0.075861 0.968576
V4    V     V_3+5 0.783690 0.991900 0.999180 1.178143
O20   O     O_3   0.058660 0.038680 0.999200 -0.273856
O21   O     O_3   0.932834 0.873439 0.271421 -0.601744
C57   C     C_3   0.103376 0.905022 0.286103 -0.152346
H37   H     H_    0.196253 0.878106 0.315521 0.158684
H38   H     H_    0.063514 0.948771 0.308650 0.146970
H39   H     H_    0.181806 0.919580 0.247501 0.113688
O22   O     O_3   0.023638 0.793340 0.358515 -0.614975
C58   C     C_3   0.859811 0.808259 0.390930 -0.168543
H40   H     H_    0.793248 0.764953 0.408077 0.125311
H41   H     H_    0.752605 0.835399 0.365862 0.154483
H42   H     H_    0.904892 0.837729 0.427343 0.157699
O23   O     O_3   0.445415 0.774658 0.185475 -0.602557
C59   C     C_3   0.521531 0.713493 0.181412 -0.257201
H43   H     H_    0.413592 0.676139 0.185261 0.141958
H44   H     H_    0.634651 0.706462 0.213661 0.123223
H45   H     H_    0.587254 0.707971 0.138993 0.160548
N1    N     N_R   0.367153 0.143178 0.732575 0.241005
O24   O     O_R   0.214839 0.114387 0.750728 -0.415482
O25   O     O_R   0.472649 0.116365 0.694093 -0.405907
O26   O     O_3   0.305428 0.164693 0.251502 -0.563754
C60   C     C_3   0.249778 0.114175 0.286301 -0.277314
H46   H     H_    0.271335 0.125212 0.331958 0.132412
H47   H     H_    0.329051 0.070742 0.274636 0.136206
H48   H     H_    0.094739 0.104934 0.279632 0.163368
O27   O     O_3   0.303562 0.261539 0.174977 -0.562307
C61   C     C_3   0.246366 0.305613 0.133651 -0.286712
H49   H     H_    0.322797 0.297060 0.093072 0.135901
H50   H     H_    0.270372 0.354543 0.148403 0.124538
H51   H     H_    0.090576 0.300093 0.125301 0.161598

loop_
_geom_bond_atom_site_label_1
_geom_bond_atom_site_label_2
_geom_bond_distance
_ccdc_geom_bond_type
C31   H19   1.109804 S    
O14   V3    1.973532 S    
O11   C54   1.299199 A    
C29   H24   1.113172 S    
V3    O20   1.708352 S    
C12   C14   1.539938 S    
C17   H8    1.101399 S    
C51   C52   1.217294 T    
C1    C40   1.453694 S    
C42   H29   1.113003 S    
C59   H43   1.100717 S    
C30   C31   1.556144 S    
O26   C60   1.412056 S    
O15   C55   1.299073 A    
C23   C24   1.559497 S    
C36   H23   1.112945 S    
C8    C55   1.452049 S    
O14   C54   1.302523 A    
C11   C12   1.539504 S    
O13   V3    1.968293 S    
O16   V4    1.969499 S    
C41   H35   1.113467 S    
C18   C19   1.572536 S    
C9    C11   1.550673 S    
C61   H50   1.112814 S    
O5    C3    1.298183 A    
O12   C53   1.302057 A    
C33   C37   1.553451 S    
C58   H41   1.112931 S    
C29   C33   1.552467 S    
C31   H20   1.113067 S    
C5    H2    1.110049 S    
C6    H1    1.110081 S    
C42   C45   1.552609 S    
C57   H37   1.107511 S    
C41   C46   1.563651 S    
C3    C20   1.451842 S    
O8    V2    1.967840 S    
C18   O21   1.427373 S    
O18   C55   1.302271 A    
C36   C37   1.558613 S    
C24   H15   1.110801 S    
C37   H21   1.112856 S    
O1    V2    1.966373 S    
C32   C38   1.216858 T    
C17   C21   1.568256 S    
O7    V1    2.155909 S    
C43   H31   1.110636 S    
C1    O6    1.299188 A    
C34   C35   1.565128 S    
O9    C4    1.302308 A    
C45   C49   1.551188 S    
C6    C10   1.539489 S    
C60   H48   1.108324 S    
C13   H4    1.110053 S    
C44   C53   1.453198 S    
C34   N1    1.468703 S    
C36   H26   1.113095 S    
C44   C50   1.216655 T    
C5    C9    1.550712 S    
V2    O10   2.160828 S    
C12   C16   1.483494 S    
C35   C36   1.553683 S    
C5    C12   1.539265 S    
C58   H40   1.112157 S    
O13   C56   1.297782 A    
O27   C61   1.411805 S    
C60   H47   1.112358 S    
C61   H51   1.108188 S    
C47   C48   1.562318 S    
O4    C2    1.302406 A    
C21   C27   1.492689 S    
C58   H42   1.109073 S    
C25   H11   1.108294 S    
C33   C39   1.492744 S    
H3    C14   1.110362 S    
C9    H6    1.110362 S    
C28   C56   1.451151 S    
C57   H39   1.109307 S    
C8    C16   1.215579 T    
C45   C51   1.493228 S    
O2    C1    1.302633 A    
H7    C22   1.112842 S    
C42   H30   1.113019 S    
C2    C52   1.454169 S    
C11   H5    1.110084 S    
C18   H9    1.112231 S    
C5    C6    1.550979 S    
C37   H22   1.112897 S    
C6    C14   1.550652 S    
C20   C26   1.215894 T    
C9    C10   1.539938 S    
C17   O23   1.431864 S    
C17   C22   1.580133 S    
C43   H32   1.110812 S    
O3    C4    1.299105 A    
O6    V2    1.965051 S    
O9    V2    1.971013 S    
O11   V4    1.965529 S    
C42   C43   1.556334 S    
O12   V3    1.969389 S    
C48   O26   1.420255 S    
C19   C23   1.559960 S    
O23   C59   1.410732 S    
O2    V1    1.973727 S    
C59   H45   1.108580 S    
C49   H33   1.113462 S    
C53   O16   1.299448 A    
C22   C23   1.554823 S    
C48   H36   1.119543 S    
C32   C54   1.453449 S    
O19   C56   1.303128 A    
O15   V3    1.965645 S    
C23   C26   1.493059 S    
C10   C15   1.483504 S    
C34   H25   1.115251 S    
C24   C25   1.565058 S    
C13   C14   1.550746 S    
C7    C15   1.215586 T    
O1    C2    1.299558 A    
C30   C33   1.551889 S    
C60   H46   1.112637 S    
C30   H17   1.112912 S    
C59   H44   1.103554 S    
O5    V1    1.968324 S    
C46   O27   1.420150 S    
O8    C3    1.303065 A    
C30   H18   1.112741 S    
C25   H12   1.102421 S    
C11   C13   1.551033 S    
H27   C46   1.119619 S    
C29   H16   1.112490 S    
C35   C38   1.493784 S    
C4    C7    1.452061 S    
O7    V2    1.712122 S    
O4    V1    1.969395 S    
O3    V1    1.965670 S    
V1    O10   1.708417 S    
O21   C57   1.408463 S    
C47   C50   1.494773 S    
C41   H28   1.112972 S    
C46   C47   1.561790 S    
C29   C34   1.563732 S    
C24   H13   1.110249 S    
C48   C49   1.564314 S    
N1    O24   1.301015 A    
C19   H10   1.121307 S    
C57   H38   1.109095 S    
C41   C45   1.550886 S    
O17   V4    1.711079 S    
C10   C13   1.539288 S    
C19   O22   1.420035 S    
C43   C47   1.553947 S    
C22   H14   1.104916 S    
C31   C35   1.554861 S    
C39   C40   1.217029 T    
N1    O25   1.301378 A    
C27   C28   1.215482 T    
O17   V3    2.155921 S    
C18   C21   1.581156 S    
O18   V4    1.970921 S    
O22   C58   1.411402 S    
C61   H49   1.112234 S    
C21   C25   1.554046 S    
C49   H34   1.112897 S    
V4    O20   2.160912 S    
O19   V4    1.967738 S    
