data_mof_unit_11877.cif
_audit_creation_date              2012-12-11T14:03:31-0500
_audit_creation_method            fapswitch 2.2
_symmetry_space_group_name_H-M    P1
_symmetry_Int_Tables_number       1
_space_group_crystal_system       triclinic
_cell_length_a                    6.935815
_cell_length_b                    11.410341
_cell_length_c                    18.665074
_cell_angle_alpha                 90.000969
_cell_angle_beta                  92.844885
_cell_angle_gamma                 89.996112
_cell_volume                      1475.33371863

loop_
_atom_site_label
_atom_site_type_symbol
_atom_type_description
_atom_site_fract_x
_atom_site_fract_y
_atom_site_fract_z
_atom_type_partial_charge
O1    O     O_R   0.330540 0.606360 0.598870 -0.538761
O2    O     O_R   0.669460 0.106360 0.401130 -0.538306
O3    O     O_R   0.026770 0.620470 0.750430 -0.542762
O4    O     O_R   0.973230 0.120470 0.249570 -0.542651
O5    O     O_R   0.856460 0.393640 0.750930 -0.545975
O6    O     O_R   0.143540 0.893640 0.249070 -0.536692
C1    C     C_R   0.198638 0.648528 0.774483 0.687643
C2    C     C_R   0.801354 0.148521 0.225514 0.688329
O7    O     O_R   0.000920 0.620350 0.599420 -0.549025
O8    O     O_R   0.999080 0.120350 0.400580 -0.549031
O9    O     O_R   0.830430 0.393520 0.598850 -0.539444
O10   O     O_R   0.169570 0.893520 0.401150 -0.536412
C3    C     C_R   0.166667 0.647838 0.574510 0.765196
C4    C     C_R   0.833333 0.147832 0.425493 0.766790
O11   O     O_R   0.356570 0.606480 0.750960 -0.540773
O12   O     O_R   0.643430 0.106480 0.249040 -0.540457
O13   O     O_3   0.176990 0.425580 0.674890 -0.372480
O14   O     O_3   0.823010 0.925580 0.325110 -0.372595
V1    V     V_3+5 0.902170 0.513810 0.674910 1.412358
V2    V     V_3+5 0.097830 0.013810 0.325090 1.424225
O15   O     O_R   0.500800 0.379530 0.599380 -0.545458
O16   O     O_R   0.499200 0.879530 0.400620 -0.549439
C5    C     C_R   0.666577 0.351955 0.574531 0.779461
C6    C     C_R   0.333429 0.851958 0.425472 0.781251
O17   O     O_R   0.526650 0.379650 0.750390 -0.536442
O18   O     O_R   0.473350 0.879650 0.249610 -0.549165
C7    C     C_R   0.698515 0.351407 0.774333 0.743402
C8    C     C_R   0.301491 0.851299 0.225719 0.744102
V3    V     V_3+5 0.402160 0.486190 0.674900 1.429229
V4    V     V_3+5 0.597840 0.986190 0.325100 1.413420
O19   O     O_3   0.677210 0.574420 0.674910 -0.376333
O20   O     O_3   0.322790 0.074420 0.325090 -0.375841
C9    C     C_R   0.708054 0.069400 0.879622 -0.195787
C10   C     C_R   0.287024 0.569178 0.120435 -0.195521
H1    H     H_    0.725225 0.939017 0.997073 0.138373
H2    H     H_    0.267430 0.438780 0.003002 0.138536
H3    H     H_    0.697886 0.975775 0.870149 0.128772
H4    H     H_    0.295013 0.475488 0.129915 0.128939
C11   C     C_R   0.714034 0.267549 0.833744 -0.053503
C12   C     C_R   0.286053 0.767443 0.166291 -0.051553
C13   C     C_R   0.797739 0.351003 0.180485 -0.181400
C14   C     C_R   0.204068 0.851021 0.819517 -0.181488
C15   C     C_R   0.788958 0.432626 0.125214 -0.116777
C16   C     C_R   0.213331 0.932636 0.874792 -0.115786
C17   C     C_R   0.769861 0.396093 0.053986 -0.168307
C18   C     C_R   0.231571 0.896068 0.946029 -0.168893
C19   C     C_R   0.758605 0.275402 0.036094 0.080955
C20   C     C_R   0.241188 0.775342 0.963933 0.080984
C21   C     C_R   0.765513 0.192165 0.093223 0.064019
C22   C     C_R   0.233137 0.692091 0.906808 0.063934
C23   C     C_R   0.740908 0.234494 0.963607 0.072019
C24   C     C_R   0.258222 0.734408 0.036426 0.071882
C25   C     C_R   0.728074 0.112040 0.950126 0.102087
C26   C     C_R   0.268233 0.611880 0.049924 0.101780
C27   C     C_R   0.734703 0.032523 0.007024 -0.196782
C28   C     C_R   0.260079 0.532341 0.993035 -0.196600
C29   C     C_R   0.753653 0.071666 0.077377 -0.210415
C30   C     C_R   0.242519 0.571534 0.922670 -0.210374
C31   C     C_R   0.734960 0.310758 0.903854 -0.285179
C32   C     C_R   0.266125 0.810708 0.096169 -0.285903
C33   C     C_R   0.700107 0.146486 0.821123 0.188385
C34   C     C_R   0.297583 0.646284 0.178918 0.186914
C35   C     C_R   0.785696 0.231239 0.165307 -0.080520
C36   C     C_R   0.214318 0.731213 0.834708 -0.080398
H5    H     H_    0.744080 0.404572 0.909662 0.115204
H6    H     H_    0.259097 0.904580 0.090345 0.115176
H7    H     H_    0.814166 0.381330 0.235470 0.109581
H8    H     H_    0.188605 0.881386 0.764519 0.108840
H9    H     H_    0.764349 0.464827 0.014436 0.123644
H10   H     H_    0.237565 0.964803 0.985579 0.123758
H11   H     H_    0.797795 0.525248 0.137620 0.136957
H12   H     H_    0.205706 0.025287 0.862380 0.137699
H13   H     H_    0.758557 0.006167 0.119390 0.127236
H14   H     H_    0.236546 0.506023 0.880661 0.127208
C37   C     C_2   0.832020 0.233625 0.484740 -0.350229
C38   C     C_2   0.167984 0.733644 0.515268 -0.344318
H15   H     H_    0.969677 0.270450 0.503779 0.150597
H16   H     H_    0.030329 0.770488 0.496235 0.149660
C39   C     C_2   0.667924 0.266069 0.515339 -0.341337
C40   C     C_2   0.332084 0.766072 0.484666 -0.340226
H17   H     H_    0.530269 0.229234 0.496306 0.150069
H18   H     H_    0.469738 0.729220 0.503693 0.147844
N1    N     N_3   0.676594 0.102833 0.748979 -0.682221
H19   H     H_    0.804862 0.119602 0.723654 0.214812
H20   H     H_    0.658883 0.011817 0.749105 0.227869
N2    N     N_3   0.318396 0.602433 0.251083 -0.684809
H21   H     H_    0.456322 0.625522 0.271462 0.219262
H22   H     H_    0.312752 0.510847 0.251310 0.227967

loop_
_geom_bond_atom_site_label_1
_geom_bond_atom_site_label_2
_ccdc_geom_bond_type
C21   C35   A    
C22   C36   A    
O4    C2    A    
V1    O19   S    
C21   C29   A    
C19   C21   A    
C34   N2    S    
O9    V1    S    
C12   C32   A    
C38   H16   S    
O3    C1    A    
N2    H22   S    
C8    C12   S    
O12   V4    S    
C10   C34   A    
C12   C34   A    
O17   V3    S    
O7    V1    S    
C17   C19   A    
C29   H13   S    
O7    C3    A    
C24   C32   A    
O5    C7    A    
C6    C40   S    
O6    C8    A    
C7    C11   S    
O3    V1    S    
O14   V4    S    
C20   C22   A    
C32   H6    S    
C2    O12   A    
C14   H8    S    
C13   C15   A    
C14   C16   A    
C24   C26   A    
O11   V3    S    
C18   C20   A    
C25   C27   A    
C9    C25   A    
C11   C33   A    
C26   C28   A    
C17   H9    S    
C22   C30   A    
C13   H7    S    
C40   H18   S    
O8    C4    A    
O8    V2    S    
C39   H17   S    
N2    H21   S    
C19   C23   A    
C1    O11   A    
C16   C18   A    
H1    C27   S    
C9    H3    S    
C23   C25   A    
H2    C28   S    
C37   H15   S    
N1    H19   S    
C3    C38   S    
C11   C31   A    
O10   V2    S    
O1    V3    S    
C15   C17   A    
N1    H20   S    
C10   C26   A    
C27   C29   A    
C33   N1    S    
O16   C6    A    
O1    C3    A    
C13   C35   A    
C14   C36   A    
C30   H14   S    
V2    O20   S    
C15   H11   S    
O16   V4    S    
C10   H4    S    
C38   C40   D    
O18   V4    S    
O5    V1    S    
O17   C7    A    
O6    V2    S    
O10   C6    A    
O18   C8    A    
O2    V4    S    
C4    C37   S    
O15   C5    A    
V3    O19   S    
O13   V3    S    
C31   H5    S    
V4    O20   S    
O15   V3    S    
O9    C5    A    
O13   V1    S    
C28   C30   A    
C16   H12   S    
O14   V2    S    
O2    C4    A    
C1    C36   S    
C18   H10   S    
C2    C35   S    
O4    V2    S    
C20   C24   A    
C23   C31   A    
C9    C33   A    
C5    C39   S    
C37   C39   D    
