data_mof_unit_48713.cif
_audit_creation_date              2012-12-11T15:09:45-0500
_audit_creation_method            fapswitch 2.2
_symmetry_space_group_name_H-M    P1
_symmetry_Int_Tables_number       1
_space_group_crystal_system       triclinic
_cell_length_a                    20.932866
_cell_length_b                    7.126685
_cell_length_c                    13.999602
_cell_angle_alpha                 89.99996
_cell_angle_beta                  97.922311
_cell_angle_gamma                 90.000078
_cell_volume                      2068.55501029

loop_
_atom_site_label
_atom_site_type_symbol
_atom_type_description
_atom_site_fract_x
_atom_site_fract_y
_atom_site_fract_z
_atom_type_partial_charge
O1    O     O_R   0.447130 0.507140 0.597350 -0.535425
O2    O     O_R   0.552870 0.007140 0.402650 -0.535425
O3    O     O_R   0.578910 0.181280 0.586990 -0.539658
O4    O     O_R   0.421090 0.681280 0.413010 -0.539658
C1    C     C_R   0.604410 0.344507 0.607643 0.723720
C2    C     C_R   0.395590 0.844507 0.392357 0.723720
O5    O     O_R   0.449230 0.177860 0.608640 -0.548573
O6    O     O_R   0.550770 0.677860 0.391360 -0.548573
O7    O     O_R   0.422260 0.000770 0.424450 -0.532372
O8    O     O_R   0.577740 0.500770 0.575550 -0.532373
C3    C     C_R   0.432834 0.346328 0.634837 0.691895
C4    C     C_R   0.567165 0.846329 0.365163 0.691895
O9    O     O_3   0.491310 0.336980 0.439550 -0.376962
O10   O     O_3   0.508690 0.836980 0.560450 -0.376963
V1    V     V_3+5 0.501610 0.064760 0.511210 1.406606
V2    V     V_3+5 0.498390 0.564760 0.488790 1.406606
C5    C     C_R   0.620211 0.895228 0.120648 0.020986
C6    C     C_R   0.379789 0.395226 0.879352 0.020987
H1    H     H_    0.529129 0.891637 0.175729 0.105916
H2    H     H_    0.470871 0.391634 0.824271 0.105913
H3    H     H_    0.708431 0.890099 0.996130 0.147170
H4    H     H_    0.291569 0.390090 0.003870 0.147169
C7    C     C_R   0.608188 0.855574 0.289022 -0.045625
C8    C     C_R   0.391811 0.355573 0.710978 -0.045624
C9    C     C_R   0.921416 0.846064 0.307216 -0.170775
C10   C     C_R   0.078583 0.346071 0.692783 -0.170775
C11   C     C_R   0.884053 0.837894 0.381716 -0.117944
C12   C     C_R   0.115947 0.337905 0.618283 -0.117944
C13   C     C_R   0.816964 0.842228 0.361947 -0.158734
C14   C     C_R   0.183036 0.342237 0.638053 -0.158734
C15   C     C_R   0.785218 0.854323 0.265833 0.083947
C16   C     C_R   0.214782 0.354326 0.734167 0.083948
C17   C     C_R   0.824017 0.862756 0.190027 0.070402
C18   C     C_R   0.175983 0.362756 0.809973 0.070402
C19   C     C_R   0.716518 0.860235 0.242524 0.059285
C20   C     C_R   0.283482 0.360235 0.757476 0.059285
C21   C     C_R   0.688182 0.880747 0.144373 0.095239
C22   C     C_R   0.311818 0.380745 0.855627 0.095238
C23   C     C_R   0.728074 0.883200 0.071665 -0.208551
C24   C     C_R   0.271926 0.383194 0.928335 -0.208552
C25   C     C_R   0.794432 0.874754 0.093950 -0.197475
C26   C     C_R   0.205568 0.374749 0.906050 -0.197475
C27   C     C_R   0.674938 0.846247 0.313553 -0.211091
C28   C     C_R   0.325062 0.346248 0.686447 -0.211092
C29   C     C_R   0.580998 0.880301 0.193394 -0.229020
C30   C     C_R   0.419002 0.380299 0.806605 -0.229016
C31   C     C_R   0.892021 0.858727 0.211691 -0.071670
C32   C     C_R   0.107979 0.358728 0.788309 -0.071671
H5    H     H_    0.692604 0.827363 0.388896 0.099762
H6    H     H_    0.307396 0.327365 0.611104 0.099762
H7    H     H_    0.973513 0.842886 0.324055 0.102443
H8    H     H_    0.026487 0.342895 0.675945 0.102443
H9    H     H_    0.791683 0.837557 0.423822 0.109259
H10   H     H_    0.208317 0.337569 0.576178 0.109259
H11   H     H_    0.907266 0.828779 0.455627 0.119950
H12   H     H_    0.092734 0.328794 0.544372 0.119950
H13   H     H_    0.822438 0.878508 0.034473 0.125455
H14   H     H_    0.177562 0.378500 0.965527 0.125455
C33   C     C_1   0.166787 0.857123 0.167942 -0.192570
C34   C     C_1   0.833213 0.357123 0.832057 -0.192570
C35   C     C_1   0.219239 0.854819 0.218846 0.003589
C36   C     C_1   0.780761 0.354819 0.781153 0.003590
C37   C     C_1   0.281006 0.853355 0.278826 0.004078
C38   C     C_1   0.718993 0.353356 0.721174 0.004078
C39   C     C_1   0.333293 0.851078 0.330151 -0.199395
C40   C     C_1   0.666707 0.351078 0.669849 -0.199394
O11   O     O_R   0.922300 0.202240 0.924350 -0.533169
O12   O     O_R   0.077700 0.702240 0.075650 -0.533169
O13   O     O_R   0.050780 0.535130 0.891350 -0.539759
O14   O     O_R   0.949220 0.035130 0.108650 -0.539760
C41   C     C_R   0.066783 0.367839 0.864537 0.683391
C42   C     C_R   0.933217 0.867838 0.135463 0.683391
O15   O     O_R   0.921100 0.531560 0.912990 -0.538189
O16   O     O_R   0.078900 0.031560 0.087010 -0.538189
O17   O     O_R   0.947120 0.708470 0.097370 -0.537217
O18   O     O_R   0.052880 0.208470 0.902630 -0.537216
C43   C     C_R   0.895799 0.363562 0.893559 0.714169
C44   C     C_R   0.104201 0.863562 0.106440 0.714169
O19   O     O_3   0.008710 0.375800 0.060400 -0.373655
O20   O     O_3   0.991290 0.875800 0.939600 -0.373655
V3    V     V_3+5 0.998380 0.648080 0.988790 1.428373
V4    V     V_3+5 0.001620 0.148080 0.011210 1.428373
C45   C     C_R   0.588962 0.932184 0.021000 0.074307
C46   C     C_R   0.601541 0.100118 0.974304 -0.140623
C47   C     C_R   0.574300 0.131362 0.878822 -0.137509
C48   C     C_R   0.533360 0.997206 0.830181 -0.097834
C49   C     C_R   0.519470 0.831980 0.876854 -0.128262
C50   C     C_R   0.547375 0.798776 0.971907 -0.138956
H15   H     H_    0.633072 0.205252 0.011492 0.122104
H16   H     H_    0.584857 0.259574 0.842615 0.105850
H17   H     H_    0.512427 0.020996 0.756342 0.141182
H18   H     H_    0.487496 0.729314 0.838951 0.121929
H19   H     H_    0.537547 0.668290 0.006652 0.140005
C51   C     C_R   0.411039 0.432182 0.979000 0.074308
C52   C     C_R   0.398458 0.600113 0.025697 -0.140618
C53   C     C_R   0.425700 0.631359 0.121178 -0.137505
C54   C     C_R   0.466643 0.497209 0.169817 -0.097834
C55   C     C_R   0.480536 0.331987 0.123142 -0.128266
C56   C     C_R   0.452629 0.298780 0.028090 -0.138961
H20   H     H_    0.366924 0.705243 0.988510 0.122103
H21   H     H_    0.415142 0.759568 0.157386 0.105850
H22   H     H_    0.487578 0.521000 0.243654 0.141181
H23   H     H_    0.512513 0.229326 0.161043 0.121932
H24   H     H_    0.462458 0.168297 0.993344 0.140008

loop_
_geom_bond_atom_site_label_1
_geom_bond_atom_site_label_2
_ccdc_geom_bond_type
C22   C24   A    
C49   C50   A    
C37   C39   T    
C7    C29   A    
C11   C13   A    
C52   C53   A    
O11   C43   A    
O2    C4    A    
C26   H14   S    
C2    O7    A    
C54   C55   A    
C12   H12   S    
C23   C25   A    
C47   C48   A    
O5    C3    A    
C14   H10   S    
C4    C7    S    
O12   V3    S    
C16   C20   A    
C19   C21   A    
C5    C29   A    
C48   H17   S    
C41   O18   A    
C11   H11   S    
C55   H23   S    
C3    C8    S    
C7    C27   A    
C34   C36   T    
C35   C37   S    
C36   C38   S    
C2    C39   S    
C18   C26   A    
O1    C3    A    
C15   C17   A    
C6    C51   S    
C19   C27   A    
C9    C31   A    
C54   H22   S    
C10   C32   A    
C24   C26   A    
C45   C50   A    
O6    V2    S    
C53   H21   S    
O16   V4    S    
C42   O17   A    
C6    C30   A    
C33   C44   S    
O15   V3    S    
O12   C44   A    
C34   C43   S    
C33   C35   T    
O13   C41   A    
C46   C47   A    
O20   V4    S    
O18   V4    S    
O19   V3    S    
C52   H20   S    
C27   H5    S    
C5    C45   S    
C16   C18   A    
O4    V2    S    
C9    H7    S    
C10   H8    S    
C45   C46   A    
H3    C23   S    
O6    C4    A    
H4    C24   S    
C53   C54   A    
O1    V2    S    
C5    C21   A    
O2    V1    S    
O4    C2    A    
C17   C31   A    
C15   C19   A    
C20   C28   A    
C18   C32   A    
C46   H15   S    
C32   C41   S    
C20   C22   A    
O3    V1    S    
C28   H6    S    
C50   H19   S    
C48   C49   A    
O17   V3    S    
O20   V3    S    
O3    C1    A    
O19   V4    S    
C47   H16   S    
H1    C29   S    
C9    C11   A    
C10   C12   A    
C17   C25   A    
C12   C14   A    
C6    C22   A    
C8    C30   A    
C1    O8    A    
C21   C23   A    
O8    V2    S    
C1    C40   S    
C14   C16   A    
C13   H9    S    
C51   C56   A    
C8    C28   A    
O5    V1    S    
C56   H24   S    
O7    V1    S    
C51   C52   A    
O14   V4    S    
C31   C42   S    
O13   V3    S    
C25   H13   S    
O11   V4    S    
C13   C15   A    
C55   C56   A    
O16   C44   A    
O9    V2    S    
O15   C43   A    
O10   V1    S    
O14   C42   A    
C49   H18   S    
H2    C30   S    
C38   C40   T    
