data_mof_unit_9989.cif
_audit_creation_date              2012-12-10T18:27:13-0500
_audit_creation_method            fapswitch 2.2
_symmetry_space_group_name_H-M    P1
_symmetry_Int_Tables_number       1
_space_group_crystal_system       triclinic
_cell_length_a                    14.971095
_cell_length_b                    14.003597
_cell_length_c                    27.647698
_cell_angle_alpha                 90.840098
_cell_angle_beta                  90.110393
_cell_angle_gamma                 88.732071
_cell_volume                      5794.26767596

loop_
_atom_site_label
_atom_site_type_symbol
_atom_type_description
_atom_site_fract_x
_atom_site_fract_y
_atom_site_fract_z
_atom_type_partial_charge
C1    C     C_R   0.326647 0.500852 0.500334 0.895158
C2    C     C_R   0.410316 0.515060 0.874392 -0.161442
C3    C     C_R   0.503197 0.495991 0.352991 -0.155391
C4    C     C_R   0.497049 0.503366 0.647027 -0.157318
C5    C     C_R   0.415492 0.508194 0.976447 -0.061860
C6    C     C_R   0.584130 0.484955 0.023680 -0.061704
C7    C     C_R   0.579750 0.507550 0.973962 0.090123
C8    C     C_R   0.419913 0.485254 0.026120 0.090022
C9    C     C_R   0.495904 0.511206 0.950001 0.063105
C10   C     C_R   0.503707 0.481949 0.050097 0.063236
C11   C     C_R   0.334454 0.532921 0.952166 0.052666
C12   C     C_R   0.673440 0.498966 0.500315 0.895250
C13   C     C_R   0.665159 0.460725 0.048091 0.052312
C14   C     C_R   0.330057 0.520350 0.901556 0.428623
C15   C     C_R   0.669452 0.474241 0.098651 0.428793
C16   C     C_R   0.500670 0.499166 0.405858 0.915620
C17   C     C_R   0.499446 0.500774 0.594147 0.913457
C18   C     C_R   0.343978 0.457356 0.051900 -0.239229
C19   C     C_R   0.655797 0.534992 0.948152 -0.239022
C20   C     C_R   0.816234 0.420350 0.480592 -0.260290
C21   C     C_R   0.184570 0.571937 0.527895 -0.261337
C22   C     C_R   0.769158 0.496294 0.502406 -0.052730
C23   C     C_R   0.506708 0.474048 0.100898 -0.114995
C24   C     C_R   0.231058 0.501503 0.501517 -0.048699
C25   C     C_R   0.812828 0.568700 0.527143 -0.238779
C26   C     C_R   0.187150 0.427743 0.478126 -0.240449
C27   C     C_R   0.905129 0.566968 0.529597 0.078825
C28   C     C_R   0.095291 0.423771 0.480298 0.079722
C29   C     C_R   0.953889 0.493145 0.505689 0.036392
C30   C     C_R   0.046753 0.495595 0.505777 0.036554
C31   C     C_R   0.909500 0.417764 0.481241 0.058447
C32   C     C_R   0.091367 0.570065 0.530848 0.061128
C33   C     C_R   0.948488 0.638204 0.555856 -0.207395
C34   C     C_R   0.492846 0.519667 0.899215 -0.114757
C35   C     C_R   0.052319 0.348316 0.457284 -0.211205
C36   C     C_R   0.041988 0.639968 0.558023 0.152921
C37   C     C_R   0.959124 0.342795 0.457880 0.158933
C38   C     C_R   0.564448 0.795227 0.475476 -0.048434
C39   C     C_R   0.433805 0.204438 0.522981 -0.041580
C40   C     C_R   0.431879 0.799776 0.521490 -0.031519
C41   C     C_R   0.563994 0.200364 0.475083 -0.044394
C42   C     C_R   0.428805 0.465334 0.177131 0.546916
C43   C     C_R   0.570757 0.528466 0.822974 0.550735
C44   C     C_R   0.423785 0.900876 0.517968 -0.035620
C45   C     C_R   0.426666 0.463034 0.126780 0.007187
C46   C     C_R   0.566518 0.098936 0.473950 -0.024302
C47   C     C_R   0.564612 0.896186 0.472445 -0.019332
C48   C     C_R   0.425980 0.103765 0.519567 -0.023635
C49   C     C_R   0.494852 0.949411 0.495763 0.004118
C50   C     C_R   0.495442 0.050484 0.496124 -0.001478
C51   C     C_R   0.346900 0.954059 0.534794 0.120612
C52   C     C_R   0.636695 0.045855 0.450433 0.140614
C53   C     C_R   0.632213 0.944173 0.446614 0.133359
C54   C     C_R   0.349921 0.056330 0.537698 0.144389
C55   C     C_R   0.586834 0.486006 0.176734 0.604640
C56   C     C_R   0.572957 0.530189 0.873320 0.007105
C57   C     C_R   0.412396 0.510485 0.823345 0.600401
C58   C     C_R   0.519194 0.403275 0.279013 0.445753
C59   C     C_R   0.484995 0.594938 0.721544 0.445534
C60   C     C_R   0.517126 0.408088 0.329053 -0.264145
C61   C     C_R   0.487536 0.591286 0.671467 -0.265250
C62   C     C_R   0.491915 0.579816 0.326325 -0.197297
C63   C     C_R   0.503555 0.418482 0.673206 -0.196269
C64   C     C_R   0.493181 0.576326 0.275503 0.155115
C65   C     C_R   0.501436 0.420682 0.723993 0.153417
C66   C     C_R   0.506917 0.486702 0.252238 0.161036
C67   C     C_R   0.346620 0.449180 0.101797 -0.123449
C68   C     C_R   0.492265 0.510292 0.747807 0.161304
C69   C     C_3   0.089825 0.714095 0.589017 -0.417131
C70   C     C_3   0.030639 0.784536 0.617985 -0.837032
C71   C     C_3   0.911978 0.258336 0.434506 -0.410296
C72   C     C_3   0.971830 0.179357 0.412239 -0.867927
C73   C     C_3   0.259289 0.903199 0.545299 -0.403280
C74   C     C_3   0.185960 0.927156 0.508259 -0.831799
C75   C     C_3   0.718048 0.097537 0.431773 -0.461707
C76   C     C_3   0.705493 0.127782 0.379270 -0.790078
C77   C     C_3   0.696063 0.886649 0.413401 -0.419520
C78   C     C_R   0.653155 0.543199 0.898272 -0.122705
C79   C     C_3   0.647194 0.846938 0.369048 -0.845861
C80   C     C_3   0.271995 0.115446 0.559384 -0.381786
C81   C     C_3   0.218393 0.169996 0.520804 -0.861640
C82   C     C_3   0.479904 0.664918 0.244771 -0.381635
C83   C     C_3   0.465215 0.759154 0.272533 -0.849844
C84   C     C_3   0.509026 0.330586 0.754066 -0.382218
C85   C     C_3   0.518694 0.236462 0.725592 -0.843908
C86   C     C_3   0.259451 0.590075 0.977479 -0.397406
C87   C     C_3   0.250258 0.691470 0.957782 -0.751688
C88   C     C_3   0.740166 0.403113 0.023055 -0.397820
C89   C     C_R   0.589116 0.479858 0.125735 -0.161676
C90   C     C_3   0.749226 0.302046 0.043177 -0.750751
Cl1   Cl    Cl    0.472930 0.706717 0.751015 -0.570404
Cl2   Cl    Cl    0.536825 0.291495 0.250265 -0.573017
Cl3   Cl    Cl    0.222749 0.515759 0.874359 -0.534642
Cl4   Cl    Cl    0.776659 0.478996 0.125948 -0.533098
H1    H     H_    0.481484 0.646880 0.345534 0.178926
H2    H     H_    0.611629 0.242032 0.455847 0.143585
H3    H     H_    0.285452 0.433645 0.120711 0.196722
H4    H     H_    0.714398 0.558410 0.879352 0.196711
H5    H     H_    0.481837 0.657445 0.651759 0.195731
H6    H     H_    0.526708 0.342784 0.349139 0.191455
H7    H     H_    0.281506 0.442967 0.033776 0.162698
H8    H     H_    0.718351 0.549150 0.966236 0.162588
H9    H     H_    0.778989 0.365348 0.462143 0.143885
H10   H     H_    0.222263 0.626669 0.546270 0.138657
H11   H     H_    0.988758 0.828669 0.593313 0.251723
H12   H     H_    0.510680 0.351421 0.653628 0.180681
H13   H     H_    0.987827 0.745901 0.643608 0.271392
H14   H     H_    0.073578 0.833333 0.639289 0.258387
H15   H     H_    0.134029 0.676095 0.615115 0.223759
H16   H     H_    0.132082 0.756565 0.565160 0.205234
H17   H     H_    0.011434 0.207566 0.381893 0.271272
H18   H     H_    0.016902 0.148098 0.440088 0.255172
H19   H     H_    0.929553 0.121491 0.397615 0.255851
H20   H     H_    0.871274 0.224801 0.462820 0.202451
H21   H     H_    0.866868 0.285252 0.405557 0.217448
H22   H     H_    0.142163 0.986549 0.521663 0.258474
H23   H     H_    0.774647 0.625771 0.544990 0.154034
H24   H     H_    0.215132 0.945625 0.472766 0.266723
H25   H     H_    0.142432 0.864938 0.502180 0.241142
H26   H     H_    0.265909 0.825102 0.543979 0.185750
H27   H     H_    0.236148 0.918675 0.582746 0.196043
H28   H     H_    0.695530 0.064663 0.355336 0.272507
H29   H     H_    0.646720 0.176977 0.375849 0.260598
H30   H     H_    0.765653 0.165216 0.366888 0.252416
H31   H     H_    0.732487 0.160707 0.454679 0.186699
H32   H     H_    0.780397 0.054456 0.436097 0.200143
H33   H     H_    0.593638 0.797727 0.379217 0.251301
H34   H     H_    0.224893 0.373633 0.457830 0.152781
H35   H     H_    0.616942 0.906406 0.348007 0.267904
H36   H     H_    0.695360 0.806899 0.345452 0.261089
H37   H     H_    0.751265 0.928235 0.398856 0.224150
H38   H     H_    0.730084 0.828374 0.433582 0.192127
H39   H     H_    0.255546 0.231098 0.506832 0.255366
H40   H     H_    0.202096 0.122982 0.489570 0.261657
H41   H     H_    0.155059 0.198560 0.536770 0.254645
H42   H     H_    0.224911 0.071860 0.579740 0.215275
H43   H     H_    0.296897 0.165915 0.587362 0.187050
H44   H     H_    0.404238 0.756480 0.295248 0.263686
H45   H     H_    0.908084 0.691856 0.574622 0.163009
H46   H     H_    0.524272 0.774865 0.295340 0.261549
H47   H     H_    0.456068 0.818121 0.246443 0.266475
H48   H     H_    0.539501 0.672411 0.221349 0.223514
H49   H     H_    0.421134 0.654528 0.220819 0.222639
H50   H     H_    0.459461 0.225542 0.702061 0.258411
H51   H     H_    0.580558 0.235556 0.703465 0.261223
H52   H     H_    0.523406 0.176270 0.751241 0.266369
H53   H     H_    0.567882 0.336422 0.778393 0.219810
H54   H     H_    0.448577 0.326301 0.777113 0.226830
H55   H     H_    0.314801 0.728617 0.961376 0.254074
H56   H     H_    0.092865 0.294067 0.439045 0.167345
H57   H     H_    0.229586 0.691306 0.919279 0.297695
H58   H     H_    0.198786 0.732364 0.978846 0.246462
H59   H     H_    0.195147 0.552597 0.973717 0.245519
H60   H     H_    0.272523 0.601011 0.016521 0.215996
H61   H     H_    0.769801 0.302815 0.081695 0.297822
H62   H     H_    0.684660 0.264907 0.039695 0.254091
H63   H     H_    0.800718 0.260773 0.022311 0.246390
H64   H     H_    0.727140 0.391586 0.984045 0.216006
H65   H     H_    0.804494 0.440585 0.026700 0.245444
H66   H     H_    0.615765 0.750683 0.458945 0.155964
H67   H     H_    0.386886 0.248783 0.543029 0.151577
H68   H     H_    0.386532 0.758122 0.542072 0.125747
N1    N     N_R   0.507472 0.479880 0.200682 -0.351558
N2    N     N_R   0.491821 0.515824 0.799394 -0.351472
N3    N     N_R   0.500000 0.750030 0.500000 -0.112004
N4    N     N_R   0.500000 0.249970 0.500000 -0.113195
O1    O     O_R   0.367850 0.580280 0.500010 -0.626444
O2    O     O_2   0.646908 0.537669 0.797547 -0.542155
O3    O     O_2   0.336828 0.500832 0.797361 -0.469978
O4    O     O_2   0.662129 0.498108 0.202664 -0.468539
O5    O     O_R   0.632150 0.419720 0.499990 -0.629198
O6    O     O_R   0.632150 0.580280 0.499990 -0.631440
O7    O     O_R   0.367850 0.419720 0.500010 -0.632113
O8    O     O_R   0.500010 0.580260 0.428760 -0.622649
O9    O     O_R   0.499990 0.419740 0.571240 -0.624544
O10   O     O_R   0.499990 0.580260 0.571240 -0.622513
O11   O     O_R   0.500010 0.419740 0.428760 -0.621450
O12   O     O_2   0.352839 0.455012 0.202577 -0.542772
Zn1   Zn    Zn3+2 0.500000 0.607200 0.500000 0.948680
Zn2   Zn    Zn3+2 0.500000 0.392800 0.500000 0.946149

loop_
_geom_bond_atom_site_label_1
_geom_bond_atom_site_label_2
_ccdc_geom_bond_type
C44   C49   A    
C38   N3    A    
O1    Zn1   S    
C63   C65   A    
C34   C56   A    
C23   C45   A    
C12   C22   S    
C27   C29   A    
C73   C74   S    
C53   C77   S    
C82   H48   S    
C52   C75   S    
C15   Cl4   S    
C72   H18   S    
C2    C57   A    
C81   H40   S    
C12   O6    A    
C20   H9    S    
C43   O2    S    
C27   C33   A    
C5    C9    A    
C74   H25   S    
C4    C63   A    
C1    O7    A    
C32   C36   A    
C35   C37   A    
C86   H59   S    
C85   H51   S    
C5    C11   A    
C70   H13   S    
C19   H8    S    
C3    C62   A    
C41   H2    S    
C1    O1    A    
C11   C86   S    
C58   C60   A    
C80   H43   S    
C79   H35   S    
C46   C52   A    
C33   C36   A    
C56   C78   A    
C40   H68   S    
C77   H37   S    
C88   H65   S    
C62   C64   A    
C21   H10   S    
C69   H15   S    
C58   C66   A    
O10   Zn1   S    
C28   C35   A    
C22   C25   A    
C78   H4    S    
C41   C46   A    
C23   C89   A    
C35   H56   S    
C88   H64   S    
C39   H67   S    
C55   O4    S    
C57   O3    S    
C17   O10   A    
C47   C53   A    
C43   N2    A    
C2    C34   A    
C84   H54   S    
C72   H17   S    
C73   H26   S    
C87   H57   S    
C62   H1    S    
C61   H5    S    
C85   H50   S    
C83   H46   S    
C81   H41   S    
C12   O5    A    
C54   C80   S    
C68   N2    S    
C74   H24   S    
C21   C32   A    
C59   C61   A    
C76   H30   S    
C65   C68   A    
C85   H52   S    
C47   C49   A    
C83   H47   S    
C42   N1    A    
C82   H49   S    
C65   C84   S    
C59   Cl1   S    
O7    Zn2   S    
C18   C67   A    
C79   H36   S    
C4    C61   A    
C8    C18   A    
C31   C37   A    
C71   H20   S    
C75   H31   S    
C77   H38   S    
C64   C66   A    
C19   C78   A    
C48   C54   A    
C75   C76   S    
C45   C67   A    
C29   C30   A    
C59   C68   A    
C15   C89   A    
C69   H16   S    
O11   Zn2   S    
C74   H22   S    
C41   N4    A    
C38   C47   A    
C77   C79   S    
C71   H21   S    
C26   H34   S    
C84   C85   S    
C63   H12   S    
C48   C50   A    
C64   C82   S    
C40   N3    A    
O9    Zn2   S    
C4    C17   S    
O6    Zn1   S    
C8    C10   A    
C88   C90   S    
C82   C83   S    
C7    C19   A    
C87   H58   S    
C13   C15   A    
C9    C34   A    
N3    Zn1   S    
O5    Zn2   S    
N4    Zn2   S    
C90   H62   S    
C52   C53   A    
C44   C51   A    
C84   H53   S    
C16   O8    A    
C7    C9    A    
C79   H33   S    
C14   Cl3   S    
C86   C87   S    
C76   H29   S    
C26   C28   A    
C51   C73   S    
C20   C22   A    
C80   C81   S    
C60   H6    S    
C70   H11   S    
C25   H23   S    
C6    C10   A    
C5    C8    A    
C81   H39   S    
C6    C7    A    
C42   O12   S    
C10   C23   A    
C25   C27   A    
C46   C50   A    
C73   H27   S    
C80   H42   S    
C75   H32   S    
C76   H28   S    
C51   C54   A    
C90   H63   S    
C37   C71   S    
C86   H60   S    
C38   H66   S    
C71   C72   S    
C55   C89   A    
C16   O11   A    
C70   H14   S    
C3    C60   A    
C6    C13   A    
C30   C32   A    
C24   C26   A    
C57   N2    A    
C39   N4    A    
C72   H19   S    
C13   C88   S    
C28   C30   A    
C11   C14   A    
C66   N1    S    
C36   C69   S    
C2    C14   A    
C69   C70   S    
C67   H3    S    
C55   N1    A    
C33   H45   S    
C43   C56   A    
C40   C44   A    
C1    C24   S    
C29   C31   A    
C49   C50   A    
C87   H55   S    
C21   C24   A    
C90   H61   S    
C58   Cl2   S    
O8    Zn1   S    
C42   C45   A    
C83   H44   S    
C3    C16   S    
C17   O9    A    
C39   C48   A    
C18   H7    S    
C20   C31   A    
