data_mof_unit_35216.cif
_audit_creation_date              2012-12-10T16:58:30-0500
_audit_creation_method            fapswitch 2.2
_symmetry_space_group_name_H-M    P1
_symmetry_Int_Tables_number       1
_space_group_crystal_system       triclinic
_cell_length_a                    7.804609
_cell_length_b                    8.548821
_cell_length_c                    23.420174
_cell_angle_alpha                 92.123938
_cell_angle_beta                  84.776205
_cell_angle_gamma                 93.508405
_cell_volume                      1552.41280189

loop_
_atom_site_label
_atom_site_type_symbol
_atom_type_description
_atom_site_fract_x
_atom_site_fract_y
_atom_site_fract_z
_atom_type_partial_charge
C1    C     C_R   0.545517 0.794572 0.498574 0.964786
C2    C     C_R   0.642524 0.453333 0.290955 0.618152
C3    C     C_R   0.361973 0.547140 0.768361 -0.198143
C4    C     C_R   0.638021 0.452824 0.231641 -0.198121
C5    C     C_R   0.511424 0.504638 0.791543 0.017533
C6    C     C_R   0.488582 0.495345 0.208459 0.017518
C7    C     C_2   0.569626 0.957997 0.497738 -0.341975
C8    C     C_2   0.430374 0.042003 0.502262 -0.341974
C9    C     C_R   0.500678 0.501398 0.610648 0.964590
C10   C     C_R   0.499320 0.498599 0.389352 0.964594
C11   C     C_R   0.438798 0.363590 0.118799 0.618867
C12   C     C_R   0.454483 0.205428 0.501426 0.964784
C13   C     C_R   0.561216 0.636392 0.881204 0.618886
C14   C     C_R   0.532631 0.635397 0.121015 0.621462
C15   C     C_R   0.467372 0.364584 0.878986 0.621431
C16   C     C_R   0.540022 0.639641 0.061156 -0.159192
C17   C     C_R   0.459974 0.360349 0.938847 -0.159207
C18   C     C_R   0.495964 0.500302 0.030102 -0.091603
C19   C     C_R   0.504031 0.499691 0.969901 -0.091595
C20   C     C_R   0.444109 0.361354 0.059110 -0.096315
C21   C     C_R   0.555895 0.638634 0.940892 -0.096322
C22   C     C_R   0.591616 0.777574 0.031538 0.664731
C23   C     C_R   0.655812 0.463019 0.755911 0.749350
C24   C     C_R   0.408379 0.222418 0.968464 0.664723
C25   C     C_R   0.599387 0.776439 0.971975 -0.166661
C26   C     C_R   0.400616 0.223551 0.028028 -0.166665
C27   C     C_1   0.212948 0.590871 0.805312 0.423550
C28   C     C_1   0.787006 0.409044 0.194687 0.423544
C29   C     C_1   0.026665 0.349017 0.446685 0.453093
C30   C     C_1   0.973335 0.650984 0.553315 0.453095
C31   C     C_R   0.344192 0.536970 0.244090 0.749336
C32   C     C_R   0.651744 0.462969 0.696878 -0.344839
C33   C     C_R   0.348235 0.537000 0.303122 -0.344771
C34   C     C_R   0.502701 0.503760 0.672972 -0.287880
C35   C     C_R   0.497290 0.496223 0.327029 -0.287917
C36   C     C_R   0.357475 0.546647 0.709047 0.618175
F1    F     F_    0.635450 0.913898 0.059647 -0.605819
F2    F     F_    0.364547 0.086092 0.940354 -0.605811
F3    F     F_    0.799600 0.421453 0.778662 -0.619724
F4    F     F_    0.200411 0.578548 0.221339 -0.619715
F5    F     F_    0.212526 0.589295 0.687007 -0.627960
F6    F     F_    0.787483 0.410697 0.312997 -0.627951
H1    H     H_    0.639505 0.884171 0.950322 0.237010
H2    H     H_    0.360503 0.115817 0.049680 0.237010
H3    H     H_    0.764822 0.429592 0.669973 0.228602
H4    H     H_    0.235140 0.570364 0.330027 0.228606
H5    H     H_    0.701331 0.008613 0.493407 0.182483
H6    H     H_    0.298669 0.991386 0.506593 0.182483
N1    N     N_R   0.484106 0.498689 0.147976 -0.344326
N2    N     N_R   0.515901 0.501292 0.852025 -0.344327
N3    N     N_2   0.950330 0.457950 0.484560 -0.169059
N4    N     N_2   0.049670 0.542050 0.515440 -0.169060
N5    N     N_1   0.093769 0.625969 0.834997 -0.092563
N6    N     N_1   0.906160 0.373919 0.164996 -0.092595
N7    N     N_1   0.088398 0.257416 0.414803 -0.196800
N8    N     N_1   0.911602 0.742585 0.585197 -0.196799
O1    O     O_R   0.389250 0.738570 0.503790 -0.625699
O2    O     O_2   0.609616 0.767989 0.852343 -0.483618
O3    O     O_2   0.574836 0.765488 0.152321 -0.430128
O4    O     O_2   0.425177 0.234483 0.847680 -0.430111
O5    O     O_R   0.610750 0.261430 0.496210 -0.625700
O6    O     O_R   0.678390 0.711620 0.493890 -0.641931
O7    O     O_R   0.321610 0.288380 0.506110 -0.641933
O8    O     O_R   0.355400 0.513520 0.588790 -0.557496
O9    O     O_R   0.644600 0.486480 0.411210 -0.557492
O10   O     O_R   0.644550 0.486570 0.578900 -0.648992
O11   O     O_R   0.355450 0.513430 0.421100 -0.648993
O12   O     O_2   0.390411 0.231993 0.147660 -0.483624
Zn1   Zn    Zn3+2 0.306930 0.518000 0.506610 0.986507
Zn2   Zn    Zn3+2 0.693070 0.482000 0.493390 0.986508

loop_
_geom_bond_atom_site_label_1
_geom_bond_atom_site_label_2
_ccdc_geom_bond_type
C2    C35   A    
O5    Zn2   S    
C2    C4    A    
C8    H6    S    
C7    H5    S    
C10   C35   S    
C11   N1    A    
N3    Zn2   S    
C1    O1    A    
C9    O8    A    
O8    Zn1   S    
C32   H3    S    
N4    Zn1   S    
C24   F2    S    
C5    C23   A    
C8    C12   S    
C16   C22   A    
C23   C32   A    
C25   H1    S    
C27   N5    T    
C6    C31   A    
C3    C5    A    
C26   H2    S    
C7    C8    D    
C10   O11   A    
C1    O6    A    
C14   O3    S    
O9    Zn2   S    
C36   F5    S    
O10   Zn2   S    
C20   C26   A    
C3    C36   A    
C2    F6    S    
C23   F3    S    
C3    C27   S    
C33   C35   A    
C24   C26   A    
C18   C19   A    
C34   C36   A    
C6    N1    S    
O1    Zn1   S    
C9    C34   S    
C11   C20   A    
C14   C16   A    
C5    N2    S    
C10   O9    A    
C14   N1    A    
C19   C21   A    
C31   C33   A    
C4    C28   S    
C13   C21   A    
N3    N4    D    
C17   C24   A    
O7    Zn1   S    
C12   O5    A    
C11   O12   S    
O6    Zn2   S    
C18   C20   A    
C16   C18   A    
C4    C6    A    
C29   N3    S    
C15   N2    A    
C15   C17   A    
C12   O7    A    
C28   N6    T    
C9    O10   A    
C21   C25   A    
C13   O2    S    
C29   N7    T    
C17   C19   A    
C31   F4    S    
C1    C7    S    
C22   F1    S    
C30   N8    T    
C15   O4    S    
C13   N2    A    
C33   H4    S    
C30   N4    S    
O11   Zn1   S    
C22   C25   A    
C32   C34   A    
