data_mof_unit_6571.cif
_audit_creation_date              2013-03-05T15:45:24-0500
_audit_creation_method            fapswitch 2.2
_symmetry_space_group_name_H-M    P1
_symmetry_Int_Tables_number       1
_space_group_crystal_system       triclinic
_cell_length_a                    29.389923
_cell_length_b                    17.23332
_cell_length_c                    19.252852
_cell_angle_alpha                 90.428531
_cell_angle_beta                  139.767564
_cell_angle_gamma                 89.449986
_cell_volume                      6297.97595194

loop_
_atom_site_label
_atom_site_type_symbol
_atom_site_description
_atom_site_fract_x
_atom_site_fract_y
_atom_site_fract_z
_atom_type_partial_charge
C1    C     C_R   0.175285 0.418912 0.812309 -0.157570
C2    C     C_R   0.818858 0.586370 0.188471 -0.102768
C3    C     C_R   0.810881 0.401414 0.199941 -0.128089
C4    C     C_R   0.187149 0.595762 0.804492 -0.138313
C5    C     C_R   0.688953 0.901873 0.800573 -0.165357
C6    C     C_R   0.313127 0.094998 0.194332 -0.103770
C7    C     C_R   0.312619 0.905583 0.195152 -0.119360
C8    C     C_R   0.676571 0.081983 0.812636 -0.131808
H1    H     H_    0.225213 0.447782 0.875614 0.146198
H2    H     H_    0.769702 0.555561 0.127284 0.147138
H3    H     H_    0.760436 0.430553 0.144118 0.162988
H4    H     H_    0.238201 0.567967 0.861356 0.155354
H5    H     H_    0.739456 0.930078 0.855772 0.150172
H6    H     H_    0.262690 0.066432 0.136480 0.150212
H7    H     H_    0.262987 0.936458 0.136693 0.149886
H8    H     H_    0.725834 0.051182 0.875502 0.148022
N1    N     N_R   0.127770 0.430660 0.707120 -0.063269
N2    N     N_R   0.872230 0.569340 0.292880 -0.063480
N3    N     N_R   0.872230 0.430660 0.292880 -0.067570
N4    N     N_R   0.127770 0.569340 0.707120 -0.069721
N5    N     N_R   0.627770 0.930660 0.707120 -0.063369
N6    N     N_R   0.372230 0.069340 0.292880 -0.066327
N7    N     N_R   0.372230 0.930660 0.292880 -0.065732
N8    N     N_R   0.627770 0.069340 0.707120 -0.065308
C9    C     C_R   0.840564 0.597513 0.440305 -0.057052
C10   C     C_R   0.140939 0.420698 0.520753 -0.068012
C11   C     C_R   0.157883 0.598267 0.557021 0.000554
C12   C     C_R   0.833369 0.392635 0.415999 -0.076952
C13   C     C_R   0.337769 0.100851 0.432549 -0.079156
C14   C     C_R   0.642027 0.918449 0.522658 -0.072377
C15   C     C_R   0.654560 0.095187 0.548771 0.000068
C16   C     C_R   0.358649 0.919180 0.478339 -0.067907
H9    H     H_    0.794090 0.564521 0.397705 0.164489
H10   H     H_    0.187546 0.451614 0.560601 0.121509
H11   H     H_    0.209314 0.572992 0.607939 0.128688
H12   H     H_    0.782977 0.421273 0.362326 0.171632
H13   H     H_    0.289307 0.070440 0.384185 0.167155
H14   H     H_    0.690004 0.946696 0.564288 0.121556
H15   H     H_    0.703306 0.066392 0.593409 0.152114
H16   H     H_    0.312009 0.949819 0.441064 0.133597
N9    N     N_R   0.889730 0.573880 0.452970 -0.068995
N10   N     N_R   0.110270 0.426120 0.547030 -0.063517
N11   N     N_R   0.110270 0.573880 0.547030 -0.070363
N12   N     N_R   0.889730 0.426120 0.452970 -0.066688
N13   N     N_R   0.389730 0.073880 0.452970 -0.071116
N14   N     N_R   0.610270 0.926120 0.547030 -0.063648
N15   N     N_R   0.610270 0.073880 0.547030 -0.073526
N16   N     N_R   0.389730 0.926120 0.452970 -0.056848
C17   C     C_R   0.917529 0.305589 0.503886 -0.073065
C18   C     C_R   0.072146 0.685632 0.464962 0.023218
C19   C     C_R   0.053456 0.337356 0.423225 -0.003507
C20   C     C_R   0.920161 0.689574 0.520158 -0.001385
C21   C     C_R   0.442696 0.829586 0.566643 0.049868
C22   C     C_R   0.568546 0.181845 0.455545 0.006338
C23   C     C_R   0.554636 0.835200 0.425707 -0.011384
C24   C     C_R   0.418281 0.191168 0.514826 -0.004845
H17   H     H_    0.944315 0.251919 0.525542 0.217652
H18   H     H_    0.045806 0.740822 0.432835 0.180131
H19   H     H_    0.015915 0.293188 0.366726 0.168337
H20   H     H_    0.943209 0.746296 0.542913 0.189241
H21   H     H_    0.474328 0.778339 0.611279 0.166902
H22   H     H_    0.536817 0.233096 0.411731 0.169927
H23   H     H_    0.518606 0.789306 0.372052 0.168978
H24   H     H_    0.440660 0.247970 0.535123 0.192858
N17   N     N_R   0.941150 0.372910 0.507880 -0.075958
N18   N     N_R   0.058850 0.627090 0.492120 -0.072868
N19   N     N_R   0.058850 0.372910 0.492120 -0.052597
N20   N     N_R   0.941150 0.627090 0.507880 -0.076075
N21   N     N_R   0.441150 0.872910 0.507880 -0.072283
N22   N     N_R   0.558850 0.127090 0.492120 -0.065204
N23   N     N_R   0.558850 0.872910 0.492120 -0.060330
N24   N     N_R   0.441150 0.127090 0.507880 -0.077288
C25   C     C_R   0.105741 0.691168 0.718809 0.333193
C26   C     C_R   0.890792 0.304758 0.287913 0.298368
C27   C     C_R   0.898294 0.684071 0.274760 0.336470
C28   C     C_R   0.093386 0.324055 0.725634 0.309628
C29   C     C_R   0.595631 0.178829 0.726014 0.335210
C30   C     C_R   0.391834 0.807606 0.282314 0.333520
C31   C     C_R   0.393276 0.191790 0.282035 0.322317
C32   C     C_R   0.609109 0.806094 0.714936 0.321117
N25   N     N_R   0.076340 0.631640 0.652210 -0.100171
N26   N     N_R   0.923660 0.368360 0.347790 -0.098339
N27   N     N_R   0.923660 0.631640 0.347790 -0.095701
N28   N     N_R   0.076340 0.368360 0.652210 -0.086233
N29   N     N_R   0.576340 0.131640 0.652210 -0.092769
N30   N     N_R   0.423660 0.868360 0.347790 -0.100473
N31   N     N_R   0.423660 0.131640 0.347790 -0.094619
N32   N     N_R   0.576340 0.868360 0.652210 -0.103761
C33   C     C_R   0.153421 0.355653 0.824936 -0.108895
C34   C     C_R   0.835246 0.655622 0.176164 -0.101627
C35   C     C_R   0.821426 0.324318 0.195545 -0.071639
C36   C     C_R   0.173649 0.669365 0.813569 -0.080035
C37   C     C_R   0.678214 0.825924 0.806307 -0.078694
C38   C     C_R   0.326278 0.168856 0.185961 -0.100672
C39   C     C_R   0.324205 0.830416 0.187023 -0.080031
C40   C     C_R   0.655905 0.147373 0.825426 -0.112509
C41   C     C_R   0.856817 0.672495 0.479193 0.106840
C42   C     C_R   0.102749 0.369607 0.435636 0.076562
C43   C     C_R   0.132234 0.666296 0.500403 0.150236
C44   C     C_R   0.848662 0.314635 0.443912 0.062222
C45   C     C_R   0.353649 0.175886 0.470291 0.111636
C46   C     C_R   0.603985 0.866755 0.438195 0.080999
C47   C     C_R   0.627480 0.161257 0.486618 0.120786
C48   C     C_R   0.392262 0.859326 0.551511 0.104236
Ni1   Ni    Ni4+2 0.119340 0.500000 0.625930 0.240887
Ni2   Ni    Ni4+2 0.880660 0.500000 0.374070 0.255278
Ni3   Ni    Ni4+2 0.619340 0.000000 0.625930 0.242280
Ni4   Ni    Ni4+2 0.380660 0.000000 0.374070 0.264084
Ni5   Ni    Ni4+2 0.000000 0.373980 0.500000 0.319361
Ni6   Ni    Ni4+2 0.000000 0.626020 0.500000 0.316399
Ni7   Ni    Ni4+2 0.500000 0.873980 0.500000 0.330053
Ni8   Ni    Ni4+2 0.500000 0.126020 0.500000 0.318916
C49   C     C_R   0.696878 0.174586 0.990371 -0.091556
C50   C     C_R   0.277296 0.822110 0.017069 -0.087010
C51   C     C_R   0.299432 0.230107 0.046812 -0.043687
C52   C     C_R   0.732513 0.813548 0.980885 -0.101660
C53   C     C_R   0.220104 0.677825 0.983029 -0.119981
C54   C     C_R   0.778980 0.294338 0.031988 -0.092138
C55   C     C_R   0.780701 0.665186 0.999735 -0.095586
C56   C     C_R   0.179185 0.297492 0.966710 -0.057796
C57   C     C_R   0.735051 0.221196 0.079702 0.003380
C58   C     C_R   0.244679 0.779817 0.927726 0.003717
C59   C     C_R   0.259223 0.280316 0.961669 -0.100517
C60   C     C_R   0.765552 0.768703 0.068169 -0.021881
C61   C     C_R   0.252372 0.720318 0.072066 -0.007786
C62   C     C_R   0.741569 0.247646 0.943836 -0.051235
C63   C     C_R   0.746425 0.709785 0.911023 -0.041626
C64   C     C_R   0.219722 0.246946 0.052512 -0.078864
H25   H     H_    0.734199 0.210360 0.134038 0.174474
H26   H     H_    0.240173 0.802948 0.870454 0.177109
H27   H     H_    0.273498 0.291898 0.924864 0.149182
H28   H     H_    0.773478 0.791405 0.129471 0.158777
H29   H     H_    0.256610 0.697307 0.129091 0.167050
H30   H     H_    0.743210 0.258286 0.890342 0.157048
H31   H     H_    0.737209 0.686846 0.848546 0.163339
H32   H     H_    0.205624 0.234574 0.089316 0.184352
C65   C     C_R   0.775465 0.280782 0.099118 0.116671
C66   C     C_R   0.216570 0.708157 0.911923 0.112899
C67   C     C_R   0.199292 0.313251 0.921987 0.130353
C68   C     C_R   0.790490 0.695609 0.077784 0.119514
C69   C     C_R   0.281047 0.791691 0.088425 0.105571
C70   C     C_R   0.700713 0.188421 0.923604 0.127064
C71   C     C_R   0.723370 0.783853 0.903239 0.106286
C72   C     C_R   0.279400 0.213994 0.091443 0.118342
C73   C     C_R   0.117479 0.352168 0.378343 -0.113858
C74   C     C_R   0.810185 0.727701 0.462361 -0.199769
C75   C     C_R   0.803098 0.253675 0.419513 -0.130286
C76   C     C_R   0.166296 0.711537 0.488672 -0.228996
C77   C     C_R   0.618663 0.848489 0.381176 -0.120763
C78   C     C_R   0.307223 0.231592 0.453732 -0.199753
C79   C     C_R   0.360273 0.817214 0.569405 -0.211916
C80   C     C_R   0.653159 0.195892 0.452292 -0.167807
C81   C     C_R   0.795561 0.843365 0.516750 -0.149620
C82   C     C_R   0.118754 0.255169 0.288276 -0.181818
C83   C     C_R   0.182545 0.737261 0.386694 -0.155751
C84   C     C_R   0.812534 0.173518 0.531313 -0.127473
C85   C     C_R   0.294109 0.345505 0.512452 -0.150810
C86   C     C_R   0.621287 0.750150 0.294075 -0.170999
C87   C     C_R   0.632172 0.252617 0.314709 -0.140738
C88   C     C_R   0.342453 0.798385 0.670756 -0.179061
C89   C     C_R   0.839777 0.789188 0.536199 0.304488
C90   C     C_R   0.082732 0.292803 0.300664 0.310876
C91   C     C_R   0.138639 0.713583 0.388544 0.366282
C92   C     C_R   0.836050 0.191761 0.492801 0.257151
C93   C     C_R   0.337526 0.291744 0.529497 0.299716
C94   C     C_R   0.584643 0.788097 0.305079 0.305871
C95   C     C_R   0.605787 0.225042 0.346576 0.345843
C96   C     C_R   0.385151 0.824473 0.666932 0.326096
C97   C     C_R   0.735628 0.719264 0.373067 0.328567
C98   C     C_R   0.178223 0.384686 0.419250 0.261945
C99   C     C_R   0.233076 0.740842 0.582785 0.328771
C100  C     C_R   0.732077 0.271018 0.351986 0.303076
C101  C     C_R   0.232526 0.223675 0.365210 0.333392
C102  C     C_R   0.678797 0.881678 0.421026 0.275105
C103  C     C_R   0.725535 0.189653 0.521557 0.335380
C104  C     C_R   0.295364 0.782927 0.478213 0.338246
C105  C     C_R   0.693016 0.766615 0.366067 -0.071628
C106  C     C_R   0.221157 0.335501 0.429081 -0.061446
C107  C     C_R   0.275789 0.767222 0.578877 -0.064915
C108  C     C_R   0.703514 0.242948 0.381176 -0.087562
C109  C     C_R   0.190625 0.270759 0.360186 -0.074169
C110  C     C_R   0.722660 0.832445 0.433048 -0.063907
C111  C     C_R   0.748218 0.203257 0.480197 -0.058105
C112  C     C_R   0.251214 0.761989 0.480875 -0.076259
N33   N     N_R   0.078138 0.768466 0.687772 0.227445
O1    O     O_R   0.089036 0.813774 0.753668 -0.320553
O2    O     O_R   0.047747 0.796216 0.597343 -0.325584
N34   N     N_R   0.919234 0.227659 0.326117 0.239510
O3    O     O_R   0.977901 0.215676 0.427618 -0.340448
O4    O     O_R   0.886417 0.168763 0.260727 -0.326246
N35   N     N_R   0.920905 0.762878 0.297608 0.209394
O5    O     O_R   0.919339 0.799846 0.237126 -0.356062
O6    O     O_R   0.939618 0.799320 0.375728 -0.333674
N36   N     N_R   0.071226 0.245451 0.707541 0.223235
O7    O     O_R   0.067111 0.200411 0.648441 -0.294523
O8    O     O_R   0.063593 0.215982 0.760137 -0.354025
N37   N     N_R   0.572740 0.257650 0.706944 0.224817
O9    O     O_R   0.578355 0.292903 0.773179 -0.306226
O10   O     O_R   0.558876 0.298245 0.635795 -0.322110
N38   N     N_R   0.417541 0.729506 0.315512 0.230023
O11   O     O_R   0.459168 0.709059 0.414252 -0.312660
O12   O     O_R   0.401641 0.679192 0.248899 -0.327831
N39   N     N_R   0.416342 0.270455 0.316778 0.228732
O13   O     O_R   0.388988 0.325696 0.247753 -0.334451
O14   O     O_R   0.460709 0.288304 0.417328 -0.355762
N40   N     N_R   0.585555 0.728409 0.677225 0.228181
O15   O     O_R   0.590047 0.697829 0.620699 -0.320656
O16   O     O_R   0.580318 0.682869 0.724415 -0.348816
H33   H     H_    0.664057 0.128835 0.972492 0.153056
H34   H     H_    0.301087 0.877306 0.032255 0.157306
H35   H     H_    0.346463 0.204472 0.078892 0.177799
H36   H     H_    0.712126 0.870215 0.971945 0.150061
H37   H     H_    0.196417 0.622544 0.967869 0.142565
H38   H     H_    0.811566 0.340107 0.049157 0.167839
H39   H     H_    0.801033 0.608374 0.009123 0.151920
H40   H     H_    0.131884 0.322940 0.933832 0.147920
N41   N     N_R   0.189055 0.467775 0.434094 0.232485
O17   O     O_R   0.243739 0.499138 0.468829 -0.364650
O18   O     O_R   0.136432 0.513128 0.388852 -0.359905
N42   N     N_R   0.703051 0.666313 0.287125 0.225077
O19   O     O_R   0.669007 0.606095 0.269814 -0.365074
O20   O     O_R   0.710139 0.676577 0.228867 -0.368868
N43   N     N_R   0.690965 0.317748 0.257300 0.231371
O21   O     O_R   0.698244 0.308637 0.199015 -0.395447
O22   O     O_R   0.653970 0.376212 0.237506 -0.351112
N44   N     N_R   0.257798 0.740507 0.682315 0.227973
O23   O     O_R   0.312584 0.698966 0.762982 -0.369052
O24   O     O_R   0.220350 0.773184 0.687503 -0.375546
N45   N     N_R   0.688116 0.965014 0.432922 0.234540
O25   O     O_R   0.742684 0.996828 0.467735 -0.383064
O26   O     O_R   0.634443 0.009592 0.384973 -0.382071
N46   N     N_R   0.199096 0.170868 0.278782 0.224770
O27   O     O_R   0.164728 0.111150 0.261675 -0.378830
O28   O     O_R   0.206710 0.179908 0.221071 -0.410068
N47   N     N_R   0.273661 0.772850 0.381744 0.231223
O29   O     O_R   0.309007 0.726476 0.382063 -0.341743
O30   O     O_R   0.224905 0.817361 0.298864 -0.381842
N48   N     N_R   0.776026 0.178632 0.635462 0.226032
O31   O     O_R   0.817776 0.118484 0.684820 -0.375016
O32   O     O_R   0.774604 0.224711 0.687644 -0.354399
N49   N     N_R   0.010533 0.273759 0.230128 0.237198
O33   O     O_R   0.987918 0.203576 0.192894 -0.331815
O34   O     O_R   0.965050 0.328790 0.190154 -0.399093
N50   N     N_R   0.914322 0.795060 0.634835 0.240366
O35   O     O_R   0.949666 0.735179 0.698102 -0.368581
O36   O     O_R   0.944333 0.862759 0.670334 -0.279470
N51   N     N_R   0.890405 0.145411 0.524238 0.252559
O37   O     O_R   0.885210 0.126734 0.452746 -0.296971
O38   O     O_R   0.937246 0.110152 0.616777 -0.267488
N52   N     N_R   0.067600 0.690302 0.288825 0.261232
O39   O     O_R   0.036450 0.634262 0.285112 -0.343342
O40   O     O_R   0.035300 0.721820 0.198743 -0.327861
N53   N     N_R   0.512703 0.768079 0.235047 0.242299
O41   O     O_R   0.491111 0.697321 0.200003 -0.311654
O42   O     O_R   0.466435 0.822521 0.193440 -0.388035
N54   N     N_R   0.412014 0.295892 0.628642 0.243453
O43   O     O_R   0.445637 0.235363 0.691032 -0.356226
O44   O     O_R   0.442991 0.363041 0.666454 -0.283324
N55   N     N_R   0.451714 0.860335 0.760649 0.255369
O45   O     O_R   0.504272 0.856117 0.778639 -0.388144
O46   O     O_R   0.462159 0.891573 0.833691 -0.333160
N56   N     N_R   0.530801 0.222939 0.268458 0.226482
O47   O     O_R   0.499816 0.156899 0.242863 -0.384480
O48   O     O_R   0.492619 0.283194 0.208058 -0.352989
H41   H     H_    0.318608 0.389515 0.573124 0.205185
H42   H     H_    0.594702 0.704728 0.234663 0.230354
H43   H     H_    0.595294 0.275623 0.234247 0.215035
H44   H     H_    0.361105 0.804473 0.745309 0.221761
H45   H     H_    0.819333 0.888674 0.575645 0.209120
H46   H     H_    0.091423 0.210771 0.227398 0.230012
H47   H     H_    0.162691 0.734421 0.310982 0.218105
H48   H     H_    0.842016 0.131489 0.595126 0.235480

loop_
_geom_bond_atom_site_label_1
_geom_bond_atom_site_label_2
_geom_bond_distance
_ccdc_geom_bond_type
C32   N40   1.426355 S    
C43   C76   1.422617 S    
N24   Ni8   1.847934 S    
C55   H39   1.083899 S    
C86   H42   1.079511 S    
C2    N2    1.331531 A    
N47   O30   1.301510 A    
C41   C74   1.479829 S    
C45   C78   1.483314 S    
N36   O8    1.300157 A    
C53   C66   1.396696 A    
C8    C40   1.382193 A    
C52   H36   1.084494 S    
N16   N21   1.338219 A    
N39   O13   1.300617 A    
N29   Ni8   1.895232 S    
C36   C66   1.404973 S    
C28   N28   1.326552 A    
C19   N19   1.352253 A    
N42   O20   1.301204 A    
N33   O1    1.300525 A    
C88   C107  1.403712 A    
N2    Ni2   1.834024 S    
C50   H34   1.084268 S    
C49   C70   1.395809 A    
C88   C96   1.390929 A    
N39   O14   1.298883 A    
C23   C46   1.392051 A    
C11   C43   1.370560 A    
C18   C43   1.359229 A    
C17   N17   1.329080 A    
C98   C106  1.401321 A    
C55   C68   1.395224 A    
C48   C79   1.428506 S    
N34   O4    1.300407 A    
C86   C105  1.410673 A    
C63   H31   1.083510 S    
C24   C45   1.390028 A    
N49   O33   1.301339 A    
C75   C92   1.408377 A    
C64   H32   1.082334 S    
N53   O41   1.301419 A    
N6    Ni4   1.834024 S    
N33   O2    1.299030 A    
C104  N47   1.440506 S    
C73   C90   1.411170 A    
C44   C75   1.475363 S    
N52   O40   1.301722 A    
C79   C96   1.406386 A    
C6    N6    1.333553 A    
C82   C109  1.410979 A    
C59   C67   1.393153 A    
C20   C41   1.392727 A    
C94   N53   1.435825 S    
C17   H17   1.067558 S    
N50   O35   1.301506 A    
C60   H28   1.084130 S    
C17   C44   1.372010 A    
C3    C35   1.378002 A    
C77   C102  1.407755 A    
N11   Ni1   1.844925 S    
C25   N25   1.322418 A    
N37   O10   1.299422 A    
C92   N51   1.436239 S    
N3    Ni2   1.821849 S    
C89   N50   1.437115 S    
C20   H20   1.076784 S    
C27   C34   1.382080 A    
C35   C65   1.415545 S    
N32   Ni7   1.895271 S    
C21   H21   1.076339 S    
N19   Ni5   1.847931 S    
N43   O21   1.301117 A    
C61   C69   1.389665 A    
N38   O11   1.298246 A    
C6    C38   1.379511 A    
N7    N30   1.449482 A    
N54   O44   1.301385 A    
N8    Ni3   1.821849 S    
N47   O29   1.300877 A    
C16   C48   1.379046 A    
C3    N3    1.335907 A    
C56   H40   1.083733 S    
C4    H4    1.079444 S    
C54   C65   1.394468 A    
N8    N29   1.449484 A    
C87   C108  1.400478 A    
C5    H5    1.080004 S    
C20   N20   1.342394 A    
N13   Ni4   1.832736 S    
C28   C33   1.384612 A    
C98   N41   1.448122 S    
C5    C37   1.374121 A    
C12   C44   1.388561 A    
C19   C42   1.396321 A    
C7    H7    1.079322 S    
N36   O7    1.300095 A    
N5    N32   1.459232 A    
C21   N21   1.331526 A    
C8    H8    1.078037 S    
C15   N15   1.331418 A    
N4    N25   1.449484 A    
N14   Ni3   1.832737 S    
N13   N24   1.347234 A    
C54   C62   1.372640 A    
C16   N16   1.330962 A    
C102  C110  1.400583 A    
N12   N17   1.338219 A    
C23   H23   1.071273 S    
C30   N38   1.430691 S    
C4    N4    1.332111 A    
C26   N26   1.328386 A    
C62   H30   1.084192 S    
C31   N31   1.323005 A    
N42   O19   1.301835 A    
N10   Ni1   1.832737 S    
C84   C111  1.397406 A    
C14   N14   1.331988 A    
N9    N20   1.347234 A    
C26   N34   1.435140 S    
N51   O38   1.301474 A    
C40   C70   1.415876 S    
C74   C89   1.416869 A    
N48   O32   1.301220 A    
C51   C59   1.369715 A    
N9    Ni2   1.832736 S    
N35   O5    1.300995 A    
C18   H18   1.072403 S    
N26   Ni5   1.895234 S    
C22   C47   1.375877 A    
N15   Ni3   1.844925 S    
C1    H1    1.077248 S    
C58   C66   1.389364 A    
C31   C38   1.377581 A    
N20   Ni6   1.847934 S    
C85   C93   1.391684 A    
N53   O42   1.301759 A    
C83   C112  1.399996 A    
N56   O48   1.301166 A    
N31   Ni8   1.895273 S    
C22   H22   1.074954 S    
C33   C67   1.413547 S    
N41   O17   1.300985 A    
C78   C93   1.416710 A    
C57   C65   1.394539 A    
C12   N12   1.339935 A    
N55   O46   1.301665 A    
C13   N13   1.332340 A    
N34   O3    1.299586 A    
N49   O34   1.301672 A    
C95   N56   1.435281 S    
C15   C47   1.382248 A    
C26   C35   1.375682 A    
C24   N24   1.345295 A    
C27   N35   1.428848 S    
N35   O6    1.299435 A    
N15   N22   1.338218 A    
C80   C103  1.407544 A    
N45   O25   1.300767 A    
C50   C69   1.397383 A    
C101  N46   1.435475 S    
N1    Ni1   1.834026 S    
C6    H6    1.079415 S    
C52   C71   1.395236 A    
C11   H11   1.080174 S    
C25   N33   1.428525 S    
C22   N22   1.337531 A    
C99   N44   1.440217 S    
C30   C39   1.378045 A    
N54   O43   1.301537 A    
C14   C46   1.381838 A    
C24   H24   1.075979 S    
N2    N27   1.459231 A    
N27   Ni6   1.895273 S    
C13   C45   1.377547 A    
C54   H38   1.084342 S    
C56   C67   1.395660 A    
C63   C71   1.393593 A    
N6    N31   1.459231 A    
N18   Ni6   1.848285 S    
C90   N49   1.435754 S    
C53   H37   1.084307 S    
C18   N18   1.330923 A    
N17   Ni5   1.848288 S    
N14   N23   1.347232 A    
N5    Ni3   1.834026 S    
N22   Ni8   1.848285 S    
C47   C80   1.462442 S    
C10   C42   1.381846 A    
C49   C57   1.382876 A    
C9    C41   1.381955 A    
C73   C98   1.409697 A    
N44   O24   1.301331 A    
C97   C105  1.405972 A    
N10   N19   1.347232 A    
N45   O26   1.301753 A    
C19   H19   1.072934 S    
C9    N9    1.328714 A    
N55   O45   1.301018 A    
C2    H2    1.078699 S    
C82   C90   1.402983 A    
C27   N27   1.324666 A    
C80   C95   1.417216 A    
C7    C39   1.374168 A    
C75   C100  1.409548 A    
C10   N10   1.330815 A    
C103  C111  1.396355 A    
N4    Ni1   1.821849 S    
C107  C112  1.416970 A    
C61   H29   1.083943 S    
C104  C112  1.388279 A    
C51   C72   1.393272 A    
C1    C33   1.384340 A    
C79   C104  1.401082 A    
C52   C60   1.370273 A    
N3    N26   1.449482 A    
C59   H27   1.084255 S    
N46   O28   1.300702 A    
N40   O15   1.299611 A    
C76   C91   1.409297 A    
C1    N1    1.332313 A    
C60   C68   1.391682 A    
C91   N52   1.445775 S    
C81   H45   1.082206 S    
C77   C94   1.410627 A    
N44   O23   1.301325 A    
C25   C36   1.374479 A    
C57   H25   1.082975 S    
C2    C34   1.379119 A    
C37   C71   1.410619 S    
C83   H47   1.080954 S    
N51   O37   1.301884 A    
C108  C111  1.416479 A    
C88   H44   1.081304 S    
N56   O47   1.301424 A    
C84   H48   1.077329 S    
C42   C73   1.488681 S    
N12   Ni2   1.844926 S    
N41   O18   1.300599 A    
C103  N48   1.442008 S    
C85   H41   1.082208 S    
C29   C40   1.383998 A    
C31   N39   1.434066 S    
N28   Ni5   1.895271 S    
C64   C72   1.393042 A    
C51   H35   1.084458 S    
N1    N28   1.459232 A    
C83   C91   1.383273 A    
C87   C95   1.393364 A    
C99   C107  1.394227 A    
C93   N54   1.435899 S    
N30   Ni7   1.895234 S    
N52   O39   1.300736 A    
C38   C72   1.409696 S    
C10   H10   1.073336 S    
C32   N32   1.327057 A    
C100  N43   1.439390 S    
C81   C110  1.397943 A    
C84   C92   1.384353 A    
N21   Ni7   1.848288 S    
C100  C108  1.409493 A    
C56   C64   1.379730 A    
N16   Ni4   1.844926 S    
C87   H43   1.081202 S    
C53   C61   1.373504 A    
C76   C99   1.402043 A    
C29   N29   1.327908 A    
N11   N18   1.338218 A    
C7    N7    1.328749 A    
N7    Ni4   1.821849 S    
N48   O31   1.301161 A    
N46   O27   1.301837 A    
C8    N8    1.334959 A    
C97   N42   1.436149 S    
N50   O36   1.301402 A    
C96   N55   1.442795 S    
N40   O16   1.300598 A    
C85   C106  1.396944 A    
C16   H16   1.078217 S    
N43   O22   1.301751 A    
N37   O9    1.300590 A    
C62   C70   1.392365 A    
C102  N45   1.448057 S    
C106  C109  1.410390 A    
C3    H3    1.079886 S    
C39   C69   1.406649 S    
C46   C77   1.485119 S    
C101  C109  1.408679 A    
C50   C58   1.373285 A    
C86   C94   1.401837 A    
C11   N11   1.330763 A    
C28   N36   1.429679 S    
N23   Ni7   1.847931 S    
C5    N5    1.331570 A    
N25   Ni6   1.895232 S    
C12   H12   1.077798 S    
N38   O12   1.300416 A    
C30   N30   1.326237 A    
C78   C101  1.425584 A    
C74   C97   1.424324 A    
C13   H13   1.073501 S    
C15   H15   1.072441 S    
C34   C68   1.410931 S    
C21   C48   1.368542 A    
C14   H14   1.072055 S    
C4    C36   1.374694 A    
C32   C37   1.373121 A    
C82   H46   1.079481 S    
C29   N37   1.430135 S    
C58   H26   1.083917 S    
C81   C89   1.392695 A    
C23   N23   1.349049 A    
C105  C110  1.410928 A    
C9    H9    1.076583 S    
C49   H33   1.083580 S    
C55   C63   1.378542 A    
