data_mof_unit_56735.cif
_audit_creation_date              2013-03-05T16:09:46-0500
_audit_creation_method            fapswitch 2.2
_symmetry_space_group_name_H-M    P1
_symmetry_Int_Tables_number       1
_space_group_crystal_system       triclinic
_cell_length_a                    12.746889
_cell_length_b                    10.881477
_cell_length_c                    9.975389
_cell_angle_alpha                 92.073469
_cell_angle_beta                  98.938208
_cell_angle_gamma                 93.278327
_cell_volume                      1363.17172257

loop_
_atom_site_label
_atom_site_type_symbol
_atom_site_description
_atom_site_fract_x
_atom_site_fract_y
_atom_site_fract_z
_atom_type_partial_charge
O1    O     O_R   0.499990 0.316750 0.614620 -0.589415
O2    O     O_R   0.500010 0.683250 0.385380 -0.573347
O3    O     O_R   0.499990 0.316780 0.385290 -0.557383
O4    O     O_R   0.500010 0.683220 0.614710 -0.576736
C1    C     C_R   0.498665 0.260144 0.497895 1.010423
C2    C     C_R   0.497415 0.739702 0.501749 0.983225
O5    O     O_R   0.346360 0.499970 0.595710 -0.546225
O6    O     O_R   0.653640 0.500030 0.404290 -0.565274
O7    O     O_R   0.346360 0.499990 0.366380 -0.565920
O8    O     O_R   0.653640 0.500010 0.633620 -0.555547
C3    C     C_R   0.298426 0.495947 0.470976 1.013252
C4    C     C_R   0.702139 0.496130 0.528433 0.963728
Zn1   Zn    Zn3+2 0.500000 0.499980 0.653120 1.100136
Zn2   Zn    Zn3+2 0.500000 0.500020 0.346880 1.114788
C5    C     C_R   0.816302 0.490233 0.546488 -0.310555
C6    C     C_R   0.185319 0.479689 0.447615 -0.283943
C7    C     C_R   0.025860 0.345877 0.386652 0.445449
C8    C     C_R   0.977119 0.620690 0.597260 0.480126
C9    C     C_R   0.137424 0.362674 0.406362 0.326163
C10   C     C_R   0.880687 0.577248 0.632389 0.302611
C11   C     C_R   0.127309 0.575540 0.485584 0.297878
C12   C     C_R   0.860452 0.413459 0.457562 0.315644
C13   C     C_R   0.022803 0.547662 0.505027 -0.189351
C14   C     C_R   0.968523 0.435076 0.446285 -0.209117
C15   C     C_R   0.456130 0.055336 0.377720 0.190533
C16   C     C_R   0.524804 0.944526 0.624417 0.200233
C17   C     C_R   0.453647 0.927508 0.381009 0.407446
C18   C     C_R   0.527511 0.071488 0.620865 0.407604
C19   C     C_R   0.490388 0.872089 0.503843 -0.345787
C20   C     C_R   0.496618 0.127265 0.496717 -0.366860
C21   C     C_R   0.589922 0.536255 0.090074 0.178993
C22   C     C_R   0.408875 0.468185 0.910637 0.161536
C23   C     C_R   0.589931 0.533631 0.946882 0.390927
C24   C     C_R   0.409295 0.466883 0.054211 0.417443
N1    N     N_R   0.499970 0.499970 0.857200 -0.194090
N2    N     N_R   0.500030 0.500030 0.142800 -0.192543
N3    N     N_R   0.796523 0.310047 0.388728 0.265169
O9    O     O_R   0.770534 0.306013 0.257239 -0.308806
O10   O     O_R   0.751060 0.230021 0.458670 -0.396282
N4    N     N_R   0.175546 0.698882 0.507931 0.234986
O11   O     O_R   0.137320 0.786002 0.432562 -0.381979
O12   O     O_R   0.253710 0.725803 0.606879 -0.319084
O13   O     O_3   0.855694 0.610317 0.757430 -0.608777
C25   C     C_3   0.909168 0.533203 0.853456 -0.106560
H1    H     H_    0.996779 0.538924 0.854152 0.180545
H2    H     H_    0.876672 0.435883 0.834725 0.171519
H3    H     H_    0.896992 0.563210 0.956824 0.212216
O14   O     O_3   0.201399 0.266979 0.385186 -0.638286
C26   C     C_3   0.185659 0.170194 0.472251 -0.089863
H4    H     H_    0.161219 0.201395 0.569853 0.164548
H5    H     H_    0.261714 0.125424 0.498132 0.166047
H6    H     H_    0.126195 0.099234 0.418987 0.218325
O15   O     O_3   0.976079 0.235219 0.330829 -0.579939
C27   C     C_3   0.983267 0.226538 0.190972 -0.131194
H7    H     H_    0.064068 0.203262 0.174679 0.163740
H8    H     H_    0.960665 0.312267 0.138785 0.152646
H9    H     H_    0.926881 0.150478 0.142504 0.211970
O16   O     O_3   0.036720 0.715968 0.675175 -0.545501
C28   C     C_3   0.984558 0.826505 0.655426 -0.098386
H10   H     H_    0.915520 0.828375 0.710889 0.173482
H11   H     H_    0.958735 0.842027 0.545726 0.162930
H12   H     H_    0.041283 0.904646 0.697340 0.187697
N5    N     N_R   0.411228 0.109707 0.254985 0.219846
O17   O     O_R   0.474540 0.156784 0.177083 -0.426186
O18   O     O_R   0.312604 0.079401 0.203504 -0.394087
N6    N     N_R   0.558822 0.892473 0.752383 0.189484
O19   O     O_R   0.487309 0.838917 0.814512 -0.420790
O20   O     O_R   0.648109 0.936308 0.824310 -0.425783
O21   O     O_3   0.405964 0.855620 0.267381 -0.551214
C29   C     C_3   0.470726 0.859313 0.164186 0.015643
H13   H     H_    0.466256 0.766278 0.113638 0.160690
H14   H     H_    0.556398 0.885701 0.201741 0.147458
H15   H     H_    0.439204 0.922859 0.085487 0.200913
O22   O     O_3   0.567179 0.141803 0.738997 -0.542941
C30   C     C_3   0.489377 0.144537 0.826132 -0.002291
H16   H     H_    0.405919 0.134142 0.771450 0.130884
H17   H     H_    0.499548 0.234487 0.883829 0.161457
H18   H     H_    0.501811 0.072782 0.902030 0.205295
N7    N     N_R   0.682818 0.587904 0.177543 0.243073
O23   O     O_R   0.775534 0.547242 0.168135 -0.375560
O24   O     O_R   0.678118 0.690828 0.246139 -0.433539
N8    N     N_R   0.310863 0.436908 0.823152 0.242143
O25   O     O_R   0.232065 0.508036 0.822075 -0.346724
O26   O     O_R   0.294448 0.328483 0.761710 -0.487491
O27   O     O_3   0.681583 0.567196 0.897392 -0.568925
C31   C     C_3   0.701904 0.696180 0.913030 0.037894
H19   H     H_    0.705516 0.731213 0.810999 0.218694
H20   H     H_    0.780750 0.718083 0.976256 0.180979
H21   H     H_    0.642995 0.746696 0.961794 0.145937
O28   O     O_3   0.315752 0.446124 0.106465 -0.561166
C32   C     C_3   0.267775 0.327472 0.067123 -0.085520
H22   H     H_    0.320681 0.262655 0.025776 0.172653
H23   H     H_    0.194656 0.334972 0.992231 0.168918
H24   H     H_    0.242099 0.286694 0.156853 0.233044

loop_
_geom_bond_atom_site_label_1
_geom_bond_atom_site_label_2
_geom_bond_distance
_ccdc_geom_bond_type
N6    O20   1.302711 A    
N5    O18   1.301009 A    
C6    C11   1.387351 A    
C17   C19   1.411332 A    
C30   H16   1.115142 S    
C18   O22   1.391089 S    
O27   C31   1.411164 S    
O5    C3    1.296231 A    
O1    C1    1.294700 A    
Zn1   N1    2.035841 S    
Zn2   N2    2.035841 S    
C31   H20   1.108801 S    
C15   N5    1.431785 S    
O4    Zn1   2.043967 S    
C23   O27   1.373112 S    
C23   N1    1.363431 A    
C8    O16   1.387179 S    
C5    C12   1.398859 A    
C26   H5    1.108689 S    
C13   C14   1.431115 A    
C21   C23   1.427663 A    
C29   H13   1.109008 S    
C8    C10   1.391605 A    
C17   O21   1.390497 S    
C25   H3    1.106844 S    
N4    O12   1.301107 A    
N6    O19   1.302159 A    
C28   H10   1.110623 S    
O2    C2    1.299472 A    
C25   H2    1.113288 S    
C5    C10   1.392205 A    
C27   H8    1.115133 S    
C28   H11   1.114531 S    
C7    C14   1.415826 A    
O22   C30   1.417499 S    
C8    C13   1.408411 A    
C16   N6    1.430639 S    
C22   N1    1.382694 A    
O4    C2    1.299784 A    
C32   H22   1.114516 S    
N7    O24   1.300417 A    
O7    Zn2   1.997900 S    
C31   H19   1.106337 S    
O16   C28   1.412644 S    
O15   C27   1.412401 S    
C12   N3    1.437752 S    
C31   H21   1.115349 S    
N7    O23   1.300997 A    
C22   C24   1.431966 A    
O13   C25   1.416687 S    
C24   O28   1.383962 S    
N3    O9    1.300489 A    
C32   H23   1.109155 S    
C30   H17   1.107985 S    
C3    C6    1.423979 S    
C4    C5    1.443719 S    
O6    C4    1.298637 A    
C26   H6    1.109632 S    
C29   H15   1.108578 S    
O7    C3    1.289289 A    
O3    Zn2   2.043967 S    
O8    C4    1.298578 A    
O14   C26   1.414170 S    
C26   H4    1.114755 S    
N8    O26   1.300378 A    
C11   C13   1.393741 A    
C12   C14   1.406650 A    
O1    Zn1   2.016763 S    
C7    O15   1.384536 S    
C10   O13   1.375117 S    
C25   H1    1.113865 S    
C1    C20   1.444253 S    
C15   C20   1.408632 A    
C27   H7    1.109171 S    
N4    O11   1.300758 A    
C28   H12   1.109346 S    
O6    Zn2   1.953173 S    
C9    O14   1.388764 S    
O3    C1    1.302557 A    
O8    Zn1   1.997899 S    
C21   N7    1.430632 S    
C15   C17   1.391198 A    
C22   N8    1.424566 S    
C16   C18   1.381868 A    
C18   C20   1.409722 A    
N3    O10   1.301070 A    
C32   H24   1.099251 S    
O28   C32   1.411895 S    
C11   N4    1.438913 S    
C6    C9    1.399458 A    
C7    C9    1.405426 A    
C24   N2    1.363946 A    
O21   C29   1.416346 S    
O2    Zn2   2.016763 S    
C30   H18   1.107979 S    
N5    O17   1.301532 A    
O5    Zn1   1.953174 S    
C2    C19   1.448053 S    
C16   C19   1.410064 A    
N8    O25   1.301624 A    
C21   N2    1.376808 A    
C29   H14   1.115612 S    
C27   H9    1.109223 S    
