data_mof_unit_29944.cif
_audit_creation_date              2013-03-05T15:48:42-0500
_audit_creation_method            fapswitch 2.2
_symmetry_space_group_name_H-M    P1
_symmetry_Int_Tables_number       1
_space_group_crystal_system       triclinic
_cell_length_a                    22.317378
_cell_length_b                    6.987285
_cell_length_c                    19.376704
_cell_angle_alpha                 89.999974
_cell_angle_beta                  99.222197
_cell_angle_gamma                 90.000559
_cell_volume                      2982.50620039

loop_
_atom_site_label
_atom_site_type_symbol
_atom_site_description
_atom_site_fract_x
_atom_site_fract_y
_atom_site_fract_z
_atom_type_partial_charge
O1    O     O_R   0.448420 0.506120 0.415750 -0.589782
O2    O     O_R   0.551580 0.006120 0.584250 -0.589781
O3    O     O_R   0.436490 0.174470 0.555610 -0.581708
O4    O     O_R   0.563510 0.674470 0.444390 -0.581712
C1    C     C_R   0.421135 0.344839 0.575598 0.951117
C2    C     C_R   0.578863 0.844840 0.424399 0.951122
O5    O     O_R   0.441310 0.176330 0.414520 -0.587109
O6    O     O_R   0.558690 0.676330 0.585480 -0.587113
O7    O     O_R   0.556430 0.007110 0.442150 -0.583109
O8    O     O_R   0.443570 0.507110 0.557850 -0.583107
C3    C     C_R   0.426984 0.345035 0.388400 0.919840
C4    C     C_R   0.573015 0.845037 0.611600 0.919837
O9    O     O_3   0.537770 0.339560 0.509230 -0.267648
O10   O     O_3   0.462230 0.839560 0.490770 -0.267645
V1    V     V_3+5 0.492990 0.064280 0.498290 1.191177
V2    V     V_3+5 0.507010 0.564280 0.501710 1.191169
C5    C     C_R   0.867563 0.966729 0.695416 -0.131714
C6    C     C_R   0.132440 0.466795 0.304583 -0.131717
H1    H     H_    0.954810 0.994081 0.759499 0.116899
H2    H     H_    0.045194 0.494149 0.240499 0.116899
H3    H     H_    0.785471 0.956871 0.580426 0.179950
H4    H     H_    0.214533 0.456967 0.419571 0.179921
H5    H     H_    0.886185 0.988834 0.647692 0.144465
H6    H     H_    0.113820 0.488931 0.352306 0.144460
C7    C     C_R   0.884549 0.940685 0.821552 -0.097830
C8    C     C_R   0.115451 0.440693 0.178448 -0.097831
C9    C     C_R   0.589504 0.825025 0.739941 -0.160501
C10   C     C_R   0.410493 0.324978 0.260059 -0.160496
C11   C     C_R   0.626035 0.826209 0.805164 -0.095714
C12   C     C_R   0.373962 0.326144 0.194837 -0.095714
C13   C     C_R   0.688520 0.853649 0.811165 -0.177806
C14   C     C_R   0.311478 0.353602 0.188836 -0.177806
C15   C     C_R   0.716467 0.881224 0.751329 0.096028
C16   C     C_R   0.283533 0.381214 0.248671 0.096028
C17   C     C_R   0.678443 0.881096 0.684253 0.088954
C18   C     C_R   0.321557 0.381108 0.315747 0.088959
C19   C     C_R   0.780746 0.908843 0.755834 0.090404
C20   C     C_R   0.219254 0.408849 0.244166 0.090400
C21   C     C_R   0.805048 0.937001 0.693107 0.143225
C22   C     C_R   0.194954 0.437047 0.306892 0.143237
C23   C     C_R   0.766969 0.935936 0.628310 -0.169197
C24   C     C_R   0.233034 0.436002 0.371689 -0.169203
C25   C     C_R   0.704803 0.908214 0.623839 -0.196311
C26   C     C_R   0.295199 0.408263 0.376160 -0.196311
C27   C     C_R   0.822022 0.910156 0.820124 -0.237590
C28   C     C_R   0.177977 0.410142 0.179877 -0.237591
C29   C     C_R   0.906808 0.969481 0.759025 -0.161077
C30   C     C_R   0.093194 0.469530 0.240974 -0.161076
C31   C     C_R   0.614705 0.852507 0.679145 -0.168010
C32   C     C_R   0.385294 0.352500 0.320855 -0.168021
H7    H     H_    0.807200 0.889588 0.869860 0.097192
H8    H     H_    0.192797 0.389544 0.130141 0.097195
H9    H     H_    0.541093 0.802373 0.736827 0.112433
H10   H     H_    0.458903 0.302308 0.263173 0.112454
H11   H     H_    0.713631 0.852461 0.863472 0.108249
H12   H     H_    0.286366 0.352398 0.136529 0.108250
H13   H     H_    0.605706 0.805088 0.851713 0.111838
H14   H     H_    0.394289 0.304993 0.148288 0.111844
H15   H     H_    0.677432 0.908507 0.572367 0.124262
H16   H     H_    0.322571 0.408573 0.427632 0.124263
C33   C     C_3   0.811969 0.762654 0.266915 -0.510128
C34   C     C_3   0.188038 0.262621 0.733104 -0.510142
C35   C     C_3   0.784757 0.108051 0.243752 -0.584531
C36   C     C_3   0.215237 0.608047 0.756244 -0.584498
C37   C     C_3   0.735406 0.095085 0.293357 0.484641
C38   C     C_3   0.264564 0.595054 0.706611 0.484689
H17   H     H_    0.856497 0.805617 0.297303 0.216635
H18   H     H_    0.143507 0.305554 0.702718 0.216646
H19   H     H_    0.776011 0.221112 0.203362 0.148831
H20   H     H_    0.224010 0.721106 0.796633 0.148857
H21   H     H_    0.828992 0.148472 0.275610 0.180910
H22   H     H_    0.170993 0.648479 0.724408 0.180893
H23   H     H_    0.760015 0.123054 0.346725 0.139523
H24   H     H_    0.239930 0.622918 0.653248 0.139573
C39   C     C_1   0.624841 0.856424 0.379372 -0.238566
C40   C     C_1   0.375153 0.356420 0.620621 -0.238603
C41   C     C_3   0.791940 0.911663 0.208292 0.346645
C42   C     C_3   0.208066 0.411672 0.791714 0.346604
C43   C     C_3   0.762605 0.741758 0.315391 0.147568
C44   C     C_3   0.237398 0.241705 0.684622 0.147516
C45   C     C_3   0.709343 0.887474 0.293945 0.071660
C46   C     C_3   0.290651 0.387467 0.706046 0.071583
C47   C     C_3   0.680745 0.836907 0.217927 -0.475690
C48   C     C_3   0.319259 0.336958 0.782067 -0.475752
C49   C     C_3   0.729131 0.847602 0.168045 -0.413791
C50   C     C_3   0.270882 0.347679 0.831960 -0.413753
C51   C     C_1   0.662924 0.870189 0.341254 0.076454
C52   C     C_1   0.337067 0.370183 0.658736 0.076468
C53   C     C_1   0.837739 0.926159 0.160178 -0.020094
C54   C     C_1   0.162269 0.426166 0.839832 -0.020087
C55   C     C_1   0.875430 0.938508 0.121428 -0.299337
C56   C     C_1   0.124576 0.438513 0.878579 -0.299335
H25   H     H_    0.733553 0.704361 0.144302 0.157200
H26   H     H_    0.266473 0.204461 0.855724 0.157209
H27   H     H_    0.713793 0.947076 0.124035 0.155860
H28   H     H_    0.286221 0.447217 0.875949 0.155865
H29   H     H_    0.660838 0.693724 0.216614 0.178265
H30   H     H_    0.339166 0.193779 0.783395 0.178232
H31   H     H_    0.819185 0.621165 0.243107 0.152435
H32   H     H_    0.180829 0.121145 0.756925 0.152446
H33   H     H_    0.743078 0.595414 0.306902 0.133962
H34   H     H_    0.256933 0.095381 0.693127 0.134041
H35   H     H_    0.640480 0.926073 0.199181 0.186705
H36   H     H_    0.359532 0.426110 0.800795 0.186646
O11   O     O_R   0.056480 0.288780 0.942210 -0.589085
O12   O     O_R   0.943520 0.788780 0.057790 -0.589086
O13   O     O_R   0.058700 0.616820 0.085490 -0.590085
O14   O     O_R   0.941300 0.116820 0.914510 -0.590082
C57   C     C_R   0.073099 0.448402 0.111642 0.921407
C58   C     C_R   0.926901 0.948400 0.888358 0.921411
O15   O     O_R   0.063520 0.618570 0.944410 -0.590910
O16   O     O_R   0.936480 0.118570 0.055590 -0.590911
O17   O     O_R   0.948420 0.787670 0.915740 -0.587114
O18   O     O_R   0.051580 0.287670 0.084260 -0.587116
C59   C     C_R   0.078921 0.449657 0.924172 0.977868
C60   C     C_R   0.921081 0.949656 0.075831 0.977869
O19   O     O_3   0.962260 0.453430 0.990800 -0.273485
O20   O     O_3   0.037740 0.953430 0.009200 -0.273487
V3    V     V_3+5 0.007000 0.728750 0.001710 1.164530
V4    V     V_3+5 0.993000 0.228750 0.998290 1.164529
O21   O     O_3   0.688430 0.235747 0.284756 -0.626161
C61   C     C_3   0.668638 0.299111 0.215549 0.318912
H37   H     H_    0.673315 0.194781 0.174341 0.088410
H38   H     H_    0.696656 0.421900 0.204692 0.074838
C62   C     C_3   0.601951 0.355035 0.207900 -0.967605
H39   H     H_    0.594779 0.458500 0.249326 0.267908
H40   H     H_    0.587082 0.421129 0.155856 0.212269
H41   H     H_    0.573890 0.225962 0.212792 0.251711
O22   O     O_3   0.311513 0.735806 0.715153 -0.626145
C63   C     C_3   0.331371 0.799140 0.784353 0.318994
H42   H     H_    0.326729 0.694819 0.825578 0.088316
H43   H     H_    0.303364 0.921912 0.795255 0.074764
C64   C     C_3   0.398057 0.855084 0.791907 -0.967396
H44   H     H_    0.405162 0.958709 0.750497 0.267843
H45   H     H_    0.412996 0.921005 0.843970 0.212224
H46   H     H_    0.426108 0.726046 0.786899 0.251728
N1    N     N_R   0.789229 0.755863 0.389689 0.239685
O23   O     O_R   0.825960 0.894537 0.412821 -0.418047
O24   O     O_R   0.779488 0.620139 0.432518 -0.381154
N2    N     N_R   0.210767 0.255725 0.610323 0.239689
O25   O     O_R   0.174012 0.394326 0.587178 -0.418036
O26   O     O_R   0.220520 0.119967 0.567512 -0.381097

loop_
_geom_bond_atom_site_label_1
_geom_bond_atom_site_label_2
_geom_bond_distance
_ccdc_geom_bond_type
C48   C50   1.562186 S    
C12   C14   1.393886 A    
C35   C37   1.576207 S    
O12   V3    1.963988 S    
C9    C11   1.389837 A    
C23   C25   1.389721 A    
O14   V4    1.994470 S    
C49   H25   1.112501 S    
O1    C3    1.302033 A    
O2    C4    1.302031 A    
C2    O7    1.307559 A    
C4    C31   1.480201 S    
O3    V1    1.966023 S    
C2    C39   1.451774 S    
C21   C23   1.398812 A    
H4    C24   1.084229 S    
C42   C54   1.493183 S    
O5    C3    1.302336 A    
N1    O24   1.301200 A    
C41   C53   1.493182 S    
C5    H5    1.083916 S    
C47   H35   1.105897 S    
C6    H6    1.083920 S    
C34   C44   1.564955 S    
N2    O26   1.301220 A    
O19   V3    2.162112 S    
O10   V1    1.710521 S    
H1    C29   1.083551 S    
C27   H7    1.077509 S    
C38   H24   1.107757 S    
C28   H8    1.077513 S    
C33   C43   1.564947 S    
C37   H23   1.107747 S    
C55   C60   1.453684 S    
O15   V3    1.966062 S    
C5    C21   1.404143 A    
C6    C22   1.404145 A    
O20   V3    1.710079 S    
C50   H26   1.112502 S    
O17   V3    1.988857 S    
C10   C32   1.397620 A    
C35   H19   1.107122 S    
C33   C41   1.552863 S    
C17   C31   1.424073 A    
C62   H41   1.110652 S    
C13   C15   1.414976 A    
O11   V4    1.963980 S    
C36   H20   1.107144 S    
C53   C55   1.217046 T    
C17   C25   1.404664 A    
C40   C52   1.215876 T    
C61   C62   1.522818 S    
C8    C30   1.395741 A    
C38   O22   1.427190 S    
C42   C50   1.556591 S    
C22   C24   1.398813 A    
C41   C49   1.556599 S    
O6    V2    1.994460 S    
O13   C57   1.301031 A    
C33   H31   1.113527 S    
C24   C26   1.389723 A    
O13   V3    1.994478 S    
C45   C47   1.549360 S    
O11   C59   1.301027 A    
N2    O25   1.301524 A    
C44   C46   1.569689 S    
H3    C23   1.084226 S    
O19   V4    1.710091 S    
C43   C45   1.569701 S    
C10   H10   1.084013 S    
C44   N2    1.470104 S    
C15   C19   1.436185 A    
C44   H34   1.113339 S    
C36   C38   1.576177 S    
O4    V2    1.966014 S    
C63   H43   1.101606 S    
C38   C46   1.563643 S    
C33   H17   1.112112 S    
C54   C56   1.217048 T    
C8    C57   1.476417 S    
O6    C4    1.302337 A    
O1    V2    1.987736 S    
C45   C51   1.494138 S    
C62   H40   1.110447 S    
O2    V1    1.987742 S    
C58   O17   1.300678 A    
O21   C61   1.414043 S    
H2    C30   1.083550 S    
C50   H28   1.110820 S    
C57   O18   1.300679 A    
C64   H46   1.110736 S    
C34   H32   1.113522 S    
C7    C58   1.476416 S    
O4    C2    1.314183 A    
C43   N1    1.470094 S    
C11   H13   1.082748 S    
C37   O21   1.427207 S    
O9    V1    2.162277 S    
C62   H39   1.110751 S    
C48   H36   1.105891 S    
O10   V2    2.162294 S    
C18   C26   1.404666 A    
C63   C64   1.522918 S    
C19   C27   1.425713 A    
C7    C27   1.407514 A    
O16   C60   1.306945 A    
C18   C32   1.424074 A    
O16   V4    1.966053 S    
O22   C63   1.414087 S    
C35   C41   1.554372 S    
C39   C51   1.215877 T    
C7    C29   1.395735 A    
C47   C49   1.562189 S    
C16   C20   1.436185 A    
C36   C42   1.554346 S    
C34   C42   1.552884 S    
C5    C29   1.393059 A    
C35   H21   1.113586 S    
O3    C1    1.314181 A    
C6    C30   1.393059 A    
C9    H9    1.084014 S    
C25   H15   1.082861 S    
N1    O23   1.301517 A    
C46   C48   1.549374 S    
C34   H18   1.112105 S    
C48   H30   1.093268 S    
C1    C40   1.451774 S    
C10   C12   1.389839 A    
C63   H42   1.098492 S    
O7    V1    1.959872 S    
C1    O8    1.307560 A    
C11   C13   1.393885 A    
C3    C32   1.480203 S    
O8    V2    1.959864 S    
C20   C22   1.421798 A    
C49   H27   1.110815 S    
C64   H44   1.110868 S    
C26   H16   1.082862 S    
C46   C52   1.494134 S    
C12   H14   1.082749 S    
O5    V1    1.994468 S    
C15   C17   1.433820 A    
O14   C58   1.301033 A    
C16   C18   1.433824 A    
C36   H22   1.113595 S    
C56   C59   1.453686 S    
O20   V4    2.162129 S    
C20   C28   1.425715 A    
C8    C28   1.407518 A    
C19   C21   1.421796 A    
C47   H29   1.093301 S    
O9    V2    1.710533 S    
O12   C60   1.301027 A    
C64   H45   1.110493 S    
C37   C45   1.563625 S    
C43   H33   1.113364 S    
O15   C59   1.306943 A    
C13   H11   1.076732 S    
C61   H37   1.098449 S    
C61   H38   1.101589 S    
C14   H12   1.076732 S    
O18   V4    1.988853 S    
C9    C31   1.397614 A    
C14   C16   1.414981 A    
