data_mof_unit_38874.cif
_audit_creation_date              2012-12-10T17:47:51-0500
_audit_creation_method            fapswitch 2.2
_symmetry_space_group_name_H-M    P1
_symmetry_Int_Tables_number       1
_space_group_crystal_system       triclinic
_cell_length_a                    14.699488
_cell_length_b                    14.631743
_cell_length_c                    14.352989
_cell_angle_alpha                 77.803332
_cell_angle_beta                  102.560079
_cell_angle_gamma                 114.817839
_cell_volume                      2709.67622899

loop_
_atom_site_label
_atom_site_type_symbol
_atom_type_description
_atom_site_fract_x
_atom_site_fract_y
_atom_site_fract_z
_atom_type_partial_charge
C1    C     C_R   0.880149 0.312046 0.514879 0.791296
C2    C     C_R   0.119904 0.687883 0.483400 0.790354
C3    C     C_R   0.642088 0.072848 0.490332 0.084599
C4    C     C_R   0.362811 0.917469 0.454468 0.081981
C5    C     C_R   0.680417 0.997027 0.535167 0.110489
C6    C     C_R   0.325255 0.990663 0.399611 0.111124
C7    C     C_R   0.536935 0.044412 0.454697 0.049769
C8    C     C_R   0.469169 0.942571 0.476287 0.048205
C9    C     C_R   0.509709 0.868315 0.516453 -0.280181
C10   C     C_R   0.497910 0.114149 0.396043 -0.284620
C11   C     C_R   0.613647 0.893633 0.543614 -0.016645
C12   C     C_R   0.394075 0.087904 0.366557 -0.022703
C13   C     C_R   0.709661 0.654953 0.332358 -0.311649
C14   C     C_R   0.270172 0.315006 0.637656 -0.307742
C15   C     C_R   0.794838 0.632514 0.364976 0.067174
C16   C     C_R   0.194667 0.352318 0.619278 0.083071
C17   C     C_R   0.714114 0.509393 0.489449 0.029084
C18   C     C_R   0.288703 0.493152 0.514713 0.037358
C19   C     C_R   0.622026 0.523391 0.455957 0.005693
C20   C     C_R   0.364464 0.454423 0.523537 -0.008944
C21   C     C_R   0.623234 0.600863 0.377614 0.114825
C22   C     C_R   0.354950 0.365483 0.589703 0.110195
C23   C     C_R   0.000075 0.499943 0.668905 0.813405
C24   C     C_R   0.999958 0.500108 0.331091 0.814939
C25   C     C_R   0.530948 0.466502 0.498401 -0.026665
C26   C     C_R   0.448664 0.500483 0.470509 -0.031745
C27   C     C_R   0.450960 0.574400 0.387143 0.221265
C28   C     C_R   0.515895 0.373944 0.562980 0.218385
C29   C     C_R   0.537961 0.622913 0.342860 -0.228382
C30   C     C_R   0.428066 0.325176 0.605980 -0.238989
C31   C     C_1   0.000172 0.499890 0.771283 -0.210626
C32   C     C_1   0.999948 0.500262 0.228714 -0.200844
C33   C     C_1   0.000168 0.499938 0.856680 -0.017082
C34   C     C_1   0.000049 0.500270 0.143328 -0.012559
C35   C     C_1   0.000160 0.500061 0.957319 -0.004275
C36   C     C_1   0.000133 0.500175 0.042701 -0.003460
C37   C     C_R   0.812624 0.203761 0.521937 -0.054138
C38   C     C_R   0.188203 0.794805 0.462168 -0.052417
C39   C     C_R   0.784270 0.026912 0.572798 -0.205950
C40   C     C_R   0.219617 0.964921 0.379844 -0.202081
C41   C     C_R   0.849703 0.128808 0.564603 -0.196158
C42   C     C_R   0.151908 0.867530 0.409534 -0.202026
C43   C     C_R   0.709518 0.175639 0.486644 -0.243901
C44   C     C_R   0.292532 0.821545 0.487707 -0.244202
Cu1   Cu    Cu3+1 0.081740 0.475690 0.523180 0.931564
Cu2   Cu    Cu3+1 0.918260 0.524310 0.476820 0.922369
H1    H     H_    0.317023 0.765900 0.534973 0.148060
H2    H     H_    0.682890 0.235825 0.459326 0.160630
H3    H     H_    0.071298 0.848699 0.389728 0.147759
H4    H     H_    0.928994 0.149013 0.594005 0.147784
H5    H     H_    0.815901 0.972383 0.610800 0.149494
H6    H     H_    0.188304 0.019435 0.340730 0.151254
H7    H     H_    0.462218 0.788339 0.523230 0.143316
H8    H     H_    0.547339 0.188676 0.367143 0.152668
H9    H     H_    0.538437 0.677455 0.278650 0.152576
H10   H     H_    0.415960 0.253299 0.652039 0.151926
H11   H     H_    0.295019 0.566040 0.475248 0.176790
H12   H     H_    0.725426 0.461692 0.554614 0.179425
H13   H     H_    0.127206 0.311255 0.653300 0.123257
H14   H     H_    0.860819 0.672058 0.328582 0.127101
H15   H     H_    0.710933 0.713372 0.271369 0.136653
H16   H     H_    0.261207 0.245818 0.687371 0.135258
N1    N     N_R   0.795420 0.560790 0.441960 -0.188994
N2    N     N_R   0.204580 0.439210 0.558040 -0.183107
O1    O     O_R   0.977910 0.338120 0.530560 -0.586092
O2    O     O_R   0.022090 0.661880 0.469440 -0.585734
O3    O     O_R   0.839850 0.379180 0.491410 -0.573016
O4    O     O_R   0.160150 0.620820 0.508590 -0.586958
O5    O     O_R   0.069040 0.479460 0.643530 -0.560335
O6    O     O_R   0.930960 0.520540 0.356470 -0.562043
O7    O     O_R   0.930990 0.520530 0.604380 -0.568576
O8    O     O_R   0.069010 0.479470 0.395620 -0.548853
C45   C     C_R   0.649072 0.809434 0.581664 0.113009
C46   C     C_R   0.606973 0.735934 0.658038 -0.151533
C47   C     C_R   0.640454 0.657077 0.694163 -0.130458
C48   C     C_R   0.716793 0.651433 0.655146 -0.107335
C49   C     C_R   0.758342 0.723465 0.578641 -0.124078
C50   C     C_R   0.723184 0.800785 0.540550 -0.162355
H17   H     H_    0.548894 0.740205 0.690138 0.126156
H18   H     H_    0.607780 0.600808 0.752955 0.130784
H19   H     H_    0.743304 0.590888 0.683751 0.123002
H20   H     H_    0.817314 0.718951 0.548281 0.144322
H21   H     H_    0.754779 0.854814 0.479995 0.131226
C51   C     C_R   0.360820 0.163565 0.298674 0.107333
C52   C     C_R   0.387151 0.260312 0.323409 -0.142078
C53   C     C_R   0.358794 0.332637 0.258187 -0.124729
C54   C     C_R   0.303985 0.309099 0.167811 -0.110656
C55   C     C_R   0.278029 0.213271 0.142275 -0.135893
C56   C     C_R   0.306776 0.140863 0.207136 -0.160093
H22   H     H_    0.429459 0.279601 0.393016 0.130308
H23   H     H_    0.379719 0.407023 0.277566 0.130640
H24   H     H_    0.282056 0.365248 0.117438 0.124972
H25   H     H_    0.236110 0.195275 0.072026 0.127268
H26   H     H_    0.287296 0.067307 0.186039 0.129994
N3    N     N_2   0.360825 0.586576 0.337158 -0.455712
H27   H     H_    0.320259 0.537324 0.287125 0.253809
C57   C     C_3   0.366012 0.689250 0.305815 -0.710111
H28   H     H_    0.288456 0.688353 0.293845 0.236647
H29   H     H_    0.397824 0.720488 0.237045 0.221262
H30   H     H_    0.412949 0.739070 0.361555 0.241299
N4    N     N_2   0.578655 0.319333 0.572188 -0.457375
H31   H     H_    0.544584 0.256266 0.536650 0.257155
C58   C     C_3   0.625841 0.297163 0.669127 -0.717893
H32   H     H_    0.685382 0.270547 0.665692 0.237427
H33   H     H_    0.569307 0.236347 0.712063 0.225282
H34   H     H_    0.662011 0.366530 0.705513 0.229005

loop_
_geom_bond_atom_site_label_1
_geom_bond_atom_site_label_2
_ccdc_geom_bond_type
C7    C10   A    
C39   H5    S    
C54   C55   A    
N4    H31   S    
C27   C29   A    
C45   C46   A    
C23   O5    A    
C27   N3    S    
C35   C36   T    
C4    C8    A    
C57   H28   S    
C24   O6    A    
C7    C8    A    
C39   C41   A    
C49   C50   A    
C25   C28   A    
C3    C43   A    
C26   C27   A    
C20   C26   A    
C19   C21   A    
Cu2   O2    S    
C3    C7    A    
C53   H23   S    
C6    C12   A    
C33   C35   S    
C14   H16   S    
C12   C51   S    
C15   H14   S    
C56   H26   S    
C1    O3    A    
C28   N4    S    
N3    H27   S    
C8    C9    A    
C1    O1    A    
C45   C50   A    
C31   C33   T    
C14   C16   A    
C47   H18   S    
C34   C36   S    
C44   H1    S    
C1    C37   S    
C17   H12   S    
C40   C42   A    
N4    C58   S    
C54   H24   S    
Cu1   O8    S    
C19   C25   A    
C50   H21   S    
C57   H29   S    
C46   C47   A    
Cu1   O5    S    
C23   O7    A    
C48   C49   A    
C4    C6    A    
C11   C45   S    
C53   C54   A    
C4    C44   A    
C3    C5    A    
C25   C26   A    
C52   C53   A    
C30   H10   S    
C16   H13   S    
C23   C31   S    
C37   C43   A    
C47   C48   A    
C24   C32   S    
C38   C44   A    
C2    C38   S    
C18   H11   S    
Cu1   O4    S    
C13   C21   A    
C58   H33   S    
C51   C52   A    
C9    C11   A    
Cu2   O7    S    
C10   C12   A    
C20   C22   A    
C46   H17   S    
C13   C15   A    
Cu1   O1    S    
C6    C40   A    
C9    H7    S    
C51   C56   A    
C41   H4    S    
C57   H30   S    
C24   O8    A    
C43   H2    S    
C55   H25   S    
C22   C30   A    
C2    O2    A    
C48   H19   S    
C52   H22   S    
N3    C57   S    
C5    C11   A    
C29   H9    S    
Cu1   N2    S    
C2    O4    A    
Cu2   N1    S    
C14   C22   A    
C5    C39   A    
Cu2   O3    S    
C40   H6    S    
C17   N1    A    
C18   N2    A    
C21   C29   A    
C49   H20   S    
C28   C30   A    
C17   C19   A    
C58   H34   S    
C18   C20   A    
C37   C41   A    
C10   H8    S    
Cu2   O6    S    
C42   H3    S    
C38   C42   A    
Cu1   Cu2   S    
C13   H15   S    
C55   C56   A    
C58   H32   S    
C15   N1    A    
C16   N2    A    
C32   C34   T    
