data_mof_unit_39243.cif
_audit_creation_date              2013-03-05T16:44:39-0500
_audit_creation_method            fapswitch 2.2
_symmetry_space_group_name_H-M    P1
_symmetry_Int_Tables_number       1
_space_group_crystal_system       triclinic
_cell_length_a                    27.42874
_cell_length_b                    10.58752
_cell_length_c                    9.920342
_cell_angle_alpha                 90.004108
_cell_angle_beta                  90.569645
_cell_angle_gamma                 90.672097
_cell_volume                      2880.54983734

loop_
_atom_site_label
_atom_site_type_symbol
_atom_site_description
_atom_site_fract_x
_atom_site_fract_y
_atom_site_fract_z
_atom_type_partial_charge
O1    O     O_R   0.500010 0.316790 0.614690 -0.625195
O2    O     O_R   0.500000 0.316760 0.385350 -0.629749
C1    C     C_R   0.501169 0.260697 0.499897 0.867117
O3    O     O_R   0.428760 0.500040 0.614660 -0.625977
O4    O     O_R   0.428750 0.500000 0.385310 -0.645485
C2    C     C_R   0.406143 0.500137 0.499288 0.825374
Zn1   Zn    Zn3+2 0.500000 0.500020 0.653130 0.950839
Zn2   Zn    Zn3+2 0.500000 0.499980 0.346870 0.960573
O5    O     O_R   0.500000 0.683240 0.614650 -0.617756
O6    O     O_R   0.499990 0.683210 0.385310 -0.594769
O7    O     O_R   0.571250 0.500000 0.614690 -0.617583
O8    O     O_R   0.571240 0.499960 0.385340 -0.596222
C3    C     C_R   0.500435 0.739389 0.499753 0.901414
C4    C     C_R   0.594065 0.498508 0.500951 0.979239
C5    C     C_R   0.174013 0.395526 0.445985 0.506900
O9    O     O_2   0.196619 0.322588 0.354696 -0.569759
N1    N     N_R   0.200250 0.480649 0.520830 -0.344813
C6    C     C_R   0.178656 0.558889 0.611495 0.496108
C7    C     C_R   0.274834 0.591473 0.453636 -0.101749
C8    C     C_R   0.325935 0.599801 0.447580 0.129064
C9    C     C_R   0.329987 0.389903 0.550456 -0.275344
C10   C     C_R   0.279594 0.383681 0.555853 -0.089514
C11   C     C_R   0.252043 0.484601 0.508416 0.271797
C12   C     C_R   0.100522 0.462993 0.557181 -0.077945
C13   C     C_R   0.123967 0.382078 0.465808 -0.006396
C14   C     C_R   0.096931 0.291140 0.394373 -0.139785
C15   C     C_R   0.127354 0.561114 0.622063 -0.076923
C16   C     C_R   0.353225 0.497117 0.497865 -0.076116
H1    H     H_    0.350922 0.310774 0.587202 0.130664
H2    H     H_    0.261852 0.301191 0.598510 0.145766
H3    H     H_    0.113655 0.232687 0.318479 0.188881
C17   C     C_R   0.646626 0.478794 0.506795 -0.201100
C18   C     C_R   0.974892 0.321558 0.552528 -0.013517
C19   C     C_R   0.973850 0.526581 0.670467 0.072036
C20   C     C_R   0.948866 0.422015 0.611000 0.060201
C21   C     C_R   0.949153 0.207073 0.521559 0.140688
C22   C     C_R   0.898394 0.210814 0.505938 -0.117751
C23   C     C_R   0.872571 0.318429 0.542396 -0.083766
C24   C     C_R   0.897432 0.420398 0.604132 -0.053487
C25   C     C_R   0.870939 0.523177 0.653595 -0.026032
C26   C     C_R   0.820459 0.525384 0.633648 0.598420
N2    N     N_R   0.797531 0.429548 0.564879 -0.332811
C27   C     C_R   0.822092 0.325754 0.521874 0.616332
C28   C     C_R   0.713587 0.378755 0.624659 0.328374
C29   C     C_R   0.664107 0.398227 0.608072 -0.288609
C30   C     C_R   0.679356 0.538528 0.417922 0.233264
C31   C     C_R   0.729579 0.517252 0.433422 0.267875
C32   C     C_R   0.746467 0.439007 0.538399 0.108257
O10   O     O_2   0.797772 0.231052 0.458523 -0.499152
C33   C     C_R   0.024491 0.343253 0.521145 0.052267
C34   C     C_R   0.050121 0.446162 0.581611 0.080664
C35   C     C_R   0.025498 0.533049 0.664088 -0.003851
C36   C     C_R   0.047775 0.273707 0.419893 -0.244192
H4    H     H_    0.639128 0.351163 0.676154 0.190449
H5    H     H_    0.878975 0.127687 0.469551 0.203429
H6    H     H_    0.027958 0.207310 0.356641 0.154530
O11   O     O_2   0.207204 0.626881 0.696546 -0.584803
C37   C     C_R   0.101979 0.652467 0.698608 0.195494
H7    H     H_    0.251984 0.667310 0.418265 0.147591
C38   C     C_R   0.945932 0.624668 0.726793 -0.217723
C39   C     C_R   0.895418 0.622917 0.717908 -0.107859
O12   O     O_2   0.794442 0.623343 0.680317 -0.492119
C40   C     C_R   0.052756 0.630311 0.727252 -0.211603
H8    H     H_    0.961835 0.707830 0.772500 0.139813
H9    H     H_    0.875708 0.702394 0.758098 0.200759
H10   H     H_    0.036168 0.693459 0.797741 0.150853
C41   C     C_R   0.542858 0.065110 0.545646 0.067467
C42   C     C_R   0.502333 0.128852 0.496619 -0.074062
C43   C     C_R   0.465718 0.064596 0.424591 -0.219782
H11   H     H_    0.436180 0.114546 0.376508 0.141965
C44   C     C_R   0.465755 0.934344 0.422716 -0.203562
H12   H     H_    0.436819 0.883597 0.370385 0.152346
C45   C     C_R   0.501626 0.871271 0.496436 -0.120698
C46   C     C_R   0.542030 0.936260 0.547210 0.119152
C47   C     C_3   0.568328 0.929139 0.679201 0.110288
C48   C     C_3   0.570511 0.073106 0.676106 -0.517125
H13   H     H_    0.545354 0.889929 0.761301 0.138468
H14   H     H_    0.549912 0.117892 0.758450 0.191317
H15   H     H_    0.607811 0.112786 0.662021 0.250227
C49   C     C_R   0.457274 0.499625 0.069216 0.084196
N3    N     N_R   0.499670 0.499140 0.142800 -0.114665
C50   C     C_R   0.542332 0.510291 0.072781 -0.071080
H16   H     H_    0.576645 0.516266 0.126727 0.197715
C51   C     C_R   0.542328 0.510820 0.929285 -0.114993
H17   H     H_    0.576621 0.517698 0.876885 0.184048
N4    N     N_R   0.499670 0.499180 0.857150 -0.109020
C52   C     C_R   0.457399 0.498520 0.928538 0.150323
C53   C     C_3   0.412896 0.414187 0.920250 -0.087492
C54   C     C_3   0.412001 0.417405 0.076331 -0.095812
H18   H     H_    0.381829 0.468742 0.878115 0.129725
H19   H     H_    0.380968 0.474250 0.113369 0.144739
C55   C     C_3   0.123798 0.779679 0.742262 -0.345581
C56   C     C_3   0.092624 0.891485 0.696536 -0.919876
H20   H     H_    0.083974 0.884081 0.587131 0.271103
H21   H     H_    0.058231 0.896239 0.754111 0.258811
H22   H     H_    0.113028 0.981284 0.714418 0.263335
H23   H     H_    0.127929 0.781582 0.853764 0.215337
H24   H     H_    0.159735 0.798767 0.697234 0.260333
Br1   Br    Br    0.656651 0.657045 0.284485 -0.361488
Br2   Br    Br    0.775876 0.596741 0.314835 -0.343139
Br3   Br    Br    0.631497 0.850676 0.660292 -0.359613
C57   C     C_3   0.417000 0.287109 0.842769 -0.279607
C58   C     C_3   0.459484 0.199692 0.876773 -0.804012
H25   H     H_    0.492657 0.252714 0.909065 0.263905
H26   H     H_    0.449117 0.129081 0.953887 0.237952
H27   H     H_    0.467952 0.143221 0.786043 0.235856
H28   H     H_    0.382109 0.234034 0.850905 0.179545
H29   H     H_    0.419421 0.308873 0.734575 0.224873
C59   C     C_3   0.416499 0.293282 0.157017 -0.270408
C60   C     C_3   0.370792 0.209210 0.144929 -0.889208
H30   H     H_    0.337260 0.267043 0.147520 0.276953
H31   H     H_    0.370779 0.151951 0.051858 0.262861
H32   H     H_    0.369365 0.142018 0.230696 0.234338
H33   H     H_    0.450290 0.241791 0.135203 0.217928
H34   H     H_    0.419379 0.316812 0.264446 0.235867
Br4   Br    Br    0.735328 0.273766 0.770316 -0.376461
C61   C     C_3   0.973441 0.078484 0.517617 -0.441972
C62   C     C_3   0.951619 0.986234 0.619956 -0.824268
H35   H     H_    0.953263 0.027692 0.722805 0.267426
H36   H     H_    0.913239 0.961677 0.593787 0.274294
H37   H     H_    0.972888 0.897641 0.619993 0.245372
H38   H     H_    0.969633 0.037668 0.414801 0.215103
H39   H     H_    0.012728 0.085510 0.544103 0.226947
C63   C     C_3   0.352279 0.716646 0.394251 -0.416398
C64   C     C_3   0.319857 0.825796 0.349474 -0.874764
H40   H     H_    0.295680 0.795968 0.264525 0.264651
H41   H     H_    0.297746 0.859812 0.435068 0.269744
H42   H     H_    0.343113 0.905526 0.314267 0.247733
H43   H     H_    0.377085 0.752686 0.475080 0.198042
H44   H     H_    0.374821 0.689061 0.306833 0.219218

loop_
_geom_bond_atom_site_label_1
_geom_bond_atom_site_label_2
_geom_bond_distance
_ccdc_geom_bond_type
C52   C53   1.505480 S    
C56   H20   1.111230 S    
C26   N2    1.366325 A    
C53   H18   1.113097 S    
C20   C24   1.411621 A    
C7    C8    1.405242 A    
C12   C15   1.416949 A    
C61   H38   1.111191 S    
N3    C50   1.370632 A    
C55   H24   1.102783 S    
Zn1   O7    1.994875 S    
N1    C11   1.427281 S    
C48   H14   1.107592 S    
C25   C39   1.395631 A    
C21   C22   1.400339 A    
C51   N4    1.369765 A    
C49   C52   1.395659 A    
C23   C24   1.407110 A    
O7    C4    1.295864 A    
C5    C13   1.394281 A    
Zn1   N4    2.024078 S    
Zn2   N3    2.024393 S    
C5    O9    1.350275 S    
C54   C59   1.544310 S    
C18   C21   1.427440 A    
C5    N1    1.362165 A    
C19   C20   1.420338 A    
C45   C46   1.387909 A    
C49   C54   1.510350 S    
C43   C44   1.379183 A    
O5    C3    1.285661 A    
C62   H35   1.110968 S    
C60   H30   1.111391 S    
C2    C16   1.451360 S    
C1    C42   1.397040 S    
C42   C43   1.397011 A    
C64   H42   1.110552 S    
C48   H15   1.111543 S    
C57   H29   1.100284 S    
C54   H19   1.113549 S    
C12   C34   1.415099 A    
C40   H10   1.075347 S    
C14   H3    1.083391 S    
C56   H21   1.109282 S    
O6    C3    1.281534 A    
C9    C10   1.384575 A    
C19   C38   1.415679 A    
C43   H11   1.079844 S    
C26   O12   1.350230 S    
O3    Zn1   1.987218 S    
C55   H23   1.110956 S    
C33   C34   1.419400 A    
C62   H36   1.109662 S    
C33   C36   1.408070 A    
C46   C47   1.490976 S    
C41   C42   1.390849 A    
C12   C13   1.411932 A    
O3    C2    1.296413 A    
C24   C25   1.406602 A    
C44   C45   1.396427 A    
N4    C52   1.364554 A    
C27   O10   1.349500 S    
C8    C16   1.415214 A    
C7    H7    1.080795 S    
C18   C33   1.414758 A    
C9    H1    1.082435 S    
C35   C40   1.408738 A    
C31   Br2   1.926024 S    
C34   C35   1.413251 A    
C38   C39   1.387376 A    
O1    C1    1.285144 A    
C62   H37   1.110387 S    
C7    C11   1.398822 A    
C47   C48   1.525051 S    
C3    C45   1.396709 S    
C22   C23   1.398094 A    
C6    O11   1.347886 S    
C31   C32   1.408869 A    
Zn2   O8    1.987218 S    
N1    C6    1.366740 A    
C63   H44   1.111091 S    
C57   H28   1.107716 S    
C58   H26   1.106517 S    
C41   C46   1.364215 A    
N2    C32   1.427138 S    
C51   H17   1.080920 S    
C21   C61   1.523360 S    
C47   H13   1.112151 S    
C60   H32   1.109794 S    
C59   H33   1.104056 S    
C25   C26   1.397189 A    
C9    C16   1.398834 A    
O8    C4    1.301351 A    
C29   H4    1.084020 S    
C56   H22   1.110909 S    
C50   C51   1.423541 A    
C64   H40   1.110679 S    
N2    C27   1.366205 A    
C14   C36   1.384564 A    
C28   C29   1.383344 A    
C47   Br3   1.941026 S    
C36   H6    1.080536 S    
C37   C40   1.399578 A    
Zn1   O5    1.977075 S    
C30   C31   1.405401 A    
C10   H2    1.082978 S    
O1    Zn1   1.977054 S    
C17   C30   1.409152 A    
O2    Zn2   1.977076 S    
C6    C15   1.412553 A    
C4    C17   1.459722 S    
C49   N3    1.366900 A    
C15   C37   1.422230 A    
O4    Zn2   1.994878 S    
C53   C57   1.555253 S    
C19   C35   1.419529 A    
C38   H8    1.076151 S    
C30   Br1   1.927903 S    
O2    C1    1.282363 A    
C13   C14   1.397078 A    
C44   H12   1.081600 S    
C61   C62   1.530178 S    
O4    C2    1.294976 A    
C55   C56   1.534356 S    
C18   C20   1.415377 A    
C63   H43   1.111101 S    
C58   H27   1.108554 S    
C61   H39   1.108270 S    
C57   C58   1.531606 S    
C17   C29   1.402530 A    
C60   H31   1.104492 S    
C8    C63   1.522868 S    
C59   H34   1.096316 S    
C22   H5    1.083395 S    
C39   H9    1.083615 S    
C23   C27   1.400498 A    
C53   C54   1.549191 S    
C28   Br4   1.917744 S    
Zn2   O6    1.977053 S    
C50   H16   1.079261 S    
C58   H25   1.108105 S    
C64   H41   1.110791 S    
C10   C11   1.395034 A    
C41   C48   1.495446 S    
C59   C60   1.532708 S    
C37   C55   1.528262 S    
C28   C32   1.398031 A    
C63   C64   1.529696 S    
