data_mof_unit_68609.cif
_audit_creation_date              2012-12-10T20:36:36-0500
_audit_creation_method            fapswitch 2.2
_symmetry_space_group_name_H-M    P1
_symmetry_Int_Tables_number       1
_space_group_crystal_system       triclinic
_cell_length_a                    10.718161
_cell_length_b                    10.88649
_cell_length_c                    10.19387
_cell_angle_alpha                 90.842269
_cell_angle_beta                  92.241073
_cell_angle_gamma                 90.753457
_cell_volume                      1188.3025732

loop_
_atom_site_label
_atom_site_type_symbol
_atom_type_description
_atom_site_fract_x
_atom_site_fract_y
_atom_site_fract_z
_atom_type_partial_charge
C1    C     C_R   0.494566 0.260430 0.497626 0.850276
C2    C     C_3   0.949762 0.601259 0.448765 0.693032
C3    C     C_3   0.027398 0.505769 0.379062 0.494566
C4    C     C_3   0.120236 0.511202 0.496934 -0.266646
C5    C     C_R   0.502023 0.064580 0.610225 -0.041214
C6    C     C_R   0.480981 0.126708 0.492719 -0.134493
C7    C     C_R   0.441184 0.054829 0.378016 0.099956
C8    C     C_R   0.438230 0.925902 0.390143 -0.217778
C9    C     C_R   0.480071 0.868712 0.504069 -0.181420
C10   C     C_R   0.500403 0.939714 0.616558 0.082038
C11   C     C_3   0.585489 0.938031 0.736646 0.614512
C12   C     C_R   0.257467 0.504992 0.498128 0.934103
C13   C     C_3   0.589058 0.080268 0.728119 -0.155844
C14   C     C_R   0.393126 0.487595 0.064641 0.108899
C15   C     C_R   0.602290 0.537963 0.074257 -0.038465
C16   C     C_R   0.606066 0.520297 0.933024 0.601807
C17   C     C_R   0.392931 0.501605 0.925743 0.051387
C18   C     C_3   0.283681 0.422712 0.901214 -0.094398
C19   C     C_3   0.304961 0.380293 0.043368 -0.247845
C20   C     C_R   0.496579 0.738239 0.501393 0.857738
C21   C     C_R   0.741374 0.499515 0.503062 0.900405
C22   C     C_3   0.046485 0.408742 0.563350 0.580703
C23   C     C_3   0.953481 0.401209 0.444108 -0.144234
C24   C     C_3   0.876220 0.499025 0.510801 -0.229589
C25   C     C_3   0.966073 0.504689 0.632049 -0.304586
C26   C     C_3   0.042529 0.608343 0.566828 -0.410883
H1    H     H_    0.541828 0.127870 0.808163 0.183101
H2    H     H_    0.296910 0.348379 0.827230 0.203946
H3    H     H_    0.359084 0.295458 0.051583 0.167481
H4    H     H_    0.931425 0.501144 0.732794 0.220633
H5    H     H_    0.087550 0.690909 0.613454 0.184143
H6    H     H_    0.407811 0.866101 0.310065 0.175949
N1    N     N_R   0.499140 0.499140 0.142800 -0.160594
N2    N     N_R   0.499140 0.499180 0.857150 -0.172536
O1    O     O_R   0.500020 0.316790 0.614690 -0.617310
O2    O     O_R   0.500000 0.316760 0.385350 -0.638967
O3    O     O_R   0.313960 0.499990 0.614650 -0.612749
O4    O     O_R   0.313940 0.499950 0.385310 -0.616312
O5    O     O_R   0.500000 0.683240 0.614650 -0.599149
O6    O     O_R   0.499980 0.683210 0.385310 -0.640545
O7    O     O_R   0.686060 0.500050 0.614690 -0.561245
O8    O     O_R   0.686040 0.500010 0.385350 -0.639538
Zn1   Zn    Zn3+2 0.500010 0.500020 0.653130 0.995658
Zn2   Zn    Zn3+2 0.499990 0.499980 0.346870 0.932160
C27   C     C_3   0.895584 0.275768 0.402761 -0.384198
C28   C     C_3   0.994744 0.176842 0.385900 -0.289621
C29   C     C_3   0.940729 0.063124 0.314717 -0.924601
H7    H     H_    0.860210 0.026423 0.367706 0.277402
H8    H     H_    0.909073 0.085264 0.213377 0.265236
H9    H     H_    0.013259 0.991455 0.310026 0.271598
H10   H     H_    0.074647 0.214102 0.333268 0.228799
H11   H     H_    0.032057 0.147357 0.483048 0.260595
H12   H     H_    0.834053 0.245919 0.481108 0.180182
H13   H     H_    0.832800 0.284287 0.314647 0.211770
C30   C     C_3   0.707165 0.862801 0.729676 -0.419256
C31   C     C_3   0.771982 0.856231 0.597261 -0.354299
C32   C     C_3   0.911960 0.882507 0.615475 -0.820483
H14   H     H_    0.930267 0.977412 0.648714 0.256656
H15   H     H_    0.952766 0.822339 0.691431 0.252147
H16   H     H_    0.959888 0.869495 0.522247 0.299600
H17   H     H_    0.758588 0.762097 0.555947 0.257183
H18   H     H_    0.731156 0.918648 0.522899 0.201754
H19   H     H_    0.772916 0.894352 0.809862 0.202590
H20   H     H_    0.683771 0.766943 0.756396 0.244922
C33   C     C_3   0.712904 0.143801 0.698411 -0.433516
C34   C     C_3   0.795635 0.161997 0.822281 -0.365477
C35   C     C_3   0.929693 0.190472 0.787289 -0.774853
H21   H     H_    0.945224 0.175721 0.682148 0.283479
H22   H     H_    0.951962 0.288245 0.807889 0.277501
H23   H     H_    0.994344 0.129536 0.842518 0.240024
H24   H     H_    0.758421 0.239501 0.880603 0.231459
H25   H     H_    0.793798 0.080421 0.885767 0.217025
H26   H     H_    0.759846 0.094233 0.620402 0.211672
H27   H     H_    0.697336 0.236544 0.659499 0.235475
C36   C     C_3   0.699890 0.622905 0.139093 -0.268892
C37   C     C_3   0.711227 0.744604 0.065053 -0.396388
C38   C     C_3   0.780827 0.843775 0.146589 -0.819044
H28   H     H_    0.732628 0.862168 0.239240 0.279238
H29   H     H_    0.878245 0.815360 0.169183 0.319964
H30   H     H_    0.783255 0.929814 0.089595 0.228796
H31   H     H_    0.762683 0.730132 0.974234 0.265367
H32   H     H_    0.616538 0.778961 0.038388 0.264780
H33   H     H_    0.670170 0.649792 0.237031 0.282109
H34   H     H_    0.791505 0.576509 0.146845 0.245201
F1    F     F_    0.715675 0.534790 0.872896 -0.708141
C39   C     C_3   0.169388 0.506856 0.871235 -0.325513
C40   C     C_3   0.167551 0.637193 0.936392 -0.359288
C41   C     C_3   0.034775 0.683859 0.947417 -0.841929
H35   H     H_    0.982212 0.625119 0.014715 0.314607
H36   H     H_    0.037379 0.779520 0.986829 0.250836
H37   H     H_    0.985233 0.682720 0.850286 0.259041
H38   H     H_    0.211853 0.640583 0.036333 0.248659
H39   H     H_    0.220999 0.702441 0.876265 0.229038
H40   H     H_    0.167378 0.523573 0.767088 0.250686
H41   H     H_    0.082910 0.455742 0.887888 0.217215
C42   C     C_3   0.188365 0.374888 0.122611 -0.275257
C43   C     C_3   0.093208 0.278009 0.068953 -0.420870
C44   C     C_3   0.958168 0.320245 0.078228 -0.823362
H42   H     H_    0.944679 0.366052 0.172115 0.309525
H43   H     H_    0.931709 0.387702 0.002474 0.265254
H44   H     H_    0.893290 0.240596 0.068397 0.238207
H45   H     H_    0.110307 0.257355 0.965143 0.242277
H46   H     H_    0.105667 0.190937 0.122374 0.224193
H47   H     H_    0.212356 0.357272 0.227052 0.210521
H48   H     H_    0.148901 0.464636 0.112112 0.316883
F2    F     F_    0.108787 0.313849 0.624642 -0.727545
F3    F     F_    0.896672 0.698839 0.383382 -0.703606
F4    F     F_    0.040719 0.545019 0.254425 -0.714728
C45   C     C_3   0.406721 0.109018 0.243233 -0.395580
C46   C     C_3   0.370304 0.011134 0.134943 -0.382331
C47   C     C_3   0.342702 0.061529 0.999368 -0.825440
H49   H     H_    0.256127 0.113887 0.996923 0.236392
H50   H     H_    0.421772 0.119284 0.970189 0.254215
H51   H     H_    0.327787 0.984531 0.927805 0.302255
H52   H     H_    0.449564 0.947320 0.123691 0.257477
H53   H     H_    0.285663 0.959147 0.163197 0.225095
H54   H     H_    0.327230 0.171896 0.254686 0.202754
H55   H     H_    0.488364 0.161752 0.209087 0.221563
F5    F     F_    0.519494 0.901396 0.843420 -0.721148

loop_
_geom_bond_atom_site_label_1
_geom_bond_atom_site_label_2
_ccdc_geom_bond_type
C15   C36   S    
C40   C41   S    
C23   C27   S    
C3    C23   S    
C47   H49   S    
C30   C31   S    
C11   F5    S    
C14   N1    A    
C43   C44   S    
C45   H54   S    
C7    C8    A    
C29   H8    S    
C13   C33   S    
C38   H28   S    
C18   C39   S    
C5    C6    A    
C20   O6    A    
C36   H34   S    
C32   H15   S    
C15   C16   A    
C28   H11   S    
C2    F3    S    
C33   H26   S    
C31   C32   S    
C18   C19   S    
C12   O3    A    
C46   C47   S    
C39   H40   S    
C16   N2    A    
C34   H25   S    
C34   H24   S    
C8    C9    A    
C22   C25   S    
C30   H19   S    
C23   C24   S    
C4    C12   S    
O1    Zn1   S    
C9    C10   A    
C5    C13   S    
C43   H45   S    
C34   C35   S    
C27   H12   S    
C26   H5    S    
C40   H38   S    
C30   H20   S    
O7    Zn1   S    
C14   C17   A    
O8    Zn2   S    
C45   H55   S    
C29   H9    S    
C38   H29   S    
C1    C6    S    
C8    H6    S    
C18   H2    S    
C24   C25   S    
C47   H50   S    
C10   C11   S    
C37   H32   S    
C20   O5    A    
C39   C40   S    
C32   H16   S    
O5    Zn1   S    
C25   C26   S    
C22   F2    S    
C28   H10   S    
C33   H27   S    
C35   H21   S    
C35   H22   S    
O3    Zn1   S    
C36   C37   S    
O4    Zn2   S    
C4    C22   S    
C9    C20   S    
C29   H7    S    
C41   H37   S    
C42   C43   S    
C17   C18   S    
C2    C26   S    
C37   C38   S    
C43   H46   S    
C21   O7    A    
C41   H36   S    
C27   H13   S    
C44   H42   S    
C44   H43   S    
C42   H47   S    
C2    C24   S    
C16   F1    S    
C31   H18   S    
O2    Zn2   S    
C17   N2    A    
C3    C4    S    
C19   H3    S    
C46   H53   S    
C11   C30   S    
C1    O1    A    
C42   H48   S    
C38   H30   S    
C25   H4    S    
C28   C29   S    
C31   H17   S    
N1    Zn2   S    
C14   C19   S    
N2    Zn1   S    
C37   H31   S    
C27   C28   S    
C4    C26   S    
C6    C7    A    
C3    F4    S    
C44   H44   S    
C35   H23   S    
C2    C3    S    
C5    C10   A    
C45   C46   S    
C11   C13   S    
C36   H33   S    
C32   H14   S    
C40   H39   S    
C47   H51   S    
C12   O4    A    
C39   H41   S    
C21   O8    A    
C7    C45   S    
O6    Zn2   S    
C41   H35   S    
C33   C34   S    
C21   C24   S    
C22   C23   S    
C13   H1    S    
C46   H52   S    
C15   N1    A    
C19   C42   S    
C1    O2    A    
