data_mof_unit_5486.cif
_audit_creation_date              2012-10-26T19:57:50-0400
_audit_creation_method            fapswitch 2.2
_symmetry_space_group_name_H-M    P1
_symmetry_Int_Tables_number       1
_space_group_crystal_system       triclinic
_cell_length_a                    7.486982
_cell_length_b                    8.681639
_cell_length_c                    13.090891
_cell_angle_alpha                 87.814442
_cell_angle_beta                  79.844134
_cell_angle_gamma                 102.848881
_cell_volume                      813.937083633

loop_
_atom_site_label
_atom_site_type_symbol
_atom_type_description
_atom_site_fract_x
_atom_site_fract_y
_atom_site_fract_z
_atom_type_partial_charge
C1    C     C_R   0.452825 0.199835 0.503202 0.545190
C2    C     C_R   0.715597 0.491996 0.125627 -0.136991
C3    C     C_R   0.616834 0.526101 0.859891 -0.022462
C4    C     C_R   0.402931 0.534917 0.136702 -0.016965
C5    C     C_R   0.593442 0.516243 0.968735 0.027009
C6    C     C_R   0.419363 0.520863 0.029375 0.029436
C7    C     C_2   0.426456 0.031814 0.504729 -0.144703
C8    C     C_2   0.573517 0.968165 0.495279 -0.147037
C9    C     C_1   0.244882 0.587989 0.191894 0.199115
C10   C     C_1   0.804332 0.570277 0.798019 0.198149
C11   C     C_R   0.547170 0.800163 0.496789 0.548897
C12   C     C_R   0.469098 0.500248 0.700793 0.544258
C13   C     C_R   0.532570 0.507005 0.299006 0.544352
C14   C     C_R   0.549446 0.512446 0.185866 -0.006643
C15   C     C_R   0.457145 0.507037 0.813389 -0.007691
C16   C     C_R   0.264686 0.509177 0.981677 -0.133661
C17   C     C_R   0.739606 0.500063 0.018260 -0.134963
C18   C     C_R   0.281668 0.494436 0.875968 -0.140971
Cu1   Cu    Cu3+1 0.686350 0.517570 0.488220 1.004736
Cu2   Cu    Cu3+1 0.313650 0.482430 0.511780 1.000959
H1    H     H_    0.828276 0.470401 0.161360 0.162724
H2    H     H_    0.156847 0.475888 0.843187 0.161916
H3    H     H_    0.128826 0.503786 0.027344 0.115602
H4    H     H_    0.868946 0.485069 0.973765 0.110094
H5    H     H_    0.934933 0.368015 0.576465 0.241010
H6    H     H_    0.064751 0.636400 0.427819 0.261035
H7    H     H_    0.284779 0.960140 0.513633 0.141593
H8    H     H_    0.715190 0.039831 0.486384 0.136029
N1    N     N_2   0.033570 0.455950 0.529530 -0.246201
N2    N     N_2   0.966430 0.544050 0.470470 -0.239753
N3    N     N_1   0.118967 0.632643 0.233774 -0.316961
N4    N     N_1   0.953131 0.607865 0.748205 -0.284539
O1    O     O_R   0.621060 0.286250 0.492350 -0.512765
O2    O     O_R   0.378940 0.713750 0.507650 -0.504462
O3    O     O_R   0.306310 0.256580 0.512240 -0.501897
O4    O     O_R   0.693690 0.743420 0.487760 -0.496976
O5    O     O_R   0.631800 0.512400 0.642670 -0.498321
O6    O     O_R   0.368200 0.487600 0.357330 -0.497302
O7    O     O_R   0.317060 0.482730 0.662570 -0.492109
O8    O     O_R   0.682940 0.517270 0.337430 -0.488731

loop_
_geom_bond_atom_site_label_1
_geom_bond_atom_site_label_2
_ccdc_geom_bond_type
C15   C18   A    
N1    N2    D    
Cu2   O6    S    
Cu1   Cu2   S    
C12   C15   S    
Cu2   N1    S    
Cu2   O2    S    
C2    H1    S    
C1    O1    A    
C7    C8    D    
C3    C10   S    
C18   H2    S    
C13   C14   S    
C2    C17   A    
C4    C14   A    
Cu2   O3    S    
C13   O6    A    
C12   O7    A    
C8    C11   S    
C2    C14   A    
C4    C6    A    
C11   O4    A    
H6    N2    S    
C16   H3    S    
Cu1   O4    S    
H5    N1    S    
C5    C6    A    
C8    H8    S    
C17   H4    S    
C5    C17   A    
Cu1   O8    S    
C9    N3    T    
C6    C16   A    
C10   N4    T    
C7    H7    S    
C1    O3    A    
C16   C18   A    
Cu1   O1    S    
C12   O5    A    
Cu2   O7    S    
C3    C15   A    
Cu1   O5    S    
C3    C5    A    
C4    C9    S    
C1    C7    S    
Cu1   N2    S    
C11   O2    A    
C13   O8    A    
