data_mof_unit_19338.cif
_audit_creation_date              2012-12-10T17:09:32-0500
_audit_creation_method            fapswitch 2.2
_symmetry_space_group_name_H-M    P1
_symmetry_Int_Tables_number       1
_space_group_crystal_system       triclinic
_cell_length_a                    10.546895
_cell_length_b                    10.597094
_cell_length_c                    10.048243
_cell_angle_alpha                 91.707284
_cell_angle_beta                  89.938694
_cell_angle_gamma                 90.199084
_cell_volume                      1122.55047773

loop_
_atom_site_label
_atom_site_type_symbol
_atom_type_description
_atom_site_fract_x
_atom_site_fract_y
_atom_site_fract_z
_atom_type_partial_charge
C1    C     C_R   0.498195 0.261974 0.497233 0.927719
C2    C     C_2   0.567478 0.577756 0.075097 0.212789
C3    C     C_R   0.257619 0.497086 0.499509 0.868220
C4    C     C_R   0.485442 0.737063 0.502675 0.912613
C5    C     C_R   0.742203 0.501169 0.500194 0.919627
C6    C     C_3   0.039231 0.395112 0.562205 0.140630
C7    C     C_3   0.955157 0.392670 0.436833 0.173330
C8    C     C_3   0.876582 0.500010 0.500582 -0.105416
C9    C     C_3   0.958800 0.501624 0.627560 -0.214897
C10   C     C_3   0.043295 0.601458 0.562167 0.148136
C11   C     C_3   0.899217 0.274139 0.369741 -0.895452
C12   C     C_3   0.960011 0.600324 0.436600 0.170873
C13   C     C_3   0.633295 0.690090 0.137842 -0.816047
C14   C     C_3   0.091736 0.280702 0.633720 -0.387008
C15   C     C_3   0.991113 0.216680 0.717822 -0.860468
C16   C     C_3   0.099639 0.717422 0.635212 -0.385014
C17   C     C_3   0.997898 0.799319 0.702160 -0.872127
C18   C     C_3   0.917307 0.720349 0.369776 -0.927178
C19   C     C_3   0.088395 0.489488 0.227410 -0.340087
C20   C     C_3   0.984298 0.464445 0.124006 -0.898244
C21   C     C_3   0.398557 0.916432 0.649621 -0.884053
C22   C     C_3   0.324069 0.128331 0.310236 -0.869863
C23   C     C_3   0.039248 0.493038 0.371736 0.140816
C24   C     C_3   0.122659 0.495346 0.497786 -0.236023
C25   C     C_2   0.420854 0.928550 0.400738 -0.189555
C26   C     C_2   0.437725 0.864735 0.512509 -0.019986
C27   C     C_2   0.414347 0.065339 0.404040 0.228704
C28   C     C_2   0.494271 0.128000 0.487578 -0.342057
C29   C     C_2   0.581938 0.561226 0.926389 -0.147004
H1    H     H_    0.560077 0.079022 0.550885 0.133538
H2    H     H_    0.562465 0.763496 0.164047 0.235693
H3    H     H_    0.685608 0.663065 0.227028 0.275748
H4    H     H_    0.702614 0.732312 0.068666 0.191019
H5    H     H_    0.956087 0.282746 0.797313 0.255701
H6    H     H_    0.910194 0.183876 0.655539 0.260633
H7    H     H_    0.033247 0.133576 0.765619 0.244283
H8    H     H_    0.129953 0.211647 0.558968 0.202608
H9    H     H_    0.170472 0.311956 0.700251 0.219032
H10   H     H_    0.932269 0.837354 0.627302 0.267638
H11   H     H_    0.943034 0.743941 0.774714 0.252781
H12   H     H_    0.659058 0.609900 0.877705 0.164991
H13   H     H_    0.043765 0.880056 0.756361 0.246469
H14   H     H_    0.165969 0.685397 0.712895 0.216790
H15   H     H_    0.153577 0.774203 0.563149 0.208505
H16   H     H_    0.995662 0.790486 0.371960 0.246857
H17   H     H_    0.893004 0.700346 0.264455 0.245226
H18   H     H_    0.833722 0.760889 0.422538 0.233500
H19   H     H_    0.966186 0.361578 0.112126 0.259476
H20   H     H_    0.894439 0.512256 0.151910 0.274724
H21   H     H_    0.015849 0.498751 0.025985 0.243941
H22   H     H_    0.134630 0.581485 0.207968 0.213645
H23   H     H_    0.422239 0.465341 0.897601 0.155941
H24   H     H_    0.160522 0.413908 0.215231 0.215355
H25   H     H_    0.339602 0.845884 0.700865 0.242168
H26   H     H_    0.483988 0.935867 0.711440 0.240249
H27   H     H_    0.340007 0.003026 0.645011 0.252176
H28   H     H_    0.258848 0.057844 0.262810 0.224520
H29   H     H_    0.265596 0.199544 0.365118 0.222224
H30   H     H_    0.377683 0.174471 0.229864 0.248555
H31   H     H_    0.464283 0.422241 0.100393 0.131687
H32   H     H_    0.922324 0.505920 0.731277 0.158286
H33   H     H_    0.428610 0.882532 0.303226 0.146086
H34   H     H_    0.976787 0.213426 0.329878 0.239487
H35   H     H_    0.842598 0.220989 0.442320 0.229115
H36   H     H_    0.835259 0.300267 0.287648 0.257258
N1    N     N_2   0.501360 0.501330 0.852150 -0.207748
N2    N     N_2   0.501400 0.501360 0.147810 -0.195082
O1    O     O_R   0.499980 0.319060 0.613040 -0.612353
O2    O     O_R   0.500020 0.319100 0.386900 -0.602162
O3    O     O_R   0.313930 0.499950 0.613050 -0.629010
O4    O     O_R   0.313970 0.499990 0.386910 -0.630867
O5    O     O_R   0.499980 0.680900 0.613100 -0.600591
O6    O     O_R   0.500020 0.680940 0.386960 -0.630958
O7    O     O_R   0.686030 0.500010 0.613090 -0.620268
O8    O     O_R   0.686070 0.500050 0.386950 -0.617641
Zn1   Zn    Zn3+2 0.499970 0.499970 0.650990 0.925234
Zn2   Zn    Zn3+2 0.500030 0.500030 0.349010 0.912570

loop_
_geom_bond_atom_site_label_1
_geom_bond_atom_site_label_2
_ccdc_geom_bond_type
C21   C26   S    
C13   H3    S    
C3    O4    A    
C19   C20   S    
N2    Zn2   S    
C4    O5    A    
O5    Zn1   S    
C18   H18   S    
C22   H28   S    
C7    C8    S    
C7    C11   S    
C12   C23   S    
O7    Zn1   S    
C2    C29   S    
C9    H32   S    
C11   H34   S    
C21   H25   S    
C6    C14   S    
C1    O1    A    
C17   H10   S    
C5    O7    A    
C2    C13   S    
C17   H13   S    
C20   H21   S    
O2    Zn2   S    
H31   N2    S    
C8    C9    S    
C1    C28   S    
C23   C24   S    
C9    C10   S    
C16   H15   S    
C15   H5    S    
C19   H24   S    
C6    C24   S    
C3    C24   S    
C6    C9    S    
C18   H17   S    
C15   H6    S    
C3    O3    A    
C11   H35   S    
C22   H30   S    
C21   H26   S    
C16   C17   S    
C10   C24   S    
C25   C26   D    
C1    O2    A    
C17   H11   S    
C5    O8    A    
C19   C23   S    
C13   H4    S    
C20   H20   S    
C14   H9    S    
C8    C12   S    
N1    Zn1   S    
O8    Zn2   S    
C16   H14   S    
C4    O6    A    
C20   H19   S    
C10   C12   S    
C2    N2    D    
C22   C27   S    
O3    Zn1   S    
C5    C8    S    
C25   C27   S    
C18   H16   S    
C15   H7    S    
O4    Zn2   S    
H23   N1    S    
C29   H12   S    
C13   H2    S    
C22   H29   S    
C21   H27   S    
C4    C26   S    
C6    C7    S    
O1    Zn1   S    
C28   H1    S    
C10   C16   S    
C14   H8    S    
C7    C23   S    
C25   H33   S    
C29   N1    D    
C19   H22   S    
C12   C18   S    
C27   C28   D    
O6    Zn2   S    
C14   C15   S    
C11   H36   S    
