data_mof_unit_10251.cif
_audit_creation_date              2012-12-11T14:39:23-0500
_audit_creation_method            fapswitch 2.2
_symmetry_space_group_name_H-M    P1
_symmetry_Int_Tables_number       1
_space_group_crystal_system       triclinic
_cell_length_a                    7.227967
_cell_length_b                    14.03823
_cell_length_c                    16.531256
_cell_angle_alpha                 90.000048
_cell_angle_beta                  97.354613
_cell_angle_gamma                 89.999989
_cell_volume                      1663.59111807

loop_
_atom_site_label
_atom_site_type_symbol
_atom_type_description
_atom_site_fract_x
_atom_site_fract_y
_atom_site_fract_z
_atom_type_partial_charge
O1    O     O_R   0.525340 0.338340 0.164530 -0.526245
O2    O     O_R   0.474660 0.661660 0.835470 -0.525771
O3    O     O_R   0.974660 0.838340 0.835470 -0.526246
O4    O     O_R   0.025340 0.161660 0.164530 -0.525770
O5    O     O_R   0.253520 0.352000 0.336710 -0.527044
O6    O     O_R   0.746480 0.648000 0.663290 -0.538807
O7    O     O_R   0.246480 0.852000 0.663290 -0.527050
O8    O     O_R   0.753520 0.148000 0.336710 -0.538807
O9    O     O_R   0.083330 0.168380 0.337300 -0.501604
O10   O     O_R   0.916670 0.831620 0.662700 -0.518026
O11   O     O_R   0.416670 0.668380 0.662700 -0.501608
O12   O     O_R   0.583330 0.331620 0.337300 -0.518034
C1    C     C_R   0.432882 0.372067 0.361409 0.883193
C2    C     C_R   0.568033 0.627034 0.639478 0.888273
C3    C     C_R   0.067118 0.872068 0.638591 0.883192
C4    C     C_R   0.931967 0.127034 0.360522 0.888270
O13   O     O_R   0.195840 0.349670 0.165140 -0.511125
O14   O     O_R   0.804160 0.650330 0.834860 -0.506987
O15   O     O_R   0.304160 0.849670 0.834860 -0.511127
O16   O     O_R   0.695840 0.150330 0.165140 -0.506992
C5    C     C_R   0.356812 0.370368 0.136749 0.669043
C6    C     C_R   0.642864 0.629703 0.863372 0.677743
C7    C     C_R   0.143188 0.870368 0.863251 0.669037
C8    C     C_R   0.857136 0.129703 0.136628 0.677733
O17   O     O_3   0.387830 0.193120 0.250910 -0.371708
O18   O     O_3   0.612170 0.806880 0.749090 -0.380857
O19   O     O_3   0.112170 0.693120 0.749090 -0.371707
O20   O     O_3   0.887830 0.306880 0.250910 -0.380855
V1    V     V_3+5 0.113010 0.264540 0.250910 1.664342
V2    V     V_3+5 0.886990 0.735460 0.749090 1.642307
V3    V     V_3+5 0.386990 0.764540 0.749090 1.664334
V4    V     V_3+5 0.613010 0.235460 0.250910 1.642297
H1    H     H_    0.970027 0.790701 0.268578 0.154745
H2    H     H_    0.011129 0.206409 0.730259 0.154036
H3    H     H_    0.529965 0.290701 0.731422 0.154747
H4    H     H_    0.488854 0.706408 0.269742 0.154036
C9    C     C_R   0.977517 0.200793 0.524516 0.598521
C10   C     C_R   0.052749 0.800254 0.474328 0.584623
C11   C     C_R   0.522489 0.700792 0.475485 0.598517
C12   C     C_R   0.447246 0.300254 0.525673 0.584628
C13   C     C_R   0.998149 0.239035 0.603792 0.248235
C14   C     C_R   0.037026 0.761468 0.395577 0.237923
C15   C     C_R   0.501845 0.739034 0.396208 0.248249
C16   C     C_R   0.462968 0.261468 0.604424 0.237923
C17   C     C_R   0.005804 0.177157 0.669298 -0.294071
C18   C     C_R   0.985207 0.820571 0.329547 -0.315856
C19   C     C_R   0.494186 0.677156 0.330702 -0.294068
C20   C     C_R   0.514786 0.320571 0.670454 -0.315860
C21   C     C_R   0.999892 0.078560 0.658996 0.225616
C22   C     C_R   0.947944 0.917175 0.339215 0.252624
C23   C     C_R   0.500103 0.578559 0.341004 0.225616
C24   C     C_R   0.552053 0.417174 0.660786 0.252631
C25   C     C_R   0.002698 0.037476 0.579991 -0.050851
C26   C     C_R   0.975274 0.960218 0.418448 -0.060512
C27   C     C_R   0.497301 0.537475 0.420009 -0.050852
C28   C     C_R   0.524724 0.460218 0.581552 -0.060509
C29   C     C_R   0.981779 0.099840 0.511159 -0.131441
C30   C     C_R   0.019416 0.899313 0.487503 -0.163494
C31   C     C_R   0.518224 0.599839 0.488841 -0.131446
C32   C     C_R   0.480582 0.399313 0.512497 -0.163500
C33   C     C_R   0.029185 0.937711 0.567940 -0.111424
C34   C     C_R   0.964007 0.060894 0.430760 -0.111756
C35   C     C_R   0.470814 0.437711 0.432060 -0.111425
C36   C     C_R   0.535994 0.560893 0.569241 -0.111758
C37   C     C_2   0.150299 0.940256 0.931137 0.372992
C38   C     C_2   0.851011 0.060797 0.067832 0.356213
C39   C     C_2   0.349701 0.440255 0.068862 0.372990
C40   C     C_2   0.648989 0.560800 0.932169 0.356198
C41   C     C_2   0.000606 0.958181 0.971258 0.415205
C42   C     C_2   0.007986 0.029186 0.038509 0.424541
C43   C     C_2   0.499395 0.458180 0.028741 0.415209
C44   C     C_2   0.492013 0.529180 0.961486 0.424539
F1    F     F_    0.958560 0.262483 0.461101 -0.706453
F2    F     F_    0.111315 0.741349 0.537185 -0.699326
F3    F     F_    0.541468 0.762482 0.538900 -0.706458
F4    F     F_    0.388682 0.241349 0.462815 -0.699321
N1    N     N_2   0.012323 0.338791 0.621816 -0.535507
H5    H     H_    0.103224 0.355715 0.673112 0.248661
C45   C     C_3   0.996270 0.411132 0.559147 -0.429192
H6    H     H_    0.003412 0.482649 0.587883 0.161360
H7    H     H_    0.860397 0.405700 0.520157 0.239804
H8    H     H_    0.112092 0.405086 0.521813 0.221397
N2    N     N_2   0.084465 0.664616 0.380372 -0.517844
H9    H     H_    0.075416 0.645334 0.319763 0.250760
C46   C     C_3   0.027177 0.590207 0.432279 -0.456560
H10   H     H_    0.040547 0.519901 0.402960 0.166322
H11   H     H_    0.880632 0.600749 0.443313 0.191683
H12   H     H_    0.121261 0.587609 0.490496 0.250935
N3    N     N_2   0.487660 0.838790 0.378185 -0.535506
H13   H     H_    0.396751 0.855711 0.326891 0.248659
C47   C     C_3   0.503710 0.911130 0.440854 -0.429208
H14   H     H_    0.496541 0.982647 0.412119 0.161352
H15   H     H_    0.639594 0.905707 0.479838 0.239806
H16   H     H_    0.387905 0.905075 0.478196 0.221406
N4    N     N_2   0.415528 0.164616 0.619628 -0.517842
H17   H     H_    0.424573 0.145335 0.680237 0.250761
C48   C     C_3   0.472820 0.090208 0.567723 -0.456570
H18   H     H_    0.459445 0.019901 0.597040 0.166323
H19   H     H_    0.619367 0.100747 0.556692 0.191682
H20   H     H_    0.378743 0.087609 0.509504 0.250939
N5    N     N_2   0.977857 0.023305 0.729013 -0.562042
H21   H     H_    0.069487 0.043312 0.779140 0.243725
C49   C     C_3   0.787205 0.021825 0.747353 -0.453887
H22   H     H_    0.778664 0.983560 0.805231 0.242103
H23   H     H_    0.696994 0.984538 0.698119 0.201567
H24   H     H_    0.734642 0.095358 0.754542 0.181163
N6    N     N_2   0.876091 0.967679 0.267588 -0.568416
H25   H     H_    0.957156 0.958135 0.221204 0.239232
C50   C     C_3   0.681275 0.947282 0.240577 -0.435087
H26   H     H_    0.592612 0.981796 0.281901 0.205941
H27   H     H_    0.654983 0.869299 0.237552 0.192690
H28   H     H_    0.639500 0.975502 0.178577 0.243994
N7    N     N_2   0.522138 0.523304 0.270987 -0.562042
H29   H     H_    0.430506 0.543311 0.220860 0.243723
C51   C     C_3   0.712789 0.521827 0.252646 -0.453887
H30   H     H_    0.721330 0.483562 0.194768 0.242107
H31   H     H_    0.803002 0.484541 0.301880 0.201565
H32   H     H_    0.765348 0.595361 0.245457 0.181163
N8    N     N_2   0.623902 0.467678 0.732413 -0.568421
H33   H     H_    0.542836 0.458132 0.778796 0.239238
C52   C     C_3   0.818718 0.447285 0.759425 -0.435089
H34   H     H_    0.907386 0.481829 0.718118 0.205949
H35   H     H_    0.845029 0.369301 0.762423 0.192692
H36   H     H_    0.860466 0.475475 0.821439 0.243985
F5    F     F_    0.179268 0.060593 0.071781 -0.636417
F6    F     F_    0.839295 0.908215 0.952413 -0.646517
F7    F     F_    0.320726 0.560573 0.928205 -0.636420
F8    F     F_    0.660710 0.408217 0.047589 -0.646519
F9    F     F_    0.680286 0.030578 0.033137 -0.568775
F10   F     F_    0.313127 0.988182 0.951598 -0.567871
F11   F     F_    0.819716 0.530592 0.966873 -0.568770
F12   F     F_    0.186871 0.488178 0.048397 -0.567868

loop_
_geom_bond_atom_site_label_1
_geom_bond_atom_site_label_2
_ccdc_geom_bond_type
C16   C20   A    
O1    C5    A    
N5    H21   S    
C12   C32   A    
C27   C31   A    
O3    V2    S    
O13   V1    S    
O3    C7    A    
N4    H17   S    
O15   V3    S    
C48   H18   S    
C29   C34   A    
N1    H5    S    
C31   C36   A    
C23   N7    S    
C32   C35   A    
O20   V1    S    
O9    C4    A    
C10   C14   A    
O10   C3    A    
C50   H27   S    
C26   C30   A    
O4    C8    A    
O11   C2    A    
C37   C41   D    
C39   C43   D    
O6    C2    A    
C51   H30   S    
H4    C19   S    
C14   C18   A    
C52   H36   S    
C10   C30   A    
C25   C33   A    
O16   C8    A    
C51   H31   S    
C27   C35   A    
O2    C6    A    
N6    H25   S    
C28   C36   A    
O14   V2    S    
C11   F3    S    
N3    C47   S    
C12   C16   A    
O5    C1    A    
O4    V1    S    
C8    C38   S    
C38   F9    S    
C30   C33   A    
O7    C3    A    
O11   V3    S    
O18   V3    S    
N5    C49   S    
C5    C39   S    
O19   V2    S    
H1    C18   S    
N6    C50   S    
C4    C34   S    
H3    C20   S    
C48   H19   S    
C37   F10   S    
O5    V1    S    
N8    C52   S    
O7    V3    S    
C46   H11   S    
O8    V4    S    
C50   H28   S    
C47   H14   S    
C45   H7    S    
C25   C29   A    
C19   C23   A    
C44   F7    S    
C46   H10   S    
O1    V4    S    
O13   C5    A    
C12   F4    S    
O2    V3    S    
C40   F11   S    
O15   C7    A    
C47   H15   S    
O10   V2    S    
N2    H9    S    
C1    C35   S    
C17   C21   A    
C40   C44   D    
C51   H32   S    
C11   C31   A    
C3    C33   S    
N1    C45   S    
C49   H23   S    
H2    C17   S    
C15   N3    S    
C6    C40   S    
C52   H34   S    
C2    C36   S    
C42   F5    S    
O6    V2    S    
C41   F6    S    
C22   N6    S    
C43   F8    S    
C48   H20   S    
N7    H29   S    
O16   V4    S    
C46   H12   S    
C9    F1    S    
N2    C46   S    
O14   C6    A    
C14   N2    S    
C45   H8    S    
C11   C15   A    
N8    H33   S    
N4    C48   S    
O9    V1    S    
C26   C34   A    
C18   C22   A    
C7    C37   S    
C43   C44   S    
C22   C26   A    
C16   N4    S    
C50   H26   S    
C47   H16   S    
C13   N1    S    
C38   C42   D    
O17   V4    S    
C21   C25   A    
C39   F12   S    
C10   F2    S    
C49   H24   S    
C23   C27   A    
C9    C13   A    
C41   C42   S    
C9    C29   A    
C52   H35   S    
C45   H6    S    
C24   N8    S    
C28   C32   A    
C20   C24   A    
O12   C1    A    
O8    C4    A    
C49   H22   S    
C13   C17   A    
N3    H13   S    
C15   C19   A    
O12   V4    S    
C24   C28   A    
C21   N5    S    
N7    C51   S    
