data_mof_unit_15049.cif
_audit_creation_date              2012-12-10T21:01:45-0500
_audit_creation_method            fapswitch 2.2
_symmetry_space_group_name_H-M    P1
_symmetry_Int_Tables_number       1
_space_group_crystal_system       triclinic
_cell_length_a                    15.717414
_cell_length_b                    15.849412
_cell_length_c                    15.067704
_cell_angle_alpha                 89.631121
_cell_angle_beta                  88.948969
_cell_angle_gamma                 89.801502
_cell_volume                      3752.81209874

loop_
_atom_site_label
_atom_site_type_symbol
_atom_type_description
_atom_site_fract_x
_atom_site_fract_y
_atom_site_fract_z
_atom_type_partial_charge
C1    C     C_R   0.500153 0.339066 0.500242 0.903771
C2    C     C_1   0.498454 0.749070 0.499385 -0.178209
C3    C     C_R   0.424003 0.503784 0.953552 -0.245433
C4    C     C_R   0.576080 0.497041 0.046437 -0.244681
C5    C     C_R   0.501266 0.500670 0.904985 0.027953
C6    C     C_R   0.498810 0.500042 0.095004 0.028167
C7    C     C_R   0.578366 0.497533 0.952328 0.123992
C8    C     C_R   0.421725 0.503405 0.047657 0.123125
C9    C     C_1   0.500218 0.500186 0.807085 0.038148
C10   C     C_1   0.499820 0.500127 0.192911 0.037679
C11   C     C_R   0.337457 0.499508 0.500706 0.908364
C12   C     C_R   0.499761 0.660995 0.499772 0.908260
C13   C     C_R   0.662547 0.499371 0.499301 0.908481
C14   C     C_3   0.971109 0.423881 0.547925 0.077785
C15   C     C_3   0.028820 0.557371 0.452195 0.072380
C16   C     C_3   0.029550 0.417975 0.464266 0.079664
C17   C     C_3   0.970659 0.563296 0.535799 0.073063
C18   C     C_1   0.248744 0.496118 0.502237 -0.195051
C19   C     C_1   0.751272 0.495532 0.497816 -0.195210
C20   C     C_3   0.024674 0.496888 0.585259 0.073172
C21   C     C_3   0.975367 0.484442 0.414845 0.073457
C22   C     C_3   0.082600 0.490994 0.501659 0.003469
C23   C     C_R   0.496580 0.912991 0.500829 0.031941
C24   C     C_3   0.917456 0.490374 0.498450 0.003213
C25   C     C_1   0.173609 0.493120 0.502614 -0.088952
C26   C     C_1   0.826421 0.492278 0.497476 -0.089362
C27   C     C_R   0.540496 0.954906 0.568222 -0.059689
C28   C     C_R   0.453408 0.045516 0.434421 -0.060720
C29   C     C_3   0.074965 0.340242 0.425297 -0.409800
C30   C     C_3   0.013144 0.272317 0.394366 -0.354907
C31   C     C_3   0.060577 0.201163 0.346771 -0.902460
C32   C     C_3   0.925469 0.641155 0.574774 -0.398673
C33   C     C_3   0.987301 0.709076 0.605517 -0.348967
C34   C     C_R   0.497984 0.087308 0.501244 0.031528
C35   C     C_3   0.939576 0.780595 0.652053 -0.910671
C36   C     C_3   0.926537 0.351585 0.598554 -0.408461
C37   C     C_3   0.988865 0.293236 0.646633 -0.352351
C38   C     C_3   0.942715 0.218106 0.688767 -0.903976
C39   C     C_3   0.073189 0.629667 0.401415 -0.397587
C40   C     C_3   0.010857 0.687637 0.352929 -0.348669
C41   C     C_3   0.056428 0.764828 0.314642 -0.909719
C42   C     C_3   0.935466 0.478456 0.322813 -0.397550
C43   C     C_3   0.001726 0.469251 0.247498 -0.359077
C44   C     C_3   0.959913 0.474335 0.157025 -0.902176
C45   C     C_R   0.452740 0.957068 0.434131 -0.059841
C46   C     C_3   0.064492 0.503082 0.677334 -0.397209
C47   C     C_3   0.998131 0.511849 0.752630 -0.359371
C48   C     C_3   0.039907 0.507005 0.843131 -0.901382
C49   C     C_R   0.586725 0.090305 0.638319 0.141809
C50   C     C_R   0.657375 0.140798 0.616008 -0.160212
C51   C     C_R   0.698064 0.187062 0.681393 -0.142576
C52   C     C_R   0.669314 0.182436 0.769592 -0.105535
C53   C     C_R   0.599553 0.131762 0.792457 -0.133817
C54   C     C_R   0.558127 0.086003 0.727089 -0.130221
C55   C     C_R   0.404756 0.910780 0.365496 0.135313
C56   C     C_R   0.541530 0.043354 0.568101 -0.060004
C57   C     C_R   0.447851 0.859135 0.303817 -0.150751
C58   C     C_R   0.402535 0.815896 0.239433 -0.131027
C59   C     C_R   0.314157 0.824579 0.235585 -0.114509
C60   C     C_R   0.270972 0.876422 0.296197 -0.141900
C61   C     C_R   0.315897 0.919014 0.361287 -0.134208
C62   C     C_R   0.586246 0.906202 0.637712 0.134172
C63   C     C_R   0.675094 0.911996 0.644201 -0.133384
C64   C     C_R   0.717636 0.866970 0.710115 -0.141687
C65   C     C_R   0.672129 0.814982 0.769133 -0.116524
C66   C     C_R   0.583812 0.808501 0.762861 -0.131826
C67   C     C_1   0.497321 0.823743 0.499753 -0.042057
C68   C     C_R   0.540849 0.854270 0.697779 -0.147399
C69   C     C_R   0.410065 0.094603 0.363530 0.141986
C70   C     C_R   0.439115 0.089604 0.274987 -0.128411
C71   C     C_R   0.399708 0.137206 0.208854 -0.135688
C72   C     C_R   0.331555 0.190499 0.230682 -0.112962
C73   C     C_R   0.302452 0.196049 0.318638 -0.136577
C74   C     C_R   0.341040 0.147860 0.384820 -0.158948
C75   C     C_3   0.336495 0.508058 0.096000 -0.432305
C76   C     C_3   0.310406 0.421747 0.134242 -0.312686
C77   C     C_3   0.226106 0.427479 0.185874 -0.914782
C78   C     C_1   0.499062 0.176497 0.501141 -0.038408
C79   C     C_3   0.663622 0.493242 0.903982 -0.430267
C80   C     C_3   0.689164 0.579575 0.865353 -0.318712
C81   C     C_3   0.773587 0.574191 0.813880 -0.907278
C82   C     C_1   0.499725 0.251107 0.500829 -0.173907
H1    H     H_    0.364854 0.506157 0.917727 0.140449
H2    H     H_    0.893641 0.810335 0.606122 0.263153
H3    H     H_    0.904842 0.756272 0.711744 0.257542
H4    H     H_    0.985468 0.829270 0.673235 0.251067
H5    H     H_    0.033888 0.681931 0.652103 0.224455
H6    H     H_    0.022646 0.735983 0.547756 0.228052
H7    H     H_    0.882852 0.668423 0.524041 0.195017
H8    H     H_    0.884185 0.620302 0.631264 0.203232
H9    H     H_    0.894594 0.240140 0.738401 0.259402
H10   H     H_    0.910865 0.180518 0.637084 0.258960
H11   H     H_    0.989272 0.176926 0.722946 0.252788
H12   H     H_    0.635223 0.494658 0.082271 0.140397
H13   H     H_    0.038166 0.269209 0.599682 0.224794
H14   H     H_    0.020965 0.328079 0.699918 0.228890
H15   H     H_    0.880535 0.378710 0.647446 0.193142
H16   H     H_    0.888954 0.314767 0.550715 0.193849
H17   H     H_    0.083836 0.802594 0.368924 0.258556
H18   H     H_    0.108086 0.745201 0.267792 0.262442
H19   H     H_    0.010477 0.804936 0.278284 0.250493
H20   H     H_    0.981399 0.653343 0.297570 0.227444
H21   H     H_    0.959552 0.709324 0.398804 0.224710
H22   H     H_    0.110602 0.666643 0.449254 0.199545
H23   H     H_    0.094233 0.225845 0.286590 0.257431
H24   H     H_    0.119388 0.602610 0.352675 0.194660
H25   H     H_    0.911836 0.423604 0.150797 0.263649
H26   H     H_    0.928589 0.536681 0.148139 0.260138
H27   H     H_    0.008993 0.466427 0.103743 0.249731
H28   H     H_    0.050165 0.519651 0.251047 0.228477
H29   H     H_    0.034488 0.407477 0.252773 0.233867
H30   H     H_    0.891557 0.423756 0.322274 0.194221
H31   H     H_    0.896181 0.535801 0.311893 0.199706
H32   H     H_    0.071648 0.444864 0.852003 0.260922
H33   H     H_    0.087630 0.558056 0.849432 0.262976
H34   H     H_    0.107355 0.171328 0.391706 0.261571
H35   H     H_    0.990719 0.514558 0.896369 0.249337
H36   H     H_    0.965028 0.573442 0.747360 0.233319
H37   H     H_    0.949987 0.461169 0.749060 0.228431
H38   H     H_    0.104215 0.446046 0.688249 0.199032
H39   H     H_    0.108046 0.558054 0.677941 0.194454
H40   H     H_    0.680376 0.144763 0.547912 0.123198
H41   H     H_    0.751595 0.226794 0.663542 0.133525
H42   H     H_    0.700948 0.218272 0.820150 0.118499
H43   H     H_    0.577248 0.128343 0.860764 0.124394
H44   H     H_    0.503557 0.047709 0.745410 0.122127
H45   H     H_    0.014548 0.152400 0.326115 0.252711
H46   H     H_    0.516410 0.852555 0.305613 0.127278
H47   H     H_    0.435965 0.775909 0.192313 0.128200
H48   H     H_    0.279174 0.791353 0.185499 0.119647
H49   H     H_    0.202698 0.883808 0.292653 0.134041
H50   H     H_    0.281603 0.958582 0.408210 0.123158
H51   H     H_    0.711222 0.951542 0.598455 0.123683
H52   H     H_    0.785866 0.872595 0.715615 0.134150
H53   H     H_    0.705254 0.779994 0.819914 0.123332
H54   H     H_    0.548609 0.768298 0.808689 0.124934
H55   H     H_    0.472290 0.849366 0.694137 0.126546
H56   H     H_    0.978152 0.244962 0.452135 0.227747
H57   H     H_    0.492519 0.049303 0.257417 0.121604
H58   H     H_    0.422332 0.133151 0.140735 0.124299
H59   H     H_    0.301425 0.227564 0.179457 0.122970
H60   H     H_    0.250238 0.237938 0.335599 0.133899
H61   H     H_    0.317712 0.152487 0.452704 0.122567
H62   H     H_    0.231832 0.471250 0.242753 0.268450
H63   H     H_    0.174887 0.450229 0.141819 0.264628
H64   H     H_    0.208333 0.364173 0.212024 0.239337
H65   H     H_    0.303613 0.376049 0.079168 0.213404
H66   H     H_    0.359845 0.397326 0.179547 0.230683
H67   H     H_    0.966132 0.299720 0.348402 0.225542
H68   H     H_    0.339616 0.555487 0.149898 0.203234
H69   H     H_    0.286394 0.530135 0.050018 0.193972
H70   H     H_    0.825037 0.552502 0.858231 0.262216
H71   H     H_    0.768414 0.529715 0.757537 0.267513
H72   H     H_    0.790644 0.637412 0.786966 0.244085
H73   H     H_    0.639634 0.603443 0.819845 0.227792
H74   H     H_    0.695532 0.625606 0.920183 0.212520
H75   H     H_    0.713882 0.471673 0.950033 0.194091
H76   H     H_    0.660784 0.445582 0.850287 0.204450
H77   H     H_    0.116297 0.361220 0.368887 0.198779
H78   H     H_    0.117510 0.312975 0.476109 0.191137
N1    N     N_1   0.499980 0.500020 0.270550 -0.089881
N2    N     N_1   0.500020 0.499980 0.729450 -0.089759
O1    O     O_R   0.500000 0.378020 0.573650 -0.608361
O2    O     O_R   0.500000 0.621980 0.426350 -0.611418
O3    O     O_R   0.500040 0.378020 0.426320 -0.608279
O4    O     O_R   0.499960 0.621980 0.573680 -0.610451
O5    O     O_R   0.376760 0.499990 0.573650 -0.614707
O6    O     O_R   0.623240 0.500010 0.426350 -0.614675
O7    O     O_R   0.376800 0.499990 0.426320 -0.610322
O8    O     O_R   0.623200 0.500010 0.573680 -0.610115
Zn1   Zn    Zn3+2 0.499970 0.500000 0.598370 0.970849
Zn2   Zn    Zn3+2 0.500030 0.500000 0.401630 0.970305

loop_
_geom_bond_atom_site_label_1
_geom_bond_atom_site_label_2
_ccdc_geom_bond_type
C39   H24   S    
C66   C68   A    
C74   H61   S    
C11   C18   S    
C34   C56   A    
C16   C21   S    
C23   C45   A    
C45   C55   S    
C51   H41   S    
C73   C74   A    
C71   H58   S    
C28   C69   S    
C50   H40   S    
C31   H45   S    
C75   C76   S    
C2    C12   S    
C57   H46   S    
C39   H22   S    
C59   H48   S    
C53   C54   A    
C54   H44   S    
C37   C38   S    
C30   H56   S    
C63   H51   S    
C48   H32   S    
C36   C37   S    
C33   H6    S    
C24   C26   S    
C14   C36   S    
C30   C31   S    
C35   H4    S    
O8    Zn1   S    
C75   H68   S    
C23   C67   S    
C49   C54   A    
C38   H10   S    
C17   C20   S    
C81   H71   S    
C37   H13   S    
C14   C24   S    
C49   C50   A    
C19   C26   T    
C42   H30   S    
C61   H50   S    
N1    Zn2   S    
C15   C22   S    
C32   H8    S    
N2    Zn1   S    
C32   H7    S    
C76   H65   S    
C75   H69   S    
C22   C25   S    
C41   H17   S    
C46   H39   S    
C70   C71   A    
C43   H28   S    
C23   C27   A    
C29   C30   S    
O1    Zn1   S    
C44   H27   S    
O3    Zn2   S    
C47   H37   S    
C28   C34   A    
C59   C60   A    
C11   O5    A    
C31   H23   S    
C68   H55   S    
C9    N2    T    
C18   C25   T    
C43   H29   S    
C79   H76   S    
C4    C7    A    
C60   H49   S    
C80   H74   S    
C29   H78   S    
C73   H60   S    
C44   H26   S    
C72   H59   S    
C64   H52   S    
C28   C45   A    
C17   C24   S    
C13   C19   S    
C51   C52   A    
C14   C20   S    
C76   C77   S    
C29   H77   S    
C3    C8    A    
C39   C40   S    
C5    C7    A    
C27   C56   A    
C72   C73   A    
C13   O6    A    
O5    Zn1   S    
C3    C5    A    
C1    C82   S    
C63   C64   A    
C38   H9    S    
C8    C75   S    
C81   H72   S    
C79   C80   S    
C37   H14   S    
C60   C61   A    
C47   H36   S    
C43   C44   S    
C5    C9    S    
C62   C63   A    
C27   C62   S    
C12   O2    A    
C78   C82   T    
C42   H31   S    
C47   C48   S    
C1    O3    A    
C50   C51   A    
C41   H18   S    
C46   H38   S    
C69   C74   A    
C15   C39   S    
C65   H53   S    
C53   H43   S    
C48   H33   S    
C4    H12   S    
C4    C6    A    
C40   C41   S    
C20   C22   S    
C2    C67   T    
C10   N1    T    
C55   C57   A    
C3    H1    S    
C20   C46   S    
O7    Zn2   S    
C14   C16   S    
O2    Zn2   S    
C42   C43   S    
C49   C56   S    
C77   H63   S    
C31   H34   S    
C52   C53   A    
C80   H73   S    
C7    C79   S    
C44   H25   S    
C15   C17   S    
C46   C47   S    
C13   O8    A    
C16   C22   S    
C36   H15   S    
C80   C81   S    
C30   H67   S    
C79   H75   S    
C6    C8    A    
C35   H2    S    
C11   O7    A    
C48   H35   S    
C81   H70   S    
C62   C68   A    
C32   C33   S    
C33   H5    S    
C77   H62   S    
C71   C72   A    
C64   C65   A    
C40   H21   S    
C12   O4    A    
C52   H42   S    
C16   C29   S    
C57   C58   A    
C15   C21   S    
C55   C61   A    
C38   H11   S    
C33   C35   S    
C41   H19   S    
C66   H54   S    
C1    O1    A    
C69   C70   A    
C58   C59   A    
O4    Zn1   S    
C6    C10   S    
C40   H20   S    
C21   C42   S    
C35   H3    S    
O6    Zn2   S    
C76   H66   S    
C65   C66   A    
C21   C24   S    
C17   C32   S    
C36   H16   S    
C58   H47   S    
C77   H64   S    
C34   C78   S    
C70   H57   S    
