data_mof_unit_60474.cif
_audit_creation_date              2012-12-10T19:18:41-0500
_audit_creation_method            fapswitch 2.2
_symmetry_space_group_name_H-M    P1
_symmetry_Int_Tables_number       1
_space_group_crystal_system       triclinic
_cell_length_a                    14.759518
_cell_length_b                    15.995792
_cell_length_c                    17.352556
_cell_angle_alpha                 90.023854
_cell_angle_beta                  84.979027
_cell_angle_gamma                 89.977946
_cell_volume                      4081.04693717

loop_
_atom_site_label
_atom_site_type_symbol
_atom_type_description
_atom_site_fract_x
_atom_site_fract_y
_atom_site_fract_z
_atom_type_partial_charge
Br1   Br    Br    0.684593 0.606522 0.269192 -0.408472
Br2   Br    Br    0.315419 0.393473 0.730815 -0.408473
C1    C     C_R   0.500012 0.659165 0.499947 0.832163
C2    C     C_1   0.499991 0.823332 0.499913 -0.046979
C3    C     C_1   0.499996 0.748284 0.499914 -0.142077
C4    C     C_1   0.500004 0.251716 0.500089 -0.142076
C5    C     C_R   0.054967 0.514032 0.431433 -0.150845
C6    C     C_R   0.945033 0.485968 0.568566 -0.150844
C7    C     C_R   0.097132 0.499972 0.500012 0.033475
C8    C     C_R   0.902868 0.500028 0.499988 0.033474
C9    C     C_R   0.040848 0.485937 0.568579 -0.126802
C10   C     C_R   0.959152 0.514063 0.431421 -0.126800
C11   C     C_1   0.197266 0.499969 0.500025 0.158097
C12   C     C_R   0.499987 0.340835 0.500053 0.832168
C13   C     C_1   0.802734 0.500031 0.499975 0.158101
C14   C     C_R   0.487315 0.498323 0.650293 0.859158
C15   C     C_R   0.512684 0.501679 0.349707 0.859156
C16   C     C_R   0.478336 0.498836 0.734735 -0.183476
C17   C     C_R   0.521663 0.501174 0.265265 -0.183479
C18   C     C_R   0.544054 0.541616 0.772901 -0.235097
C19   C     C_R   0.455939 0.458407 0.227096 -0.235096
C20   C     C_R   0.538288 0.544182 0.853001 -0.216592
C21   C     C_R   0.461701 0.455854 0.146996 -0.216588
C22   C     C_R   0.467191 0.502900 0.896349 -0.007789
C23   C     C_R   0.430893 0.043649 0.543431 -0.152849
C24   C     C_R   0.532799 0.497136 0.103650 -0.007787
C25   C     C_R   0.400072 0.461416 0.858710 0.619539
C26   C     C_R   0.599925 0.538608 0.141292 0.619535
C27   C     C_R   0.405473 0.458427 0.778019 0.175100
C28   C     C_R   0.594528 0.541584 0.221983 0.175102
C29   C     C_2   0.462406 0.501668 0.981048 -0.139772
C30   C     C_2   0.537583 0.498377 0.018950 -0.139765
C31   C     C_R   0.569108 0.956350 0.456576 -0.152849
C32   C     C_R   0.500014 0.087214 0.500060 0.143585
C33   C     C_R   0.499987 0.912786 0.499946 0.143585
C34   C     C_R   0.569121 0.043598 0.456633 -0.164841
C35   C     C_R   0.430880 0.956401 0.543374 -0.164841
C36   C     C_1   0.500009 0.176668 0.500092 -0.046977
Cu1   Cu    Cu3+1 0.410780 0.500000 0.499980 1.019815
Cu2   Cu    Cu3+1 0.589220 0.500000 0.500020 1.019817
F1    F     F_    0.331182 0.421210 0.900580 -0.629167
F2    F     F_    0.668817 0.578813 0.099425 -0.629166
H1    H     H_    0.599569 0.574041 0.740615 0.182919
H2    H     H_    0.622785 0.922933 0.422850 0.155660
H3    H     H_    0.928981 0.525092 0.377638 0.160604
H4    H     H_    0.071018 0.474908 0.622361 0.160601
H5    H     H_    0.096209 0.525034 0.377657 0.143294
H6    H     H_    0.903791 0.474966 0.622343 0.143294
H7    H     H_    0.400422 0.425983 0.259378 0.182922
H8    H     H_    0.604462 0.499076 0.987420 0.196746
H9    H     H_    0.395527 0.500970 0.012579 0.196743
H10   H     H_    0.410857 0.420930 0.119177 0.185674
H11   H     H_    0.589127 0.579114 0.880817 0.185673
H12   H     H_    0.377197 0.923023 0.577061 0.148621
H13   H     H_    0.622804 0.076977 0.422945 0.148621
H14   H     H_    0.377217 0.077067 0.577156 0.155660
N1    N     N_1   0.723290 0.500020 0.499980 -0.141927
N2    N     N_1   0.276710 0.499980 0.500020 -0.141929
O1    O     O_R   0.424680 0.619690 0.499960 -0.575767
O2    O     O_R   0.575320 0.380310 0.500040 -0.575766
O3    O     O_R   0.575360 0.619690 0.500000 -0.560884
O4    O     O_R   0.424640 0.380310 0.500000 -0.560883
O5    O     O_R   0.415920 0.500010 0.613580 -0.542071
O6    O     O_R   0.584080 0.499990 0.386420 -0.542069
O7    O     O_R   0.566610 0.500010 0.613610 -0.589053
O8    O     O_R   0.433390 0.499990 0.386390 -0.589054

loop_
_geom_bond_atom_site_label_1
_geom_bond_atom_site_label_2
_ccdc_geom_bond_type
C23   H14   S    
C6    H6    S    
C4    C36   T    
C24   C30   S    
C17   C19   A    
Cu2   O2    S    
C14   O5    A    
C25   C27   A    
Cu1   O5    S    
C25   F1    S    
C24   C26   A    
C29   C30   D    
Cu2   O6    S    
C22   C25   A    
C23   C32   A    
Cu2   O7    S    
Cu1   O1    S    
C31   C34   A    
C26   C28   A    
C15   O8    A    
C22   C29   S    
C15   O6    A    
C16   C27   A    
C13   N1    T    
C30   H8    S    
C21   H10   S    
C8    C10   A    
C6    C9    A    
C35   H12   S    
Cu1   N2    S    
C26   F2    S    
Br1   C28   S    
C31   C33   A    
C18   C20   A    
C20   H11   S    
C32   C34   A    
C8    C13   S    
C7    C9    A    
C19   C21   A    
C5    C10   A    
Cu1   O8    S    
C20   C22   A    
C2    C33   S    
C4    C12   S    
C19   H7    S    
C1    O3    A    
C12   O4    A    
C5    C7    A    
Cu1   Cu2   S    
C18   H1    S    
Br2   C27   S    
C33   C35   A    
C16   C18   A    
C6    C8    A    
C21   C24   A    
C29   H9    S    
C12   O2    A    
C34   H13   S    
Cu1   O4    S    
C7    C11   S    
C2    C3    T    
C9    H4    S    
C14   O7    A    
C11   N2    T    
C31   H2    S    
C15   C17   S    
C32   C36   S    
C17   C28   A    
Cu2   N1    S    
C14   C16   S    
Cu2   O3    S    
C5    H5    S    
C23   C35   A    
C10   H3    S    
C1    C3    S    
C1    O1    A    
