data_mof_unit_11795.cif
_audit_creation_date              2012-12-10T16:32:41-0500
_audit_creation_method            fapswitch 2.2
_symmetry_space_group_name_H-M    P1
_symmetry_Int_Tables_number       1
_space_group_crystal_system       triclinic
_cell_length_a                    16.968236
_cell_length_b                    16.968208
_cell_length_c                    16.862856
_cell_angle_alpha                 65.327844
_cell_angle_beta                  65.328478
_cell_angle_gamma                 65.007139
_cell_volume                      3823.71145846

loop_
_atom_site_label
_atom_site_type_symbol
_atom_type_description
_atom_site_fract_x
_atom_site_fract_y
_atom_site_fract_z
_atom_type_partial_charge
C1    C     C_R   0.589832 0.025224 0.599281 -0.137489
C2    C     C_R   0.822093 0.567557 0.027925 0.941887
C3    C     C_3   0.853057 0.778869 0.792027 -0.852051
C4    C     C_3   0.182079 0.229821 0.137624 0.155203
C5    C     C_3   0.221384 0.147129 0.208017 -0.852755
C6    C     C_R   0.433648 0.971985 0.177943 0.971437
C7    C     C_R   0.561062 0.040648 0.820964 0.832973
C8    C     C_R   0.574793 0.835087 0.998518 0.953943
C9    C     C_R   0.432456 0.177907 0.972053 0.941979
C10   C     C_R   0.027994 0.566364 0.822061 0.971360
C11   C     C_R   0.959364 0.438933 0.179036 0.833212
C12   C     C_R   0.822043 0.027109 0.567542 0.983777
C13   C     C_R   0.179002 0.964354 0.437044 0.924251
C14   C     C_R   0.541660 0.013828 0.550440 0.261880
C15   C     C_R   0.402565 0.981616 0.408185 -0.153452
C16   C     C_R   0.450702 0.993966 0.456097 0.272568
C17   C     C_R   0.006023 0.549313 0.543904 0.272641
C18   C     C_R   0.986158 0.458340 0.449579 0.262267
C19   C     C_R   0.544089 0.552877 0.004933 0.186435
C20   C     C_R   0.447217 0.455981 0.994811 0.186513
C21   C     C_R   0.552928 0.927330 0.549493 -0.172255
C22   C     C_R   0.438852 0.080514 0.457261 -0.169711
C23   C     C_R   0.082415 0.491728 0.497682 -0.199943
C24   C     C_R   0.909597 0.515542 0.496453 -0.165888
C25   C     C_R   0.452006 0.591903 0.007013 -0.185749
C26   C     C_R   0.018375 0.597456 0.591814 -0.153304
C27   C     C_R   0.536915 0.413679 0.000949 -0.200034
C28   C     C_R   0.508500 0.917600 0.502084 -0.200073
C29   C     C_R   0.484240 0.090366 0.503794 -0.165720
C30   C     C_R   0.408215 0.548091 0.992627 -0.185777
C31   C     C_R   0.586379 0.463150 0.998868 -0.200054
C32   C     C_R   0.072679 0.447289 0.450286 -0.172473
C33   C     C_R   0.919448 0.560932 0.542984 -0.169611
C34   C     C_R   0.541075 0.056940 0.676014 0.343870
C35   C     C_R   0.437436 0.991968 0.314629 0.337527
C36   C     C_R   0.037243 0.680506 0.544981 0.311629
C37   C     C_R   0.974765 0.410167 0.400745 -0.137593
C38   C     C_R   0.995735 0.315203 0.430095 0.317015
C39   C     C_R   0.673588 0.562163 0.038246 0.319713
C40   C     C_R   0.297892 0.429677 0.025829 0.334137
C41   C     C_R   0.319473 0.962838 0.454992 0.311597
C42   C     C_R   0.684804 0.004193 0.569979 0.317075
C43   C     C_R   0.437903 0.326427 0.961615 0.319731
C44   C     C_R   0.570393 0.702197 0.973971 0.334200
C45   C     C_R   0.943119 0.458913 0.323972 0.343809
C46   C     C_R   0.007936 0.562643 0.685388 0.337535
C47   C     C_R   0.589654 0.066044 0.721653 -0.280792
C48   C     C_R   0.596159 0.605976 0.005604 -0.131804
C49   C     C_R   0.399432 0.963295 0.273935 -0.307098
C50   C     C_R   0.051791 0.723577 0.592562 -0.302040
C51   C     C_R   0.965351 0.273484 0.394905 -0.275605
C52   C     C_R   0.731986 0.612364 0.018578 -0.282067
C53   C     C_R   0.252611 0.381794 0.017401 -0.331651
C54   C     C_R   0.276413 0.948266 0.407418 -0.301877
C55   C     C_R   0.726520 0.034625 0.605125 -0.275742
C56   C     C_R   0.387679 0.268027 0.981344 -0.282069
C57   C     C_R   0.618251 0.747460 0.982460 -0.331657
C58   C     C_R   0.933997 0.410337 0.278343 -0.280772
C59   C     C_R   0.394109 0.403894 0.994192 -0.131797
C60   C     C_R   0.036666 0.600601 0.726073 -0.307236
C61   C     C_R   0.676311 0.074432 0.675335 0.312082
C62   C     C_R   0.325144 0.931215 0.324689 0.295137
C63   C     C_R   0.068801 0.674856 0.675311 0.295315
C64   C     C_R   0.925579 0.323691 0.324669 0.311994
C65   C     C_R   0.707715 0.705877 0.979083 0.341231
C66   C     C_R   0.294172 0.292319 0.020842 0.341214
C67   C     C_3   0.400009 0.158590 0.708349 0.140884
C68   C     C_3   0.299662 0.172711 0.728489 -0.808563
C69   C     C_3   0.471198 0.124640 0.226125 0.141754
C70   C     C_R   0.972881 0.177958 0.432465 0.983800
C71   C     C_3   0.542074 0.171675 0.196623 -0.795869
C72   C     C_3   0.113073 0.709398 0.393096 0.138049
C73   C     C_3   0.099662 0.728214 0.302437 -0.832362
C74   C     C_3   0.126899 0.221618 0.467409 0.122942
C75   C     C_3   0.172058 0.187686 0.541625 -0.729219
C76   C     C_3   0.645080 0.461651 0.180611 0.117109
C77   C     C_3   0.612812 0.378017 0.220770 -0.850667
C78   C     C_3   0.211054 0.472867 0.154858 0.110234
C79   C     C_3   0.159590 0.554940 0.190936 -0.760057
C80   C     C_3   0.290639 0.887101 0.606892 0.138101
C81   C     C_R   0.035674 0.820996 0.562944 0.924159
C82   C     C_3   0.271559 0.900620 0.697575 -0.832165
C83   C     C_3   0.778447 0.872933 0.532895 0.122651
C84   C     C_3   0.812376 0.827587 0.458827 -0.729163
C85   C     C_3   0.538425 0.354876 0.819245 0.117066
C86   C     C_3   0.621999 0.387240 0.779097 -0.850626
C87   C     C_3   0.527271 0.789078 0.844906 0.110099
C88   C     C_3   0.445231 0.840492 0.808773 -0.760052
C89   C     C_3   0.841519 0.600011 0.291701 0.140954
C90   C     C_3   0.827503 0.700362 0.271406 -0.808367
C91   C     C_3   0.875125 0.529196 0.773949 0.141749
C92   C     C_R   0.164975 0.425228 0.001383 0.953928
C93   C     C_3   0.827831 0.458556 0.803333 -0.796064
C94   C     C_3   0.728735 0.129290 0.743579 0.162499
C95   C     C_3   0.795167 0.182508 0.711148 -0.800461
C96   C     C_3   0.329815 0.801415 0.311474 0.115619
C97   C     C_3   0.327476 0.766647 0.242924 -0.820983
C98   C     C_3   0.198595 0.670225 0.688504 0.115678
C99   C     C_3   0.233378 0.672597 0.757024 -0.821032
C100  C     C_3   0.870699 0.271285 0.256427 0.162575
C101  C     C_3   0.817472 0.204857 0.288873 -0.800646
C102  C     C_3   0.770223 0.818014 0.862394 0.154440
H1    H     H_    0.475052 0.157830 0.502878 0.123020
H2    H     H_    0.411660 0.656765 0.019368 0.206149
H3    H     H_    0.287051 0.148989 0.205297 0.207798
H4    H     H_    0.173514 0.146844 0.277375 0.193465
H5    H     H_    0.231553 0.084467 0.194415 0.304876
H6    H     H_    0.842119 0.524561 0.497541 0.122874
H7    H     H_    0.149802 0.481819 0.497661 0.115590
H8    H     H_    0.422966 0.205443 0.639583 0.109098
H9    H     H_    0.407759 0.176793 0.760330 0.150451
H10   H     H_    0.273960 0.128206 0.797414 0.258460
H11   H     H_    0.260286 0.244736 0.726142 0.211370
H12   H     H_    0.289807 0.155978 0.676856 0.252469
H13   H     H_    0.409575 0.156428 0.275108 0.086486
H14   H     H_    0.452191 0.137914 0.165183 0.150656
H15   H     H_    0.518564 0.850232 0.501933 0.115645
H16   H     H_    0.602606 0.145519 0.143494 0.260438
H17   H     H_    0.513011 0.246073 0.168192 0.192858
H18   H     H_    0.563000 0.159093 0.256145 0.256891
H19   H     H_    0.157853 0.638175 0.411615 0.106630
H20   H     H_    0.147539 0.756426 0.384888 0.162567
H21   H     H_    0.061650 0.800906 0.277862 0.252673
H22   H     H_    0.166547 0.712203 0.250883 0.200404
H23   H     H_    0.060604 0.685202 0.310959 0.272805
H24   H     H_    0.162464 0.267174 0.405941 0.075770
H25   H     H_    0.136211 0.162259 0.448527 0.161699
H26   H     H_    0.859482 0.604928 0.578094 0.111229
H27   H     H_    0.139294 0.140083 0.602995 0.271043
H28   H     H_    0.244983 0.151423 0.516925 0.218819
H29   H     H_    0.165830 0.245912 0.560448 0.233229
H30   H     H_    0.583977 0.520931 0.193981 0.120275
H31   H     H_    0.691505 0.452192 0.216918 0.152552
H32   H     H_    0.669832 0.318683 0.202548 0.266388
H33   H     H_    0.586034 0.362284 0.296225 0.209124
H34   H     H_    0.557779 0.390730 0.193618 0.252229
H35   H     H_    0.266125 0.428207 0.187953 0.116371
H36   H     H_    0.162544 0.435351 0.173623 0.128980
H37   H     H_    0.133026 0.405825 0.412849 0.118790
H38   H     H_    0.103558 0.600262 0.159753 0.280865
H39   H     H_    0.130210 0.532596 0.265950 0.213485
H40   H     H_    0.206511 0.593301 0.174093 0.231936
H41   H     H_    0.361943 0.842446 0.588453 0.106785
H42   H     H_    0.243794 0.852457 0.615024 0.162335
H43   H     H_    0.198812 0.938564 0.722036 0.252634
H44   H     H_    0.287569 0.833771 0.749178 0.200373
H45   H     H_    0.314430 0.939788 0.689140 0.272745
H46   H     H_    0.732916 0.837410 0.594450 0.075651
H47   H     H_    0.837812 0.863738 0.551697 0.161677
H48   H     H_    0.657643 0.429486 0.993411 0.204684
H49   H     H_    0.859955 0.860309 0.397378 0.271216
H50   H     H_    0.848668 0.754694 0.483637 0.218791
H51   H     H_    0.754151 0.833684 0.440090 0.233087
H52   H     H_    0.479115 0.415928 0.805840 0.120207
H53   H     H_    0.547969 0.308402 0.782951 0.152614
H54   H     H_    0.681350 0.330279 0.797361 0.266402
H55   H     H_    0.637759 0.413976 0.703638 0.209110
H56   H     H_    0.609193 0.442330 0.806216 0.252246
H57   H     H_    0.571998 0.734023 0.811802 0.116343
H58   H     H_    0.564731 0.837625 0.826190 0.128975
H59   H     H_    0.343377 0.588430 0.980210 0.206082
H60   H     H_    0.399840 0.896506 0.839966 0.280893
H61   H     H_    0.467605 0.869894 0.733762 0.213511
H62   H     H_    0.406933 0.793528 0.825564 0.231897
H63   H     H_    0.794722 0.577133 0.360535 0.109153
H64   H     H_    0.823181 0.592212 0.239843 0.150344
H65   H     H_    0.871958 0.725986 0.202415 0.258412
H66   H     H_    0.755470 0.739773 0.273828 0.211369
H67   H     H_    0.844373 0.710266 0.322917 0.252533
H68   H     H_    0.843415 0.590975 0.725015 0.086241
H69   H     H_    0.861988 0.548038 0.834954 0.150737
H70   H     H_    0.394691 0.140457 0.422323 0.111098
H71   H     H_    0.853871 0.397899 0.856452 0.260490
H72   H     H_    0.753463 0.487787 0.831741 0.192901
H73   H     H_    0.840304 0.437768 0.743753 0.256830
H74   H     H_    0.764296 0.055792 0.770287 0.143616
H75   H     H_    0.670937 0.153945 0.799320 0.183292
H76   H     H_    0.764906 0.255042 0.676893 0.259949
H77   H     H_    0.811876 0.177900 0.770285 0.191835
H78   H     H_    0.858926 0.154402 0.662301 0.290726
H79   H     H_    0.288674 0.771065 0.380711 0.104294
H80   H     H_    0.402165 0.777948 0.311160 0.113200
H81   H     H_    0.594544 0.866987 0.586766 0.119081
H82   H     H_    0.258933 0.796563 0.233122 0.259590
H83   H     H_    0.377733 0.786380 0.176184 0.279710
H84   H     H_    0.344445 0.691367 0.267643 0.186331
H85   H     H_    0.228911 0.711381 0.619258 0.104321
H86   H     H_    0.222084 0.597872 0.688821 0.113174
H87   H     H_    0.213648 0.622357 0.823780 0.279705
H88   H     H_    0.308658 0.655625 0.732294 0.186322
H89   H     H_    0.203472 0.741153 0.766794 0.259566
H90   H     H_    0.944194 0.235718 0.229719 0.143631
H91   H     H_    0.846041 0.329081 0.200684 0.183286
H92   H     H_    0.570557 0.342400 0.006465 0.204602
H93   H     H_    0.744938 0.235132 0.323114 0.259933
H94   H     H_    0.822085 0.188130 0.229745 0.191843
H95   H     H_    0.845566 0.141107 0.337735 0.290738
H96   H     H_    0.776200 0.881230 0.861140 0.166212
H97   H     H_    0.709183 0.838831 0.840353 0.067012
H98   H     H_    0.851314 0.713224 0.794571 0.207740
H99   H     H_    0.853417 0.826830 0.722683 0.193609
H100  H     H_    0.915612 0.768699 0.805813 0.304932
H101  H     H_    0.118905 0.223640 0.138997 0.166066
H102  H     H_    0.161145 0.290969 0.159548 0.066994
O1    O     O_R   0.982940 0.138950 0.510160 -0.603251
O2    O     O_R   0.982940 0.510160 0.138950 -0.592296
O3    O     O_R   0.861050 0.017060 0.489840 -0.603231
O4    O     O_R   0.138950 0.982940 0.510160 -0.604104
O5    O     O_R   0.867700 0.025880 0.612340 -0.641504
O6    O     O_R   0.132300 0.974120 0.387660 -0.594769
O7    O     O_R   0.025880 0.612340 0.867700 -0.577077
O8    O     O_R   0.974120 0.387660 0.132300 -0.696839
O9    O     O_R   0.612340 0.867700 0.025880 -0.599007
O10   O     O_R   0.387660 0.132300 0.974120 -0.580334
O11   O     O_R   0.387660 0.974120 0.132300 -0.577048
O12   O     O_R   0.017060 0.861050 0.489840 -0.604139
O13   O     O_R   0.612340 0.025880 0.867700 -0.696921
O14   O     O_R   0.132300 0.387660 0.974120 -0.599040
O15   O     O_R   0.867700 0.612340 0.025880 -0.580316
O16   O     O_R   0.974120 0.132300 0.387660 -0.641486
O17   O     O_R   0.025880 0.867700 0.612340 -0.594779
O18   O     O_3   0.448775 0.066623 0.711854 -0.586840
O19   O     O_3   0.508085 0.029984 0.264264 -0.562407
O20   O     O_3   0.027002 0.724414 0.458391 -0.580358
O21   O     O_3   0.033577 0.266161 0.501618 -0.569658
O22   O     O_3   0.693633 0.471108 0.087208 -0.603909
O23   O     O_R   0.138950 0.510160 0.982940 -0.594371
O24   O     O_3   0.247604 0.503679 0.059340 -0.600266
O25   O     O_3   0.275541 0.973138 0.541557 -0.580368
O26   O     O_3   0.733871 0.966216 0.498555 -0.569645
O27   O     O_3   0.528958 0.306352 0.912659 -0.603914
O28   O     O_3   0.496419 0.752510 0.940419 -0.600291
O29   O     O_3   0.933496 0.551200 0.288102 -0.586817
O30   O     O_3   0.969739 0.492126 0.735785 -0.562412
O31   O     O_3   0.696232 0.148011 0.671018 -0.600233
O32   O     O_3   0.292342 0.897035 0.287284 -0.558768
O33   O     O_3   0.102972 0.707653 0.712729 -0.558727
O34   O     O_R   0.861050 0.489840 0.017060 -0.615157
O35   O     O_3   0.851986 0.303798 0.328978 -0.600229
O36   O     O_3   0.766898 0.756004 0.951453 -0.561242
O37   O     O_3   0.244024 0.233135 0.048541 -0.561298
O38   O     O_R   0.510160 0.982940 0.138950 -0.595242
O39   O     O_R   0.489840 0.017060 0.861050 -0.592369
O40   O     O_R   0.489840 0.861050 0.017060 -0.594373
O41   O     O_R   0.510160 0.138950 0.982940 -0.615194
O42   O     O_R   0.017060 0.489840 0.861050 -0.595268
Zn1   Zn    Zn3+2 0.004880 0.004880 0.583590 0.963601
Zn2   Zn    Zn3+2 0.995120 0.995120 0.416410 0.963688
Zn3   Zn    Zn3+2 0.004880 0.583590 0.004880 1.010531
Zn4   Zn    Zn3+2 0.995120 0.416410 0.995120 0.956035
Zn5   Zn    Zn3+2 0.583590 0.004880 0.004880 0.955927
Zn6   Zn    Zn3+2 0.416410 0.995120 0.995120 1.010595

loop_
_geom_bond_atom_site_label_1
_geom_bond_atom_site_label_2
_ccdc_geom_bond_type
C87   O28   S    
C16   C28   A    
C72   H20   S    
C87   C88   S    
C69   H14   S    
C22   C29   A    
C90   H65   S    
C43   C56   A    
C85   O27   S    
O6    Zn2   S    
C80   O25   S    
C19   C31   A    
O3    Zn2   S    
C82   H45   S    
C79   H39   S    
C98   O33   S    
C20   C30   A    
C85   C86   S    
C70   O1    A    
C97   H83   S    
C91   O30   S    
C98   H85   S    
C71   H18   S    
C60   C63   A    
C18   C24   A    
O38   Zn5   S    
C46   O30   S    
C14   C21   A    
C18   C37   S    
C45   O29   S    
C12   O5    A    
C74   O21   S    
C28   H15   S    
C102  H96   S    
C68   H10   S    
C72   H19   S    
C5    H5    S    
C101  H95   S    
C94   O31   S    
C4    H102  S    
C81   O12   A    
C8    O40   A    
C9    C56   S    
C15   C16   S    
C72   O20   S    
C93   H72   S    
C87   H58   S    
C29   H1    S    
C100  O35   S    
C85   H53   S    
C89   O29   S    
C69   C71   S    
O2    Zn3   S    
C86   H54   S    
C39   O22   S    
C98   H86   S    
C95   H76   S    
C96   H79   S    
C6    O11   A    
C83   C84   S    
C92   O23   A    
C64   O35   S    
C35   C49   A    
C56   C66   A    
C65   O36   S    
O9    Zn5   S    
C10   O42   A    
C51   C70   S    
C11   C58   S    
C9    O41   A    
O5    Zn1   S    
C91   H68   S    
C101  H94   S    
C43   C59   A    
C68   H11   S    
O23   Zn3   S    
C79   H40   S    
C90   H66   S    
C73   H22   S    
C79   H38   S    
O41   Zn5   S    
C40   C59   A    
O34   Zn4   S    
C58   C64   A    
C50   C63   A    
O14   Zn4   S    
C100  H90   S    
O11   Zn6   S    
C17   C33   A    
O13   Zn5   S    
C78   H36   S    
C15   C35   A    
C82   H44   S    
C75   H29   S    
C1    C34   A    
C5    H4    S    
C11   O8    A    
C78   O24   S    
C97   H84   S    
C23   H7    S    
C67   H9    S    
C45   C58   A    
C62   O32   S    
C74   C75   S    
C27   C31   A    
C67   C68   S    
C12   O3    A    
C76   C77   S    
C15   C41   A    
C32   H37   S    
C80   C82   S    
C8    O9    A    
C96   H80   S    
C99   H87   S    
C31   H48   S    
C78   C79   S    
C2    O34   A    
C4    H101  S    
C5    H3    S    
C38   C51   A    
O17   Zn1   S    
C80   H42   S    
C88   H62   S    
C76   O22   S    
C93   H73   S    
C33   H26   S    
C70   O16   A    
C83   O26   S    
C69   O19   S    
C94   H75   S    
C7    C47   S    
C40   O24   S    
C67   O18   S    
C10   C60   S    
C84   H49   S    
C63   O33   S    
C37   C38   A    
C35   O19   S    
C8    C57   S    
C91   C93   S    
C84   H51   S    
C95   H78   S    
C67   H8    S    
C74   H25   S    
C73   H23   S    
C44   C57   A    
C80   H41   S    
C96   C97   S    
C53   C92   S    
C3    H98   S    
C96   O32   S    
C13   O4    A    
C27   H92   S    
C17   C23   A    
O7    Zn3   S    
C20   C59   S    
C92   O14   A    
C53   C66   A    
C86   H56   S    
C89   H63   S    
C2    C52   S    
C38   O21   S    
C24   H6    S    
C84   H50   S    
C3    C102  S    
C26   C36   A    
C11   O2    A    
C21   C28   A    
C41   O25   S    
C40   C53   A    
C91   H69   S    
O10   Zn6   S    
C2    O15   A    
C61   O31   S    
C89   H64   S    
C18   C32   A    
C77   H32   S    
C17   C26   S    
C14   C29   A    
C37   C45   A    
C78   H35   S    
C42   O26   S    
C4    O37   S    
C82   H43   S    
C36   C50   A    
C97   H82   S    
C13   C54   S    
O42   Zn4   S    
C95   H77   S    
C25   C30   A    
C21   H81   S    
C36   O20   S    
C69   H13   S    
C16   C22   A    
O39   Zn6   S    
O40   Zn6   S    
C71   H16   S    
C46   C60   A    
C19   C48   S    
C13   O6    A    
C72   C73   S    
C10   O7    A    
C6    O38   A    
C51   C64   A    
C3    H99   S    
C57   C65   A    
C4    C5    S    
O1    Zn1   S    
C47   C61   A    
C99   H88   S    
C76   H31   S    
C75   H28   S    
C25   H2    S    
C1    C14   S    
C66   O37   S    
C20   C27   A    
C9    O10   A    
O12   Zn2   S    
C88   H61   S    
C81   O17   A    
C102  O36   S    
C24   C33   A    
C71   H17   S    
C23   C32   A    
C100  H91   S    
C44   O28   S    
O4    Zn1   S    
C101  H93   S    
C44   C48   A    
C102  H97   S    
C99   H89   S    
C76   H30   S    
C68   H12   S    
C74   H24   S    
C42   C55   A    
C88   H60   S    
C55   C61   A    
C90   H67   S    
C93   H71   S    
C100  C101  S    
C87   H57   S    
C39   C52   A    
C43   O27   S    
C85   H52   S    
C6    C49   S    
O16   Zn2   S    
C94   C95   S    
C19   C25   A    
C86   H55   S    
C41   C54   A    
C12   C55   S    
C26   C46   A    
C83   H46   S    
C7    O13   A    
C77   H34   S    
C75   H27   S    
C1    C42   A    
C98   C99   S    
O15   Zn3   S    
C7    O39   A    
C3    H100  S    
C54   C62   A    
C49   C62   A    
C34   C47   A    
C77   H33   S    
C30   H59   S    
C89   C90   S    
O8    Zn4   S    
C22   H70   S    
C52   C65   A    
C34   O18   S    
C50   C81   S    
C94   H74   S    
C39   C48   A    
C83   H47   S    
C73   H21   S    
