data_mof_unit_8096.cif
_audit_creation_date              2013-03-05T15:50:12-0500
_audit_creation_method            fapswitch 2.2
_symmetry_space_group_name_H-M    P1
_symmetry_Int_Tables_number       1
_space_group_crystal_system       triclinic
_cell_length_a                    14.894222
_cell_length_b                    15.822466
_cell_length_c                    9.550934
_cell_angle_alpha                 89.804837
_cell_angle_beta                  91.269243
_cell_angle_gamma                 90.032609
_cell_volume                      2250.23925008

loop_
_atom_site_label
_atom_site_type_symbol
_atom_site_description
_atom_site_fract_x
_atom_site_fract_y
_atom_site_fract_z
_atom_type_partial_charge
O1    O     O_R   0.409820 0.909830 0.618810 -0.582530
O2    O     O_R   0.409820 0.090170 0.618810 -0.583338
O3    O     O_R   0.909820 0.409830 0.618810 -0.583535
O4    O     O_R   0.909820 0.590170 0.618810 -0.582658
O5    O     O_R   0.409840 0.909830 0.381240 -0.585739
O6    O     O_R   0.409840 0.090170 0.381240 -0.584878
O7    O     O_R   0.909840 0.409830 0.381240 -0.572047
O8    O     O_R   0.909840 0.590170 0.381240 -0.588067
C1    C     C_R   0.386326 0.876938 0.499615 0.807661
C2    C     C_R   0.386392 0.123105 0.499343 0.804824
C3    C     C_R   0.886715 0.376513 0.500232 0.809986
C4    C     C_R   0.886520 0.623134 0.499267 0.806714
Cu1   Cu    Cu3+1 0.499990 1.000000 0.640660 0.909079
Cu2   Cu    Cu3+1 0.999990 0.500000 0.640660 0.910567
Cu3   Cu    Cu3+1 0.500010 1.000000 0.359340 0.913123
Cu4   Cu    Cu3+1 0.000010 0.500000 0.359340 0.926064
O9    O     O_R   0.590170 0.090170 0.618760 -0.613609
O10   O     O_R   0.590170 0.909830 0.618760 -0.615397
O11   O     O_R   0.090170 0.590170 0.618760 -0.615510
O12   O     O_R   0.090170 0.409830 0.618760 -0.614848
O13   O     O_R   0.590190 0.090180 0.381190 -0.601542
O14   O     O_R   0.590190 0.909820 0.381190 -0.600303
O15   O     O_R   0.090190 0.590180 0.381190 -0.602677
O16   O     O_R   0.090190 0.409820 0.381190 -0.597624
C5    C     C_R   0.615647 0.122045 0.501664 0.778526
C6    C     C_R   0.616820 0.878748 0.502356 0.778763
C7    C     C_R   0.115864 0.621963 0.501918 0.777123
C8    C     C_R   0.116159 0.378245 0.502209 0.778408
H1    H     H_    0.285789 0.179809 0.281154 0.155446
H2    H     H_    0.287101 0.820041 0.280626 0.156986
H3    H     H_    0.783937 0.678177 0.282371 0.157296
H4    H     H_    0.800472 0.307672 0.278461 0.204041
C9    C     C_R   0.372332 0.242840 0.737729 -0.246458
C10   C     C_R   0.370005 0.757495 0.739656 -0.248755
C11   C     C_R   0.876676 0.744858 0.734455 -0.251086
C12   C     C_R   0.855410 0.270267 0.755480 -0.279843
H5    H     H_    0.441197 0.223300 0.724451 0.153797
H6    H     H_    0.439179 0.776500 0.727245 0.159235
H7    H     H_    0.944914 0.723771 0.719834 0.156360
H8    H     H_    0.924606 0.289548 0.749238 0.158690
C13   C     C_R   0.347420 0.274382 0.868330 0.539785
C14   C     C_R   0.343871 0.725999 0.870088 0.534413
C15   C     C_R   0.854070 0.777892 0.865058 0.538321
C16   C     C_R   0.820042 0.249062 0.887287 0.544681
C17   C     C_R   0.766928 0.806285 0.884470 -0.219791
C18   C     C_R   0.730553 0.223805 0.891409 -0.185138
C19   C     C_R   0.259195 0.300282 0.886054 -0.226680
C20   C     C_R   0.255124 0.701180 0.886694 -0.216861
C21   C     C_R   0.706216 0.810813 0.771481 -0.261923
C22   C     C_R   0.681284 0.208989 0.768207 -0.250017
C23   C     C_R   0.199990 0.305291 0.771217 -0.272369
C24   C     C_R   0.196738 0.696477 0.770871 -0.253340
H9    H     H_    0.638810 0.829106 0.796035 0.190756
H10   H     H_    0.611817 0.191823 0.780043 0.183503
H11   H     H_    0.131836 0.322618 0.793262 0.184183
H12   H     H_    0.128198 0.679626 0.791604 0.187640
C25   C     C_R   0.732344 0.788614 0.634587 0.101984
C26   C     C_R   0.720102 0.220757 0.635556 0.094633
C27   C     C_R   0.228748 0.285577 0.634741 0.103133
C28   C     C_R   0.226910 0.715436 0.634706 0.099506
C29   C     C_R   0.309778 0.240625 0.623897 0.035265
C30   C     C_R   0.308272 0.759981 0.624743 0.034265
C31   C     C_R   0.812672 0.742590 0.622557 0.035170
C32   C     C_R   0.801832 0.265011 0.631115 0.046102
C33   C     C_R   0.325552 0.195483 0.499257 -0.094898
C34   C     C_R   0.325186 0.804776 0.499742 -0.096862
C35   C     C_R   0.826305 0.695900 0.498885 -0.094797
C36   C     C_R   0.825969 0.303752 0.502791 -0.108767
C37   C     C_R   0.273754 0.212397 0.378484 -0.194464
C38   C     C_R   0.274249 0.787691 0.378246 -0.191245
C39   C     C_R   0.773273 0.711894 0.379116 -0.191172
C40   C     C_R   0.781937 0.280472 0.377956 -0.184293
H13   H     H_    0.668056 0.784835 0.286449 0.162115
H14   H     H_    0.683559 0.202140 0.280287 0.169269
H15   H     H_    0.169575 0.286247 0.284713 0.158956
H16   H     H_    0.170823 0.713503 0.283618 0.161385
C41   C     C_R   0.705156 0.771100 0.382732 -0.204303
C42   C     C_R   0.713011 0.222044 0.379567 -0.203515
C43   C     C_R   0.205329 0.271352 0.381727 -0.208788
C44   C     C_R   0.205732 0.728749 0.381052 -0.203036
C45   C     C_R   0.683102 0.809939 0.509113 -0.098016
C46   C     C_R   0.680968 0.191461 0.506991 -0.102236
C47   C     C_R   0.181523 0.308674 0.508555 -0.097666
C48   C     C_R   0.180851 0.691827 0.508013 -0.098548
C49   C     C_R   0.665448 0.004069 0.149662 -0.168564
C50   C     C_R   0.165488 0.501117 0.149790 -0.170519
H17   H     H_    0.673755 0.001061 0.260196 0.208414
H18   H     H_    0.173703 0.500621 0.260406 0.210187
C51   C     C_R   0.745879 0.009614 0.079478 -0.204004
C52   C     C_R   0.246103 0.501358 0.079643 -0.203872
H19   H     H_    0.809043 0.011945 0.137719 0.170409
H20   H     H_    0.309313 0.501488 0.137898 0.180841
C53   C     C_R   0.745541 0.010417 0.935192 -0.180484
C54   C     C_R   0.245795 0.501089 0.935380 -0.170182
H21   H     H_    0.808405 0.013148 0.880505 0.165133
H22   H     H_    0.308729 0.501033 0.880715 0.179870
C55   C     C_R   0.664799 0.005079 0.860407 -0.160984
C56   C     C_R   0.164870 0.500703 0.860495 -0.165582
H23   H     H_    0.672050 0.001705 0.750278 0.212940
H24   H     H_    0.171987 0.499986 0.750207 0.216086
C57   C     C_R   0.581172 0.002402 0.927650 0.166589
C58   C     C_R   0.081206 0.500714 0.927691 0.158293
C59   C     C_R   0.581275 0.002152 0.077510 0.202606
C60   C     C_R   0.081303 0.500845 0.077555 0.196420
N1    N     N_R   0.501200 0.000000 0.147910 -0.195704
N2    N     N_R   0.001200 0.500000 0.147910 -0.201446
C61   C     C_R   0.422679 0.998517 0.071416 -0.129438
C62   C     C_R   0.922690 0.497222 0.071408 -0.067601
H25   H     H_    0.359453 0.996944 0.865295 0.154623
H26   H     H_    0.859476 0.495939 0.865296 0.156454
C63   C     C_R   0.422691 0.998364 0.923123 -0.093850
C64   C     C_R   0.922707 0.497518 0.923138 -0.071415
N3    N     N_R   0.501270 0.000000 0.852040 -0.206498
N4    N     N_R   0.001270 0.500000 0.852040 -0.213316
O17   O     O_3   0.409594 0.286637 0.976076 -0.587274
C65   C     C_3   0.437449 0.207734 0.029698 -0.292139
H27   H     H_    0.479682 0.173790 0.953763 0.160812
H28   H     H_    0.378963 0.168531 0.060295 0.153481
H29   H     H_    0.479327 0.218379 0.125539 0.199538
O18   O     O_3   0.405288 0.712310 0.978537 -0.587377
C66   C     C_3   0.434957 0.790489 0.031894 -0.290719
H30   H     H_    0.377304 0.830973 0.061036 0.152676
H31   H     H_    0.478777 0.823426 0.956465 0.162793
H32   H     H_    0.475729 0.778824 0.128652 0.197911
O19   O     O_3   0.917467 0.788305 0.971634 -0.589839
C67   C     C_3   0.942820 0.708575 0.025055 -0.298038
H33   H     H_    0.983332 0.673252 0.948522 0.160524
H34   H     H_    0.883238 0.671143 0.056663 0.154182
H35   H     H_    0.985669 0.717996 0.120236 0.196405
O20   O     O_3   0.865431 0.258607 0.015692 -0.594479
C68   C     C_3   0.959797 0.256467 0.005362 -0.335871
H36   H     H_    0.985402 0.317379 0.963873 0.172453
H37   H     H_    0.982496 0.202013 0.941623 0.152612
H38   H     H_    0.989464 0.248449 0.112163 0.195461
H39   H     H_    0.746715 0.826977 0.987032 0.168357
H40   H     H_    0.699431 0.212951 0.991358 0.156331
H41   H     H_    0.237193 0.319479 0.988465 0.166248
H42   H     H_    0.232156 0.682229 0.988908 0.166367
H43   H     H_    0.359446 0.997266 0.124947 0.141000
H44   H     H_    0.859463 0.495495 0.124916 0.144590

loop_
_geom_bond_atom_site_label_1
_geom_bond_atom_site_label_2
_geom_bond_distance
_ccdc_geom_bond_type
C67   H33   1.110610 S    
C57   N3    1.378875 A    
C10   C14   1.403129 A    
O3    C3    1.290564 A    
C44   C48   1.401368 A    
C68   H38   1.109531 S    
C50   C60   1.417697 A    
C15   O19   1.383201 S    
C60   N2    1.382231 A    
H4    C40   1.083118 S    
C41   C45   1.401923 A    
C3    C36   1.464295 S    
O7    C3    1.304292 A    
N1    C61   1.365392 A    
C22   H10   1.077825 S    
Cu1   O10   1.974841 S    
C32   C36   1.421710 A    
C7    C48   1.469343 S    
C27   C47   1.428469 A    
C26   C46   1.426274 A    
C58   C60   1.431322 A    
C50   H18   1.060856 S    
C54   C56   1.387878 A    
C16   O20   1.395797 S    
O17   C65   1.407062 S    
C10   C30   1.416536 A    
C21   C25   1.417777 A    
C65   H27   1.110576 S    
C28   C30   1.406415 A    
O8    Cu4   1.974738 S    
O2    Cu1   1.967353 S    
C1    C34   1.460070 S    
C66   H32   1.109486 S    
C40   C42   1.381419 A    
C24   C28   1.416456 A    
H2    C38   1.082814 S    
O6    Cu3   1.974738 S    
Cu3   O14   1.967570 S    
Cu1   N3    2.018545 S    
O10   C6    1.287995 A    
H16   C44   1.083728 S    
C52   C54   1.377776 A    
O15   C7    1.308772 A    
O4    C4    1.294085 A    
C11   C15   1.402058 A    
C35   C39   1.398095 A    
C49   C59   1.417528 A    
Cu4   N2    2.019825 S    
H3    C39   1.083316 S    
Cu4   O16   1.967570 S    
C8    C47   1.470149 S    
O4    Cu2   1.967353 S    
C13   O17   1.383136 S    
C64   N4    1.366324 A    
C55   H23   1.061274 S    
C16   C18   1.392624 A    
C25   C31   1.408035 A    
H1    C37   1.083008 S    
C49   H17   1.061115 S    
C26   C32   1.405365 A    
C4    C35   1.459779 S    
C31   C35   1.413836 A    
C17   H39   1.082927 S    
C27   C29   1.407183 A    
C30   C34   1.413685 A    
C38   C44   1.382709 A    
C22   C26   1.415911 A    
Cu2   O12   1.974841 S    
C12   H8    1.077526 S    
O1    C1    1.294403 A    
C59   N1    1.382394 A    
C50   C52   1.387858 A    
C62   H44   1.081631 S    
C49   C51   1.388223 A    
C19   C23   1.394098 A    
O12   C8    1.289129 A    
C67   H35   1.109521 S    
Cu2   N4    2.018545 S    
C9    H5    1.081713 S    
C62   C64   1.416114 A    
C36   C40   1.398365 A    
C11   H7    1.082031 S    
O5    C1    1.298100 A    
C58   N4    1.378989 A    
C42   C46   1.401610 A    
C52   H20   1.082923 S    
C17   C21   1.394175 A    
O8    C4    1.298058 A    
O5    Cu3   1.972605 S    
C19   H41   1.082918 S    
C5    C46   1.467118 S    
C13   C19   1.390772 A    
C63   N3    1.366168 A    
C14   C20   1.390991 A    
C54   H22   1.083006 S    
C15   C17   1.390201 A    
C66   H30   1.112460 S    
O3    Cu2   1.967277 S    
C9    C29   1.416553 A    
O7    Cu4   1.972605 S    
C6    C45   1.470375 S    
C56   H24   1.061107 S    
Cu1   Cu3   2.686874 S    
H14   C42   1.083594 S    
O19   C67   1.407822 S    
Cu2   Cu4   2.686874 S    
C12   C16   1.414616 A    
O1    Cu1   1.967277 S    
C68   H36   1.111314 S    
O2    C2    1.293738 A    
C53   C55   1.387728 A    
C39   C41   1.382360 A    
O11   C7    1.288300 A    
O18   C66   1.406699 S    
C57   C59   1.431263 A    
C2    C33   1.460748 S    
C33   C37   1.398598 A    
O13   C5    1.306274 A    
C67   H34   1.113333 S    
C10   H6    1.082026 S    
C61   C63   1.416349 A    
Cu2   O11   1.972705 S    
O16   C8    1.308305 A    
C68   H37   1.113681 S    
O6    C2    1.299063 A    
Cu1   O9    1.972705 S    
Cu4   O15   1.967492 S    
C18   C22   1.393373 A    
C65   H29   1.109483 S    
C20   H42   1.082894 S    
C9    C13   1.402719 A    
Cu3   N1    2.019825 S    
H25   C63   1.081517 S    
O20   C68   1.411579 S    
O9    C5    1.289903 A    
C56   C58   1.414250 A    
C43   C47   1.402103 A    
C28   C48   1.428404 A    
C14   O18   1.383208 S    
C34   C38   1.399311 A    
Cu3   O13   1.967492 S    
N2    C62   1.365828 A    
C21   H9    1.076071 S    
C65   H28   1.112833 S    
C23   H11   1.077081 S    
C51   C53   1.377976 A    
C25   C45   1.430568 A    
H26   C64   1.081562 S    
C66   H31   1.111061 S    
C37   C43   1.382893 A    
C18   H40   1.083529 S    
C29   C33   1.414516 A    
C20   C24   1.394044 A    
C23   C27   1.416849 A    
C53   H21   1.082968 S    
C51   H19   1.082936 S    
O14   C6    1.309299 A    
H13   C41   1.083740 S    
C11   C31   1.416789 A    
C12   C32   1.418866 A    
H15   C43   1.083727 S    
C61   H43   1.081677 S    
C55   C57   1.414515 A    
C24   H12   1.077359 S    
