data_mof_unit_11243.cif
_audit_creation_date              2012-12-10T19:10:02-0500
_audit_creation_method            fapswitch 2.2
_symmetry_space_group_name_H-M    P1
_symmetry_Int_Tables_number       1
_space_group_crystal_system       triclinic
_cell_length_a                    10.861746
_cell_length_b                    10.833467
_cell_length_c                    9.548232
_cell_angle_alpha                 89.97723
_cell_angle_beta                  90.652207
_cell_angle_gamma                 90.045573
_cell_volume                      1123.47073056

loop_
_atom_site_label
_atom_site_type_symbol
_atom_type_description
_atom_site_fract_x
_atom_site_fract_y
_atom_site_fract_z
_atom_type_partial_charge
C1    C     C_R   0.502842 0.262407 0.500017 0.782036
C2    C     C_R   0.197006 0.637706 0.977631 0.460404
C3    C     C_R   0.931690 0.535252 0.384643 -0.248491
C4    C     C_R   0.871189 0.491300 0.502756 -0.083347
C5    C     C_R   0.939426 0.445406 0.618479 -0.006599
C6    C     C_R   0.067385 0.452096 0.615369 -0.200521
C7    C     C_R   0.127921 0.497059 0.496880 -0.079884
C8    C     C_R   0.058777 0.535689 0.378727 0.006239
C9    C     C_R   0.896379 0.432772 0.875160 -0.179880
C10   C     C_R   0.841562 0.375004 0.989692 -0.135448
C11   C     C_R   0.771776 0.267908 0.970051 -0.109716
C12   C     C_R   0.262114 0.499736 0.498957 0.805164
C13   C     C_R   0.757435 0.217920 0.835959 -0.128817
C14   C     C_R   0.812048 0.275439 0.721097 -0.097771
C15   C     C_R   0.881348 0.383955 0.739892 0.120885
C16   C     C_R   0.513209 0.063743 0.625738 0.118261
C17   C     C_R   0.515270 0.129430 0.500038 -0.089016
C18   C     C_R   0.531922 0.064712 0.374104 -0.228803
C19   C     C_R   0.530100 0.936049 0.373877 -0.221129
C20   C     C_R   0.512439 0.871078 0.499557 -0.094215
C21   C     C_R   0.510906 0.936483 0.625297 0.119199
C22   C     C_3   0.418087 0.932056 0.739257 -0.465043
C23   C     C_R   0.501510 0.737757 0.499857 0.803556
C24   C     C_3   0.423338 0.071630 0.742490 -0.494075
C25   C     C_R   0.532859 0.603630 0.073784 0.269595
C26   C     C_R   0.457218 0.401642 0.073793 -0.087741
C27   C     C_R   0.457089 0.401763 0.925152 -0.068909
C28   C     C_R   0.531921 0.603890 0.926434 0.312457
C29   C     C_3   0.651551 0.670558 0.920093 -0.520101
C30   C     C_3   0.654369 0.668062 0.078975 -0.521927
C31   C     C_R   0.737505 0.495929 0.501049 0.788510
C32   C     C_R   0.174939 0.729216 0.079216 -0.256897
C33   C     C_R   0.133116 0.696038 0.211914 -0.185768
C34   C     C_R   0.113493 0.571515 0.244311 0.142601
C35   C     C_R   0.137190 0.480449 0.144062 -0.219861
C36   C     C_R   0.179571 0.513571 0.012041 -0.150691
Cu1   Cu    Cu3+1 0.499990 0.499980 0.640670 0.973402
Cu2   Cu    Cu3+1 0.500010 0.500020 0.359330 0.943442
H1    H     H_    0.729010 0.223555 0.058729 0.119564
H2    H     H_    0.704388 0.134336 0.821203 0.122963
H3    H     H_    0.800206 0.235762 0.617694 0.098837
H4    H     H_    0.540051 0.112861 0.275177 0.154637
H5    H     H_    0.536327 0.888345 0.274829 0.155728
H6    H     H_    0.327917 0.896851 0.700592 0.196766
H7    H     H_    0.454246 0.888291 0.836577 0.193280
H8    H     H_    0.335212 0.116472 0.710882 0.195044
H9    H     H_    0.466404 0.107838 0.840276 0.184122
H10   H     H_    0.423072 0.321494 0.128477 0.136176
H11   H     H_    0.188549 0.825909 0.055128 0.127068
H12   H     H_    0.422199 0.322257 0.869526 0.129796
H13   H     H_    0.725208 0.614968 0.871508 0.229095
H14   H     H_    0.641233 0.765050 0.876335 0.190154
H15   H     H_    0.728879 0.608993 0.122429 0.210339
H16   H     H_    0.648561 0.761448 0.125945 0.188275
H17   H     H_    0.114096 0.767129 0.288386 0.139058
H18   H     H_    0.121155 0.383990 0.167669 0.138869
H19   H     H_    0.196271 0.442421 0.935236 0.136593
H20   H     H_    0.879824 0.569103 0.295070 0.148794
H21   H     H_    0.120041 0.416635 0.703528 0.152852
H22   H     H_    0.947899 0.517185 0.891135 0.146300
H23   H     H_    0.852824 0.413439 0.093590 0.134846
N1    N     N_R   0.500790 0.500930 0.147930 -0.182374
N2    N     N_R   0.500790 0.500890 0.852020 -0.166257
O1    O     O_R   0.500000 0.319640 0.618810 -0.587718
O2    O     O_R   0.500010 0.319680 0.381230 -0.597689
O3    O     O_R   0.319640 0.499990 0.618790 -0.544038
O4    O     O_R   0.319650 0.500030 0.381210 -0.573785
O5    O     O_R   0.499990 0.680320 0.618770 -0.566565
O6    O     O_R   0.500000 0.680360 0.381190 -0.584924
O7    O     O_R   0.680350 0.499970 0.618790 -0.574437
O8    O     O_R   0.680360 0.500010 0.381210 -0.591104
O9    O     O_3   0.233468 0.666639 0.844036 -0.733845
H24   H     H_    0.231602 0.757458 0.833904 0.302480

loop_
_geom_bond_atom_site_label_1
_geom_bond_atom_site_label_2
_ccdc_geom_bond_type
C33   H17   S    
C16   C21   A    
C23   O6    A    
C35   C36   A    
C7    C8    A    
C12   O4    A    
C25   C28   A    
C30   H16   S    
C26   C27   A    
Cu1   Cu2   S    
C21   C22   S    
C28   C29   S    
C18   C19   A    
C18   H4    S    
C5    C6    A    
Cu1   O5    S    
C2    C32   A    
C34   C35   A    
C13   H2    S    
C31   O7    A    
C22   H6    S    
C19   C20   A    
C16   C17   A    
C1    O2    A    
C20   C23   S    
C9    C10   A    
C27   H12   S    
C26   H10   S    
C31   O8    A    
Cu2   O6    S    
C16   C24   S    
Cu1   O7    S    
C2    O9    S    
Cu1   N2    S    
C19   H5    S    
C33   C34   A    
C7    C12   S    
C30   H15   S    
C3    C8    A    
O9    H24   S    
C12   O3    A    
C23   O5    A    
C3    H20   S    
C29   C30   S    
Cu2   O2    S    
Cu1   O3    S    
C17   C18   A    
C8    C34   S    
C20   C21   A    
C11   H1    S    
C27   N2    A    
C14   H3    S    
C36   H19   S    
C22   C24   S    
C10   H23   S    
C3    C4    A    
C1    O1    A    
Cu1   O1    S    
C29   H13   S    
C2    C36   A    
C25   C30   S    
Cu2   O8    S    
C35   H18   S    
C24   H9    S    
C6    H21   S    
C4    C5    A    
C6    C7    A    
C1    C17   S    
C9    H22   S    
C24   H8    S    
C32   C33   A    
C26   N1    A    
C11   C13   A    
C25   N1    A    
C9    C15   A    
C32   H11   S    
C5    C15   S    
C4    C31   S    
C10   C11   A    
C28   N2    A    
C22   H7    S    
Cu2   O4    S    
C14   C15   A    
C13   C14   A    
Cu2   N1    S    
C29   H14   S    
