data_mof_unit_25016.cif
_audit_creation_date              2012-12-10T21:06:57-0500
_audit_creation_method            fapswitch 2.2
_symmetry_space_group_name_H-M    P1
_symmetry_Int_Tables_number       1
_space_group_crystal_system       triclinic
_cell_length_a                    10.762027
_cell_length_b                    15.857191
_cell_length_c                    15.079638
_cell_angle_alpha                 90.272686
_cell_angle_beta                  90.886794
_cell_angle_gamma                 90.048104
_cell_volume                      2573.08498635

loop_
_atom_site_label
_atom_site_type_symbol
_atom_type_description
_atom_site_fract_x
_atom_site_fract_y
_atom_site_fract_z
_atom_type_partial_charge
C1    C     C_R   0.499966 0.338972 0.499787 0.886972
C2    C     C_R   0.499765 0.661044 0.500205 0.910162
C3    C     C_R   0.872681 0.493917 0.501566 -0.110989
C4    C     C_R   0.127259 0.498291 0.496762 -0.118061
C5    C     C_R   0.941426 0.464866 0.575812 0.088198
C6    C     C_R   0.058602 0.525147 0.421920 0.063801
C7    C     C_R   0.586896 0.959331 0.556265 0.014522
C8    C     C_R   0.410058 0.040814 0.444363 0.023802
C9    C     C_R   0.502552 0.913021 0.502547 0.142236
C10   C     C_R   0.494553 0.087091 0.497980 0.143517
C11   C     C_R   0.415654 0.953249 0.447619 -0.328199
C12   C     C_R   0.581322 0.046872 0.552983 -0.329032
C13   C     C_1   0.501833 0.824062 0.501734 0.035981
C14   C     C_1   0.495980 0.176022 0.498423 0.037464
C15   C     C_1   0.498076 0.250766 0.499213 -0.138347
C16   C     C_1   0.500638 0.749292 0.500786 -0.128900
C17   C     C_R   0.475141 0.423233 0.954234 0.017503
C18   C     C_R   0.515272 0.577588 0.045577 0.013076
C19   C     C_R   0.493189 0.498262 0.904811 0.029070
C20   C     C_R   0.497841 0.502491 0.095016 0.075939
C21   C     C_R   0.511554 0.574261 0.951691 -0.371823
C22   C     C_R   0.477433 0.426717 0.048147 -0.268207
C23   C     C_R   0.259471 0.500597 0.499003 0.868338
C24   C     C_R   0.740473 0.497310 0.500793 0.881727
C25   C     C_1   0.497030 0.499355 0.806989 0.152567
C26   C     C_1   0.499210 0.500901 0.192938 0.173619
C27   C     C_R   0.219505 0.668745 0.261109 -0.151470
C28   C     C_R   0.764807 0.326228 0.734440 -0.163209
C29   C     C_R   0.164061 0.638695 0.337709 -0.214039
C30   C     C_R   0.810556 0.360154 0.656222 -0.201934
C31   C     C_R   0.115426 0.556756 0.339696 -0.042229
C32   C     C_R   0.886484 0.432188 0.658845 -0.035723
C33   C     C_R   0.123651 0.504220 0.264231 0.472423
C34   C     C_R   0.919370 0.469109 0.741439 0.459320
C35   C     C_R   0.175904 0.535236 0.185793 0.467322
C36   C     C_R   0.872327 0.434726 0.820483 0.462718
C37   C     C_R   0.225854 0.617728 0.185634 -0.295961
C38   C     C_R   0.796373 0.362604 0.816184 -0.270790
C39   C     C_R   0.931423 0.522323 0.425208 -0.178013
C40   C     C_R   0.069023 0.466259 0.571234 -0.184756
H1    H     H_    0.271309 0.642574 0.127960 0.167620
H2    H     H_    0.762718 0.334197 0.876374 0.173982
H3    H     H_    0.258305 0.731734 0.260332 0.174507
H4    H     H_    0.706212 0.270729 0.731779 0.183705
H5    H     H_    0.159765 0.678968 0.395807 0.154859
H6    H     H_    0.787343 0.330077 0.593468 0.144802
H7    H     H_    0.878329 0.544691 0.368247 0.178552
H8    H     H_    0.123432 0.441396 0.626291 0.165055
H9    H     H_    0.645121 0.084272 0.593489 0.138927
H10   H     H_    0.351906 0.915853 0.407077 0.138897
H11   H     H_    0.463448 0.369296 0.085491 0.138896
H12   H     H_    0.525482 0.631693 0.914360 0.151534
N1    N     N_1   0.499960 0.500020 0.270550 -0.086375
N2    N     N_1   0.500040 0.499980 0.729450 -0.078683
O1    O     O_R   0.500000 0.378020 0.573650 -0.594821
O2    O     O_R   0.500000 0.621980 0.426350 -0.589892
O3    O     O_R   0.500060 0.378020 0.426320 -0.614733
O4    O     O_R   0.499940 0.621980 0.573680 -0.603526
O5    O     O_R   0.316730 0.500010 0.573660 -0.622473
O6    O     O_R   0.683270 0.499990 0.426340 -0.617701
O7    O     O_R   0.316790 0.500010 0.426330 -0.632641
O8    O     O_R   0.683210 0.499990 0.573670 -0.603044
Zn1   Zn    Zn3+2 0.499960 0.500000 0.598370 1.009111
Zn2   Zn    Zn3+2 0.500040 0.500000 0.401630 1.000419
C41   C     C_2   0.454514 0.339420 0.911916 0.352911
H13   H     H_    0.443038 0.284166 0.953237 0.076057
O9    O     O_2   0.449727 0.330335 0.831522 -0.574763
C42   C     C_2   0.538273 0.661183 0.087805 0.337051
H14   H     H_    0.549791 0.716401 0.046439 0.076284
O10   O     O_2   0.544912 0.670132 0.168170 -0.566928
O11   O     O_3   0.071955 0.424317 0.264722 -0.607161
C43   C     C_3   0.165538 0.365464 0.286747 -0.146474
H15   H     H_    0.193542 0.371404 0.357670 0.159181
H16   H     H_    0.248293 0.371293 0.243724 0.163873
H17   H     H_    0.127355 0.301052 0.276889 0.198414
O12   O     O_3   0.987532 0.543476 0.742280 -0.595678
C44   C     C_3   0.101896 0.533167 0.788290 -0.236180
H18   H     H_    0.132980 0.466314 0.794774 0.139473
H19   H     H_    0.095799 0.562876 0.854730 0.191517
H20   H     H_    0.174995 0.567215 0.751662 0.181810
O13   O     O_3   0.185918 0.479914 0.114452 -0.597975
C45   C     C_3   0.160755 0.519954 0.032907 -0.258135
H21   H     H_    0.243453 0.554943 0.009921 0.152881
H22   H     H_    0.078178 0.562090 0.036055 0.165135
H23   H     H_    0.140379 0.470384 0.982670 0.227599
O14   O     O_3   0.910369 0.467603 0.901570 -0.631161
C46   C     C_3   0.809045 0.507077 0.942467 -0.268581
H24   H     H_    0.741341 0.459611 0.965946 0.176743
H25   H     H_    0.763427 0.553686 0.897585 0.172904
H26   H     H_    0.843813 0.542122 0.001645 0.189573
C47   C     C_2   0.681710 0.920537 0.616293 0.393759
H27   H     H_    0.743196 0.960863 0.655452 0.064041
O15   O     O_2   0.693120 0.844280 0.623266 -0.559271
C48   C     C_2   0.315209 0.079688 0.384403 0.384173
H28   H     H_    0.253981 0.039409 0.344986 0.064696
O16   O     O_2   0.303420 0.155959 0.377836 -0.591339

loop_
_geom_bond_atom_site_label_1
_geom_bond_atom_site_label_2
_ccdc_geom_bond_type
C46   H24   S    
C27   C29   A    
C18   C21   A    
C12   H9    S    
C35   O13   S    
C44   H18   S    
C23   O5    A    
C35   C37   A    
C38   H2    S    
N1    Zn2   S    
N2    Zn1   S    
C18   C42   S    
C40   H8    S    
C9    C13   S    
C33   C35   A    
C4    C40   A    
C42   H14   S    
C41   O9    D    
O1    Zn1   S    
O2    Zn2   S    
C1    C15   S    
C2    C16   S    
C34   C36   A    
C5    C32   S    
C6    C31   S    
C3    C39   A    
C3    C24   S    
C43   H17   S    
O13   C45   S    
C44   H19   S    
C7    C12   A    
C8    C48   S    
C25   N2    T    
C4    C6    A    
C10   C14   S    
C47   H27   S    
C4    C23   S    
O14   C46   S    
C36   O14   S    
C28   H4    S    
C29   H5    S    
C32   C34   A    
O7    Zn2   S    
O8    Zn1   S    
C1    O3    A    
C47   O15   D    
C28   C38   A    
C24   O6    A    
C7    C47   S    
C31   C33   A    
O12   C44   S    
C48   O16   D    
C9    C11   A    
C10   C12   A    
C43   H16   S    
C20   C22   A    
C45   H21   S    
C45   H22   S    
C46   H25   S    
C46   H26   S    
C26   N1    T    
O3    Zn2   S    
C39   H7    S    
C44   H20   S    
O4    Zn1   S    
C7    C9    A    
C24   O8    A    
C19   C21   A    
C14   C15   T    
O5    Zn1   S    
C30   H6    S    
C43   H15   S    
C3    C5    A    
C2    O4    A    
C45   H23   S    
C17   C41   S    
C17   C22   A    
O6    Zn2   S    
C36   C38   A    
C1    O1    A    
O11   C43   S    
C29   C31   A    
C11   H10   S    
C2    O2    A    
C30   C32   A    
C20   C26   S    
C27   C37   A    
C8    C11   A    
C28   C30   A    
C17   C19   A    
C18   C20   A    
C37   H1    S    
C48   H28   S    
C19   C25   S    
C33   O11   S    
C27   H3    S    
C23   O7    A    
C8    C10   A    
C41   H13   S    
C13   C16   T    
C42   O10   D    
C6    C39   A    
C5    C40   A    
C21   H12   S    
C34   O12   S    
C22   H11   S    
