data_mof_unit_9266.cif
_audit_creation_date              2012-12-11T14:29:42-0500
_audit_creation_method            fapswitch 2.2
_symmetry_space_group_name_H-M    P1
_symmetry_Int_Tables_number       1
_space_group_crystal_system       triclinic
_cell_length_a                    6.939889
_cell_length_b                    14.772639
_cell_length_c                    16.231837
_cell_angle_alpha                 90.393925
_cell_angle_beta                  90.175717
_cell_angle_gamma                 89.958967
_cell_volume                      1664.04807965

loop_
_atom_site_label
_atom_site_type_symbol
_atom_type_description
_atom_site_fract_x
_atom_site_fract_y
_atom_site_fract_z
_atom_type_partial_charge
O1    O     O_R   0.494400 0.416610 0.413880 -0.529897
O2    O     O_R   0.823920 0.406790 0.585520 -0.539706
O3    O     O_R   0.994250 0.583390 0.586120 -0.540832
C1    C     C_R   0.655776 0.385919 0.614483 0.749391
O4    O     O_R   0.824110 0.405730 0.414490 -0.535626
O5    O     O_R   0.994440 0.582310 0.413870 -0.540205
C2    C     C_R   0.655433 0.384267 0.385805 0.755203
O6    O     O_R   0.494210 0.417690 0.586130 -0.529581
O7    O     O_3   0.660810 0.557940 0.500000 -0.381748
V1    V     V_3+5 0.935650 0.489250 0.500000 1.475559
O8    O     O_R   0.324160 0.593210 0.414480 -0.549358
C3    C     C_R   0.155270 0.614909 0.386299 0.748259
O9    O     O_R   0.323970 0.594270 0.585510 -0.543364
C4    C     C_R   0.155358 0.615522 0.614337 0.684288
V2    V     V_3+5 0.435660 0.510750 0.500000 1.459410
O10   O     O_3   0.160630 0.442060 0.500000 -0.355169
H1    H     H_    0.322674 0.910932 0.505704 0.125358
C5    C     C_R   0.049578 0.566039 0.779903 -0.143665
C6    C     C_R   0.998932 0.539286 0.859004 -0.119705
C7    C     C_R   0.989028 0.602752 0.922346 -0.117271
C8    C     C_R   0.028757 0.693503 0.906976 -0.137375
C9    C     C_R   0.078289 0.723266 0.826912 0.071488
C10   C     C_R   0.089924 0.657857 0.762215 0.068717
C11   C     C_R   0.117590 0.816110 0.811346 -0.192653
C12   C     C_R   0.167771 0.843897 0.729478 0.025661
C13   C     C_R   0.186764 0.776418 0.666022 0.069020
C14   C     C_R   0.145260 0.684233 0.682044 -0.175041
C15   C     C_R   0.196843 0.936663 0.706606 -0.040625
C16   C     C_R   0.255312 0.958864 0.626897 -0.140380
C17   C     C_R   0.279492 0.892480 0.567391 -0.133280
C18   C     C_R   0.242872 0.802766 0.585920 -0.135963
H2    H     H_    0.057999 0.513673 0.733119 0.110614
H3    H     H_    0.968528 0.468781 0.871288 0.117098
H4    H     H_    0.950959 0.581545 0.983898 0.118324
H5    H     H_    0.020518 0.739639 0.958855 0.098129
H6    H     H_    0.278689 0.028899 0.609928 0.128327
H7    H     H_    0.258275 0.754499 0.536012 0.104647
C19   C     C_2   0.985324 0.709295 0.282359 -0.123953
C20   C     C_2   0.150015 0.682632 0.319456 -0.305627
H8    H     H_    0.849403 0.680901 0.302753 0.135195
H9    H     H_    0.287527 0.710382 0.301079 0.126474
C21   C     C_2   0.973312 0.776801 0.214395 -0.133695
C22   C     C_2   0.126601 0.814587 0.177175 -0.300331
H10   H     H_    0.829392 0.795349 0.194138 0.133812
H11   H     H_    0.271698 0.796674 0.195548 0.128229
C23   C     C_2   0.775537 0.221073 0.794039 -0.166652
C24   C     C_2   0.613384 0.177189 0.814884 -0.312815
H12   H     H_    0.904360 0.210771 0.830884 0.168949
H13   H     H_    0.481847 0.186247 0.779615 0.158123
C25   C     C_2   0.795713 0.278889 0.719945 -0.029235
C26   C     C_2   0.644450 0.323425 0.685715 -0.350197
H14   H     H_    0.503653 0.317278 0.713729 0.164696
C27   C     C_2   0.780564 0.203403 0.220429 -0.063778
C28   C     C_2   0.620841 0.185159 0.174641 -0.351755
H15   H     H_    0.495182 0.228542 0.180724 0.153373
C29   C     C_2   0.793472 0.284882 0.274660 -0.066378
C30   C     C_2   0.643699 0.311770 0.322374 -0.346230
H16   H     H_    0.507418 0.275961 0.317716 0.158612
O11   O     O_R   0.770210 0.079270 0.910680 -0.529944
O12   O     O_R   0.440150 0.091160 0.082270 -0.532671
O13   O     O_R   0.269970 0.914530 0.082860 -0.542315
C31   C     C_R   0.609521 0.112653 0.111044 0.749629
O14   O     O_R   0.440480 0.090100 0.911240 -0.533623
O15   O     O_R   0.270310 0.913460 0.910610 -0.537107
C32   C     C_R   0.608729 0.112174 0.883554 0.759502
O16   O     O_R   0.769870 0.080340 0.082930 -0.537117
O17   O     O_3   0.603660 0.938980 0.996790 -0.382066
V3    V     V_3+5 0.328750 0.007610 0.996740 1.482848
O18   O     O_R   0.940600 0.902510 0.911180 -0.541015
C33   C     C_R   0.109039 0.882039 0.881545 0.710800
O19   O     O_R   0.940270 0.903570 0.082200 -0.545945
C34   C     C_R   0.109723 0.881886 0.110354 0.755208
V4    V     V_3+5 0.828770 0.986010 0.996670 1.461808
O20   O     O_3   0.103730 0.054750 0.996710 -0.357661
C35   C     C_1   0.988553 0.285532 0.687026 0.340877
N1    N     N_1   0.142737 0.290399 0.660546 -0.378053
C36   C     C_1   0.949129 0.145100 0.217975 0.342846
N2    N     N_1   0.083738 0.098813 0.216331 -0.367950
C37   C     C_1   0.975820 0.333120 0.275500 0.339113
N3    N     N_1   0.121268 0.371435 0.275946 -0.375797
C38   C     C_1   0.156978 0.013150 0.759285 0.263270
N4    N     N_1   0.124876 0.075350 0.800554 -0.349505

loop_
_geom_bond_atom_site_label_1
_geom_bond_atom_site_label_2
_ccdc_geom_bond_type
O14   C32   A    
C22   C34   S    
V4    O20   S    
C27   C36   S    
C6    C7    A    
C1    O6    A    
C38   N4    T    
C11   C33   S    
C24   H13   S    
C36   N2    T    
C12   C15   A    
C16   H6    S    
C13   C14   A    
C29   C37   S    
O15   V3    S    
C15   C16   A    
C19   C21   S    
O5    C3    A    
C19   C20   D    
V3    O20   S    
V2    O10   S    
C26   H14   S    
C29   C30   D    
O12   C31   A    
C5    C6    A    
C28   H15   S    
O8    V2    S    
O18   V4    S    
O17   V4    S    
C10   C14   A    
C4    C14   S    
O7    V1    S    
O11   V4    S    
C7    H4    S    
C13   C18   A    
O9    C4    A    
H1    C17   S    
C21   H10   S    
C23   H12   S    
C31   O16   A    
C1    C26   S    
O17   V3    S    
C11   C12   A    
C20   H9    S    
C6    H3    S    
O19   V4    S    
C28   C31   S    
C12   C13   A    
C27   C28   D    
O16   V4    S    
C5    C10   A    
O2    C1    A    
C35   N1    T    
C16   C17   A    
C25   C26   D    
C22   H11   S    
O3    C4    A    
O1    V2    S    
O13   C34   A    
O6    V2    S    
O15   C33   A    
O9    V2    S    
C9    C11   A    
C5    H2    S    
C21   C22   D    
O2    V1    S    
O4    C2    A    
C27   C29   S    
C23   C24   D    
O14   V3    S    
C15   C38   S    
O1    C2    A    
O5    V1    S    
O8    C3    A    
C8    H5    S    
C23   C25   S    
C3    C20   S    
O7    V2    S    
O4    V1    S    
O3    V1    S    
V1    O10   S    
C25   C35   S    
O11   C32   A    
C19   H8    S    
O13   V3    S    
C30   H16   S    
C17   C18   A    
C24   C32   S    
O18   C33   A    
C37   N3    T    
C18   H7    S    
O19   C34   A    
C7    C8    A    
O12   V3    S    
C9    C10   A    
C8    C9    A    
C2    C30   S    
