data_mof_unit_42338.cif
_audit_creation_date              2012-12-10T19:02:40-0500
_audit_creation_method            fapswitch 2.2
_symmetry_space_group_name_H-M    P1
_symmetry_Int_Tables_number       1
_space_group_crystal_system       triclinic
_cell_length_a                    9.707517
_cell_length_b                    10.961802
_cell_length_c                    13.836954
_cell_angle_alpha                 92.540025
_cell_angle_beta                  83.856654
_cell_angle_gamma                 91.435149
_cell_volume                      1462.21670215

loop_
_atom_site_label
_atom_site_type_symbol
_atom_type_description
_atom_site_fract_x
_atom_site_fract_y
_atom_site_fract_z
_atom_type_partial_charge
C1    C     C_R   0.502169 0.738345 0.501118 0.817403
C2    C     C_1   0.460753 0.499953 0.786303 -0.048278
C3    C     C_R   0.393468 0.936141 0.477084 -0.064852
C4    C     C_R   0.507285 0.874386 0.502741 -0.265128
C5    C     C_R   0.616495 0.947864 0.537318 0.248347
C6    C     C_R   0.596888 0.074009 0.558293 0.322748
C7    C     C_R   0.493614 0.132586 0.515132 -0.218709
C8    C     C_R   0.388142 0.062687 0.478925 -0.050216
C9    C     C_3   0.238103 0.058919 0.519807 -0.005958
C10   C     C_3   0.244450 0.919776 0.512831 0.546766
C11   C     C_R   0.936777 0.451880 0.421374 0.171905
C12   C     C_R   0.476357 0.500608 0.682709 0.793437
C13   C     C_R   0.914276 0.541154 0.578336 0.003379
C14   C     C_R   0.061220 0.537001 0.580769 0.311716
C15   C     C_R   0.084600 0.455764 0.420061 0.184744
C16   C     C_3   0.097517 0.327263 0.379719 0.130147
C17   C     C_3   0.939065 0.318919 0.387954 0.094505
C18   C     C_R   0.497490 0.264155 0.505897 0.961572
C19   C     C_R   0.523705 0.503179 0.317477 0.904580
C20   C     C_1   0.539558 0.506306 0.213965 -0.013173
C21   C     C_2   0.562496 0.510320 0.022717 0.464496
C22   C     C_2   0.446888 0.498213 0.977566 -0.280099
C23   C     C_1   0.451504 0.499074 0.873495 0.134456
C24   C     C_1   0.551033 0.508337 0.126806 0.002534
Cu1   Cu    Cu3+1 0.359330 0.500020 0.500000 1.039320
Cu2   Cu    Cu3+1 0.640670 0.499980 0.500000 1.095049
H1    H     H_    0.346371 0.487078 0.019377 0.177558
H2    H     H_    0.141620 0.271856 0.432201 0.074541
H3    H     H_    0.897839 0.259489 0.447751 0.142877
H4    H     H_    0.167342 0.093648 0.470977 0.188550
H5    H     H_    0.849277 0.575458 0.641218 0.193920
N1    N     N_R   0.852140 0.499070 0.499400 -0.211595
N2    N     N_R   0.148050 0.499110 0.499400 -0.224080
O1    O     O_R   0.381190 0.680360 0.500000 -0.537865
O2    O     O_R   0.618770 0.680320 0.499990 -0.519051
O3    O     O_R   0.364410 0.500000 0.637850 -0.605965
O4    O     O_R   0.602000 0.499960 0.637840 -0.565318
O5    O     O_R   0.381230 0.319680 0.500010 -0.592713
O6    O     O_R   0.618810 0.319640 0.500000 -0.525149
O7    O     O_R   0.398000 0.500040 0.362160 -0.508194
O8    O     O_R   0.635590 0.500000 0.362150 -0.532583
N3    N     N_2   0.118478 0.570821 0.668552 -0.434146
H6    H     H_    0.188411 0.642593 0.665469 0.297389
C25   C     C_3   0.039088 0.552843 0.761541 -0.663721
H7    H     H_    0.963063 0.626704 0.778037 0.271225
H8    H     H_    0.110140 0.555801 0.819391 0.235587
H9    H     H_    0.985374 0.462184 0.761436 0.256627
S1    S     S_3+6 0.199266 0.316073 0.262318 0.091560
O9    O     O_2   0.144349 0.220311 0.194912 -0.185000
O10   O     O_2   0.205975 0.437161 0.214890 -0.257317
O11   O     O_3   0.359568 0.274311 0.280554 -0.540496
H10   H     H_    0.407363 0.257021 0.214652 0.369159
S2    S     S_3+6 0.855209 0.279444 0.280416 0.111384
O12   O     O_2   0.700975 0.277908 0.304505 -0.308231
O13   O     O_2   0.895313 0.368790 0.202446 -0.185587
O14   O     O_3   0.898093 0.136961 0.240225 -0.426339
H11   H     H_    0.849963 0.121968 0.181072 0.386359
S3    S     S_3+6 0.728930 0.528691 0.958941 0.027631
O15   O     O_2   0.759039 0.418801 0.891822 -0.289724
O16   O     O_2   0.731636 0.640982 0.900198 -0.305907
O17   O     O_3   0.849366 0.543389 0.037695 -0.457409
H12   H     H_    0.939010 0.548753 0.996397 0.377225
S4    S     S_3+6 0.780966 0.889572 0.546435 0.079131
O18   O     O_2   0.824781 0.815638 0.454973 -0.163476
O19   O     O_2   0.884360 0.992397 0.555786 -0.241700
O20   O     O_3   0.772432 0.801415 0.643634 -0.547630
H13   H     H_    0.678247 0.811457 0.677887 0.343983
S5    S     S_3+6 0.662589 0.148227 0.661924 0.040839
O21   O     O_2   0.548406 0.220426 0.717839 -0.335864
O22   O     O_2   0.711630 0.057103 0.728003 -0.224745
O23   O     O_3   0.793987 0.244273 0.626984 -0.546914
H14   H     H_    0.807811 0.296164 0.685743 0.375797
N4    N     N_2   0.216609 0.109527 0.619613 -0.441363
H15   H     H_    0.294704 0.102450 0.663972 0.283951
C26   C     C_3   0.128521 0.213844 0.639879 -0.570254
H16   H     H_    0.078325 0.211219 0.715695 0.248925
H17   H     H_    0.046328 0.212696 0.590290 0.244732
H18   H     H_    0.190498 0.299600 0.632686 0.249213
N5    N     N_2   0.225718 0.860394 0.606323 -0.475219
H19   H     H_    0.302724 0.879861 0.651037 0.218738
C27   C     C_3   0.089764 0.859648 0.660352 -0.459577
H20   H     H_    0.020237 0.798370 0.622229 0.304901
H21   H     H_    0.047060 0.952089 0.672177 0.292147
H22   H     H_    0.096057 0.824086 0.733592 0.189335
S6    S     S_3+6 0.159352 0.846539 0.414751 0.101944
O24   O     O_2   0.080110 0.735032 0.448613 -0.224430
O25   O     O_2   0.061762 0.932070 0.376077 -0.212431
O26   O     O_3   0.277690 0.802482 0.322658 -0.496944
H23   H     H_    0.304364 0.877775 0.287598 0.361019

loop_
_geom_bond_atom_site_label_1
_geom_bond_atom_site_label_2
_ccdc_geom_bond_type
C16   H2    S    
S4    O19   D    
C10   S6    S    
Cu2   N1    S    
C17   H3    S    
N4    H15   S    
C13   N1    A    
C19   C20   S    
C18   O6    A    
C2    C12   S    
C16   S1    S    
C14   N2    A    
C27   H20   S    
C7    C8    A    
S2    O12   D    
C9    N4    S    
Cu1   O7    S    
C5    C6    A    
Cu2   O6    S    
S2    O14   S    
S3    O16   D    
C15   C16   S    
O14   H11   S    
C5    S4    S    
C12   O4    A    
S5    O21   D    
C11   C15   A    
S1    O11   S    
C20   C24   T    
C8    C9    S    
C12   O3    A    
C9    C10   S    
C25   H9    S    
Cu1   O1    S    
C14   N3    S    
S3    O17   S    
C6    S5    S    
O20   H13   S    
S4    O20   S    
C21   C22   D    
N4    C26   S    
N3    C25   S    
C27   H21   S    
C25   H8    S    
C1    O1    A    
S6    O25   D    
O11   H10   S    
C3    C8    A    
N5    C27   S    
C16   C17   S    
S3    O15   D    
S6    O24   D    
S4    O18   D    
C26   H16   S    
Cu1   O5    S    
C7    C18   S    
Cu1   Cu2   S    
C26   H17   S    
C9    H4    S    
S1    O9    D    
C11   N1    A    
C22   H1    S    
N3    H6    S    
S2    O13   D    
C3    C4    A    
C17   S2    S    
C27   H22   S    
C25   H7    S    
C1    O2    A    
S6    O26   S    
C11   C17   S    
C13   H5    S    
C4    C5    A    
C10   N5    S    
Cu2   O4    S    
C6    C7    A    
C1    C4    S    
C18   O5    A    
C21   S3    S    
C3    C10   S    
S5    O23   S    
S1    O10   D    
O17   H12   S    
C26   H18   S    
C19   O7    A    
Cu1   O3    S    
N5    H19   S    
Cu2   O2    S    
O23   H14   S    
O26   H23   S    
S5    O22   D    
C21   C24   S    
C2    C23   T    
C22   C23   S    
C13   C14   A    
C15   N2    A    
C19   O8    A    
Cu2   O8    S    
Cu1   N2    S    
