data_mof_unit_11876.cif
_audit_creation_date              2012-12-10T17:08:44-0500
_audit_creation_method            fapswitch 2.2
_symmetry_space_group_name_H-M    P1
_symmetry_Int_Tables_number       1
_space_group_crystal_system       triclinic
_cell_length_a                    27.676143
_cell_length_b                    11.03739
_cell_length_c                    9.930887
_cell_angle_alpha                 112.808191
_cell_angle_beta                  96.160137
_cell_angle_gamma                 92.432902
_cell_volume                      2768.54435149

loop_
_atom_site_label
_atom_site_type_symbol
_atom_type_description
_atom_site_fract_x
_atom_site_fract_y
_atom_site_fract_z
_atom_type_partial_charge
C1    C     C_R   0.495057 0.253156 0.438616 0.805527
C2    C     C_R   0.504168 0.747151 0.561787 0.809832
C3    C     C_R   0.101724 0.497618 0.531375 -0.122279
C4    C     C_R   0.896334 0.481307 0.438455 -0.122525
C5    C     C_R   0.124753 0.382920 0.521802 -0.087029
C6    C     C_R   0.873323 0.596974 0.452078 -0.088079
C7    C     C_R   0.095190 0.267378 0.500278 0.317740
C8    C     C_R   0.902760 0.711789 0.470269 0.318284
C9    C     C_R   0.130179 0.615653 0.559585 -0.117689
C10   C     C_R   0.867916 0.362715 0.408699 -0.118628
C11   C     C_R   0.355182 0.502838 0.512834 -0.208994
C12   C     C_R   0.644615 0.488548 0.483424 -0.207949
C13   C     C_R   0.970232 0.365691 0.430516 -0.017571
C14   C     C_R   0.027852 0.612899 0.535850 -0.017525
C15   C     C_R   0.976553 0.605130 0.497576 0.036772
C16   C     C_R   0.021497 0.373433 0.469492 0.037070
C17   C     C_R   0.947844 0.484096 0.456386 0.061971
C18   C     C_R   0.050221 0.494554 0.511208 0.062149
C19   C     C_R   0.940590 0.244142 0.355110 0.075344
C20   C     C_R   0.057523 0.734604 0.609973 0.075371
C21   C     C_R   0.889467 0.241976 0.353800 0.209179
C22   C     C_R   0.108628 0.736484 0.611319 0.209438
C23   C     C_R   0.407796 0.501245 0.503550 0.862388
C24   C     C_R   0.592190 0.496784 0.495762 0.864789
C25   C     C_R   0.044586 0.266238 0.480594 -0.188207
C26   C     C_R   0.953349 0.712147 0.486537 -0.188839
C27   C     C_2   0.493452 0.110798 0.400300 0.102687
C28   C     C_2   0.503183 0.889749 0.601540 0.096578
C29   C     C_2   0.487644 0.063181 0.503905 0.176814
C30   C     C_2   0.508766 0.939937 0.499749 0.170824
C31   C     C_2   0.507632 0.490453 0.066915 0.330880
C32   C     C_2   0.489930 0.520183 0.933868 0.325745
C33   C     C_R   0.176340 0.390981 0.538630 0.613109
C34   C     C_R   0.821905 0.590832 0.443231 0.614909
C35   C     C_R   0.179816 0.608130 0.542282 0.640814
C36   C     C_R   0.818419 0.369865 0.428463 0.641714
C37   C     C_R   0.287630 0.603724 0.641087 0.297699
C38   C     C_R   0.709736 0.388906 0.340814 0.298258
C39   C     C_R   0.337092 0.610335 0.621335 0.090402
C40   C     C_R   0.660273 0.386713 0.361992 0.090400
C41   C     C_R   0.322719 0.394569 0.417511 0.226950
C42   C     C_R   0.679416 0.585169 0.588286 0.233293
C43   C     C_R   0.272844 0.397038 0.425754 -0.138691
C44   C     C_R   0.728779 0.578543 0.573542 -0.141322
C45   C     C_R   0.254712 0.500032 0.537532 0.158453
C46   C     C_R   0.744405 0.482605 0.449988 0.163987
Cu1   Cu    Cu3+1 0.508480 0.521810 0.644910 1.118638
Cu2   Cu    Cu3+1 0.491520 0.478190 0.355090 1.122325
H1    H     H_    0.248024 0.316291 0.346642 0.211822
H2    H     H_    0.755313 0.651104 0.657098 0.206680
H3    H     H_    0.023296 0.180058 0.475889 0.196448
H4    H     H_    0.974537 0.797596 0.488956 0.196431
N1    N     N_R   0.202621 0.500258 0.541516 -0.452157
N2    N     N_R   0.795936 0.480435 0.438298 -0.453633
N3    N     N_2   0.478780 0.445430 0.137360 -0.112300
N4    N     N_2   0.521220 0.554570 0.862640 -0.109820
O1    O     O_R   0.504520 0.332330 0.577400 -0.576390
O2    O     O_R   0.495480 0.667670 0.422600 -0.564278
O3    O     O_R   0.490210 0.295500 0.332650 -0.526944
O4    O     O_R   0.509790 0.704500 0.667350 -0.529391
O5    O     O_R   0.437420 0.518430 0.622370 -0.549089
O6    O     O_R   0.562580 0.481570 0.377630 -0.542786
O7    O     O_R   0.423110 0.481600 0.377610 -0.546030
O8    O     O_R   0.576890 0.518400 0.622390 -0.544235
O9    O     O_2   0.200310 0.291689 0.551896 -0.437908
O10   O     O_2   0.797739 0.693595 0.441196 -0.434195
O11   O     O_2   0.793305 0.270054 0.444480 -0.451111
O12   O     O_2   0.204742 0.704842 0.520035 -0.452684
Br1   Br    Br    0.344606 0.237128 0.279706 -0.316220
Br2   Br    Br    0.661926 0.733739 0.749372 -0.315176
Br3   Br    Br    0.503712 0.000996 0.807236 -0.286760
Br4   Br    Br    0.485038 0.996684 0.194281 -0.268519
Br5   Br    Br    0.426805 0.585865 0.932800 -0.340194
Br6   Br    Br    0.577292 0.507882 0.119462 -0.343048
I1    I     I_    0.558664 0.740870 0.977183 0.113457
I2    I     I_    0.417922 0.314749 0.020276 0.071100
Br7   Br    Br    0.119140 0.102005 0.483961 -0.319239
Br8   Br    Br    0.878780 0.876186 0.482406 -0.317365
I3    I     I_    0.610987 0.220601 0.218411 -0.030385
I4    I     I_    0.382149 0.790617 0.741620 -0.013852
Br9   Br    Br    0.729566 0.270403 0.158659 -0.297440
Br10  Br    Br    0.265996 0.730108 0.815437 -0.292027
I5    I     I_    0.844633 0.058849 0.236822 0.007583
I6    I     I_    0.153545 0.919823 0.725181 0.009422
I7    I     I_    0.969432 0.075708 0.198543 -0.190773
I8    I     I_    0.028913 0.904274 0.765413 -0.190500
Br11  Br    Br    0.559970 0.872713 0.379719 -0.349750
Br12  Br    Br    0.436427 0.134020 0.622665 -0.353750

loop_
_geom_bond_atom_site_label_1
_geom_bond_atom_site_label_2
_ccdc_geom_bond_type
Cu2   N3    S    
C35   N1    A    
C8    C26   A    
C14   C18   A    
C34   O10   S    
C36   O11   S    
C33   O9    S    
C21   I5    S    
C19   C21   A    
C26   H4    S    
C1    O3    A    
C2    O4    A    
C9    C22   A    
C27   C29   D    
C42   Br2   S    
C3    C18   A    
C15   C26   A    
C29   Br12  S    
C12   C42   A    
Cu1   O4    S    
C31   C32   S    
C5    C33   A    
C7    Br7   S    
C1    C27   S    
C23   O7    A    
C45   N1    S    
C24   O8    A    
N4    I1    S    
C8    Br8   S    
C41   C43   A    
C42   C44   A    
C19   I7    S    
C44   C46   A    
C10   C21   A    
C33   N1    A    
C13   C19   A    
C14   C20   A    
C4    C6    A    
Cu1   O8    S    
C5    C7    A    
C43   H1    S    
Cu2   O7    S    
C6    C8    A    
C3    C5    A    
C6    C34   A    
C20   I8    S    
C22   I6    S    
C12   C40   A    
C25   H3    S    
C29   C30   S    
C3    C9    A    
C1    O1    A    
Cu1   O1    S    
Cu2   O6    S    
Cu1   Cu2   S    
C46   N2    S    
C40   I3    S    
C11   C39   A    
C43   C45   A    
C4    C17   A    
C20   C22   A    
C34   N2    A    
C38   Br9   S    
C37   Br10  S    
C28   Br3   S    
N3    I2    S    
C37   C45   A    
C32   Br5   S    
Cu2   O3    S    
C41   Br1   S    
C44   H2    S    
C16   C25   A    
C15   C17   A    
C24   O6    A    
C31   Br6   S    
Cu1   O5    S    
C10   C36   A    
C2    O2    A    
Cu2   O2    S    
C12   C24   S    
C7    C25   A    
C13   C17   A    
C39   I4    S    
C28   C30   D    
C37   C39   A    
C38   C40   A    
C35   O12   S    
C11   C23   S    
C11   C41   A    
C38   C46   A    
C36   N2    A    
C23   O5    A    
C16   C18   A    
C13   C16   A    
C9    C35   A    
C14   C15   A    
C2    C28   S    
C31   N3    D    
C30   Br11  S    
C4    C10   A    
C32   N4    D    
C27   Br4   S    
Cu1   N4    S    
