data_mof_unit_32374.cif
_audit_creation_date              2012-12-10T18:58:48-0500
_audit_creation_method            fapswitch 2.2
_symmetry_space_group_name_H-M    P1
_symmetry_Int_Tables_number       1
_space_group_crystal_system       triclinic
_cell_length_a                    12.923626
_cell_length_b                    10.869611
_cell_length_c                    9.637739
_cell_angle_alpha                 91.888796
_cell_angle_beta                  95.474519
_cell_angle_gamma                 91.751907
_cell_volume                      1346.17809647

loop_
_atom_site_label
_atom_site_type_symbol
_atom_type_description
_atom_site_fract_x
_atom_site_fract_y
_atom_site_fract_z
_atom_type_partial_charge
C1    C     C_R   0.501093 0.262958 0.498105 0.791993
C2    C     C_R   0.022035 0.454733 0.533633 0.109340
C3    C     C_R   0.975360 0.548701 0.451975 0.105569
C4    C     C_R   0.871019 0.575639 0.468541 0.113621
C5    C     C_R   0.856342 0.395894 0.610845 -0.164368
C6    C     C_R   0.962350 0.379799 0.612824 -0.137359
C7    C     C_R   0.553189 0.069720 0.606431 -0.022389
C8    C     C_R   0.506345 0.130245 0.493512 -0.101706
C9    C     C_R   0.460811 0.060549 0.377783 -0.179379
C10   C     C_R   0.451341 0.932538 0.382007 0.140942
C11   C     C_R   0.494249 0.871549 0.501004 -0.086520
C12   C     C_R   0.301071 0.501407 0.474375 0.814560
C13   C     C_R   0.547594 0.942665 0.610762 0.016896
C14   C     C_3   0.533771 0.950626 0.764036 -0.064318
C15   C     C_3   0.541766 0.089757 0.757440 -0.193961
C16   C     C_R   0.582018 0.549871 0.085499 0.251180
C17   C     C_R   0.426589 0.433235 0.062245 0.254901
C18   C     C_R   0.424289 0.437441 0.913830 0.034457
C19   C     C_R   0.583442 0.547102 0.939043 0.343010
C20   C     C_3   0.625271 0.676311 0.943557 -0.344313
C21   C     C_3   0.623759 0.678981 0.101062 -0.494924
C22   C     C_R   0.496379 0.737458 0.501058 0.833472
C23   C     C_R   0.698835 0.499984 0.525568 0.828901
C24   C     C_R   0.810858 0.492638 0.538237 -0.061868
C25   C     C_R   0.189124 0.511499 0.459777 -0.029881
C26   C     C_R   0.035972 0.611695 0.359332 -0.006557
C27   C     C_R   0.143030 0.595172 0.368203 -0.234864
C28   C     C_R   0.128386 0.437576 0.537007 -0.176327
Cu1   Cu    Cu3+1 0.499990 0.499980 0.640670 0.999826
Cu2   Cu    Cu3+1 0.500010 0.500020 0.359330 1.016858
H1    H     H_    0.601261 0.914420 0.827501 0.104823
H2    H     H_    0.469285 0.136557 0.778384 0.192485
H3    H     H_    0.567316 0.734756 0.890298 0.181524
H4    H     H_    0.701852 0.684726 0.159796 0.257989
H5    H     H_    0.567320 0.744158 0.138785 0.238624
H6    H     H_    0.809589 0.332921 0.665914 0.163167
H7    H     H_    0.997224 0.306666 0.673118 0.169639
H8    H     H_    0.190556 0.645660 0.301189 0.177593
H9    H     H_    0.164151 0.366575 0.599541 0.166621
H10   H     H_    0.425082 0.105440 0.288197 0.201917
N1    N     N_R   0.500660 0.500930 0.148010 -0.221998
N2    N     N_R   0.500660 0.500890 0.852110 -0.252155
O1    O     O_R   0.500000 0.319640 0.618810 -0.610088
O2    O     O_R   0.500010 0.319680 0.381230 -0.561712
O3    O     O_R   0.348990 0.499960 0.599490 -0.584224
O4    O     O_R   0.349000 0.500000 0.361910 -0.553199
O5    O     O_R   0.499990 0.680320 0.618770 -0.573290
O6    O     O_R   0.500000 0.680360 0.381190 -0.563883
O7    O     O_R   0.651000 0.500000 0.638090 -0.545788
O8    O     O_R   0.651010 0.500040 0.400510 -0.563446
I1    I     I_    0.811874 0.756652 0.440447 -0.376902
C29   C     C_2   0.638716 0.147263 0.834892 0.404369
H11   H     H_    0.714436 0.111383 0.819349 0.071734
O9    O     O_2   0.632874 0.235015 0.915716 -0.530536
I2    I     I_    0.319131 0.305576 0.142727 -0.249557
C30   C     C_2   0.337196 0.373878 0.827888 0.467420
H12   H     H_    0.350734 0.306721 0.747121 0.074461
O10   O     O_2   0.247703 0.397786 0.846228 -0.534805
C31   C     C_2   0.733147 0.691833 0.898021 0.509102
H13   H     H_    0.766879 0.783930 0.892398 0.062763
O11   O     O_2   0.783968 0.603141 0.869534 -0.477485
C32   C     C_2   0.991400 0.681091 0.239714 0.443258
H14   H     H_    0.035238 0.758140 0.202752 0.092113
O12   O     O_2   0.908937 0.647565 0.175250 -0.513230
I3    I     I_    0.353484 0.844791 0.215257 -0.326619
I4    I     I_    0.381604 0.888633 0.811542 -0.297474

loop_
_geom_bond_atom_site_label_1
_geom_bond_atom_site_label_2
_ccdc_geom_bond_type
C9    H10   S    
C22   O6    A    
C23   C24   S    
Cu2   N1    S    
Cu1   Cu2   S    
C21   H5    S    
Cu1   N2    S    
C25   C27   A    
C1    C8    S    
C2    C28   A    
C9    C10   A    
C17   I2    S    
C11   C22   S    
C3    C26   A    
C19   C20   S    
C19   N2    A    
C18   C30   S    
C12   C25   S    
C4    I1    S    
C7    C15   S    
C17   C18   A    
Cu2   O8    S    
C6    H7    S    
C31   H13   S    
Cu1   O7    S    
C13   C14   S    
Cu1   O1    S    
C20   C31   S    
C11   C13   A    
Cu2   O2    S    
C26   C27   A    
C32   H14   S    
C5    C24   A    
Cu1   O5    S    
C16   C19   A    
C20   H3    S    
Cu2   O6    S    
C29   O9    D    
C2    C3    A    
C18   N2    A    
C26   C32   S    
C5    C6    A    
C4    C24   A    
C17   N1    A    
C31   O11   D    
C23   O7    A    
C10   C11   A    
C27   H8    S    
C3    C4    A    
C5    H6    S    
C7    C13   A    
C20   C21   S    
C14   I4    S    
C1    O1    A    
C12   O4    A    
C7    C8    A    
C10   I3    S    
Cu1   O3    S    
C30   H12   S    
C14   H1    S    
C14   C15   S    
C8    C9    A    
C23   O8    A    
C32   O12   D    
C21   H4    S    
C1    O2    A    
C28   H9    S    
C15   C29   S    
C30   O10   D    
C16   C21   S    
C16   N1    A    
Cu2   O4    S    
C22   O5    A    
C2    C6    A    
C29   H11   S    
C12   O3    A    
C25   C28   A    
C15   H2    S    
