data_mof_unit_56352.cif
_audit_creation_date              2012-12-10T20:28:41-0500
_audit_creation_method            fapswitch 2.2
_symmetry_space_group_name_H-M    P1
_symmetry_Int_Tables_number       1
_space_group_crystal_system       triclinic
_cell_length_a                    10.722561
_cell_length_b                    10.705157
_cell_length_c                    9.883457
_cell_angle_alpha                 90.917807
_cell_angle_beta                  87.861906
_cell_angle_gamma                 89.451808
_cell_volume                      1133.49546778

loop_
_atom_site_label
_atom_site_type_symbol
_atom_type_description
_atom_site_fract_x
_atom_site_fract_y
_atom_site_fract_z
_atom_type_partial_charge
C1    C     C_R   0.514249 0.260608 0.498460 0.892021
C2    C     C_R   0.050304 0.491973 0.626185 -0.069658
C3    C     C_R   0.123478 0.514117 0.506713 -0.126724
C4    C     C_R   0.067141 0.519593 0.381837 -0.165917
C5    C     C_R   0.942481 0.495972 0.371973 0.454597
C6    C     C_R   0.872768 0.461811 0.489552 -0.206605
C7    C     C_R   0.529666 0.067167 0.621458 0.042994
C8    C     C_R   0.545710 0.129165 0.498771 -0.216745
C9    C     C_R   0.585779 0.058656 0.381889 0.395545
C10   C     C_R   0.572676 0.929272 0.384504 -0.305913
C11   C     C_R   0.524583 0.871900 0.501488 -0.144113
C12   C     C_R   0.258935 0.508275 0.502889 0.930797
C13   C     C_R   0.514242 0.940421 0.621827 0.191060
C14   C     C_3   0.409898 0.949748 0.726356 0.261503
C15   C     C_3   0.433482 0.088374 0.732600 -0.557891
C16   C     C_R   0.448130 0.403930 0.071412 0.341321
C17   C     C_R   0.564477 0.585575 0.073831 -0.162885
C18   C     C_R   0.568820 0.585767 0.930669 0.430930
C19   C     C_R   0.449110 0.402905 0.929136 0.142191
C20   C     C_3   0.317327 0.361032 0.929371 -0.506074
C21   C     C_3   0.316368 0.362839 0.082840 -0.446357
C22   C     C_R   0.502051 0.740479 0.500711 1.006261
C23   C     C_R   0.739250 0.484140 0.496734 0.927243
C24   C     C_R   0.078659 0.534919 0.757937 0.304998
C25   C     C_R   0.016236 0.480831 0.871907 0.438350
C26   C     C_R   0.920784 0.395824 0.851091 -0.139602
C27   C     C_R   0.875787 0.378590 0.722042 -0.202927
C28   C     C_R   0.933471 0.438954 0.610897 0.009388
H1    H     H_    0.119815 0.542540 0.290157 0.196230
H2    H     H_    0.425586 0.899226 0.821476 0.184185
H3    H     H_    0.353146 0.145789 0.700469 0.219964
H4    H     H_    0.476045 0.119170 0.828254 0.218717
H5    H     H_    0.614521 0.654664 0.131167 0.215745
H6    H     H_    0.257548 0.432422 0.885785 0.220594
H7    H     H_    0.306103 0.265876 0.887001 0.202105
H8    H     H_    0.253661 0.435342 0.130002 0.212576
H9    H     H_    0.307387 0.268536 0.127319 0.230100
H10   H     H_    0.873419 0.352569 0.936699 0.203707
H11   H     H_    0.793287 0.322426 0.710045 0.175959
H12   H     H_    0.595384 0.874317 0.293716 0.215552
N1    N     N_R   0.499160 0.499140 0.142800 -0.157052
N2    N     N_R   0.499160 0.499180 0.857150 -0.162678
O1    O     O_R   0.500020 0.316790 0.614690 -0.642711
O2    O     O_R   0.500000 0.316760 0.385350 -0.554229
O3    O     O_R   0.316770 0.500020 0.614690 -0.588002
O4    O     O_R   0.316760 0.499980 0.385350 -0.648567
O5    O     O_R   0.500000 0.683240 0.614650 -0.525285
O6    O     O_R   0.499980 0.683210 0.385310 -0.647899
O7    O     O_R   0.683240 0.500020 0.614650 -0.570724
O8    O     O_R   0.683230 0.499980 0.385310 -0.591584
Zn1   Zn    Zn3+2 0.500010 0.500020 0.653130 1.052180
Zn2   Zn    Zn3+2 0.499990 0.499980 0.346870 1.021678
S1    S     S_3+6 0.675100 0.701778 0.868692 0.061641
O9    O     O_2   0.624877 0.826622 0.917623 -0.340829
O10   O     O_2   0.795332 0.679360 0.938385 -0.218013
O11   O     O_3   0.712146 0.713001 0.703448 -0.531771
H13   H     H_    0.778494 0.776664 0.697517 0.389232
S2    S     S_3+6 0.142515 0.685742 0.775222 0.017915
O12   O     O_2   0.276265 0.676833 0.814558 -0.348022
O13   O     O_2   0.133626 0.751378 0.642696 -0.256943
O14   O     O_3   0.060178 0.768220 0.894912 -0.482575
H14   H     H_    0.115064 0.837891 0.920609 0.367902
O15   O     O_3   0.040933 0.512212 0.004090 -0.693583
H15   H     H_    0.116615 0.564033 0.006146 0.361007
O16   O     O_3   0.892100 0.510649 0.247140 -0.663284
H16   H     H_    0.842027 0.435512 0.229122 0.380809
S3    S     S_3+6 0.649576 0.122671 0.230926 0.039543
O17   O     O_2   0.714483 0.243134 0.259860 -0.315911
O18   O     O_2   0.742607 0.032550 0.165187 -0.238054
O19   O     O_3   0.534636 0.147602 0.123508 -0.571511
H17   H     H_    0.501063 0.063695 0.103512 0.353069
O20   O     O_3   0.295009 0.925699 0.669977 -0.670286
H18   H     H_    0.230875 0.955035 0.738570 0.361313

loop_
_geom_bond_atom_site_label_1
_geom_bond_atom_site_label_2
_ccdc_geom_bond_type
C8    C9    A    
C4    H1    S    
C22   O6    A    
C9    S3    S    
C15   H3    S    
C16   C21   S    
C1    O2    A    
C1    C8    S    
C2    C28   A    
C9    C10   A    
C11   C22   S    
O8    Zn2   S    
C19   C20   S    
C19   N2    A    
C7    C13   A    
N2    Zn1   S    
O20   H18   S    
S3    O19   S    
C20   H6    S    
O2    Zn2   S    
S2    O14   S    
C7    C15   S    
C2    C3    A    
C25   C26   A    
C7    C8    A    
C21   H8    S    
S1    O9    D    
C24   C25   A    
C25   O15   S    
C11   C13   A    
O1    Zn1   S    
C26   C27   A    
O19   H17   S    
C17   H5    S    
C14   H2    S    
C16   C19   A    
C6    C23   S    
C24   S2    S    
C17   C18   A    
S1    O10   D    
C2    C24   A    
C5    C6    A    
C17   N1    A    
C23   O7    A    
C4    C5    A    
O14   H14   S    
O3    Zn1   S    
O15   H15   S    
S2    O13   D    
S3    O17   D    
O4    Zn2   S    
O6    Zn2   S    
C21   H9    S    
C20   C21   S    
C5    O16   S    
O16   H16   S    
C10   C11   A    
S1    O11   S    
C27   C28   A    
O11   H13   S    
O7    Zn1   S    
C14   C15   S    
C26   H10   S    
C10   H12   S    
O5    Zn1   S    
C3    C12   S    
N1    Zn2   S    
C18   S1    S    
S3    O18   D    
S2    O12   D    
C13   C14   S    
C20   H7    S    
C14   O20   S    
C16   N1    A    
C1    O1    A    
C22   O5    A    
C6    C28   A    
C3    C4    A    
C18   N2    A    
C27   H11   S    
C12   O3    A    
C23   O8    A    
C12   O4    A    
C15   H4    S    
