data_mof_unit_15530.cif
_audit_creation_date              2012-12-10T17:46:29-0500
_audit_creation_method            fapswitch 2.2
_symmetry_space_group_name_H-M    P1
_symmetry_Int_Tables_number       1
_space_group_crystal_system       triclinic
_cell_length_a                    20.896074
_cell_length_b                    21.467794
_cell_length_c                    14.68938
_cell_angle_alpha                 90.002211
_cell_angle_beta                  127.641229
_cell_angle_gamma                 90.000181
_cell_volume                      5217.93561984

loop_
_atom_site_label
_atom_site_type_symbol
_atom_type_description
_atom_site_fract_x
_atom_site_fract_y
_atom_site_fract_z
_atom_type_partial_charge
C1    C     C_R   0.603693 0.915070 0.633248 0.805495
C2    C     C_R   0.397619 0.086355 0.368870 0.799278
C3    C     C_R   0.396298 0.915075 0.366738 0.805463
C4    C     C_R   0.602383 0.086353 0.631133 0.799289
C5    C     C_R   0.103696 0.415072 0.633252 0.805475
C6    C     C_R   0.897618 0.586353 0.368869 0.799281
C7    C     C_R   0.896301 0.415073 0.366745 0.805491
C8    C     C_R   0.102387 0.586352 0.631139 0.799276
C9    C     C_R   0.335291 0.769576 0.925526 0.455272
C10   C     C_R   0.638104 0.264221 0.021244 0.463802
C11   C     C_R   0.664685 0.769510 0.074389 0.455215
C12   C     C_R   0.361837 0.264150 0.978638 0.463850
C13   C     C_R   0.835308 0.269534 0.925591 0.455235
C14   C     C_R   0.137977 0.764394 0.020977 0.463694
C15   C     C_R   0.164709 0.269535 0.074425 0.455238
C16   C     C_R   0.861787 0.764098 0.978560 0.463892
C17   C     C_R   0.323217 0.004893 0.665358 -0.282623
C18   C     C_R   0.676774 0.004897 0.334625 -0.282631
C19   C     C_R   0.823205 0.504869 0.665337 -0.282629
C20   C     C_R   0.176765 0.504841 0.334596 -0.282546
C21   C     C_R   0.352939 0.005327 0.602886 0.052196
C22   C     C_R   0.647060 0.005332 0.397106 0.052185
C23   C     C_R   0.852935 0.505307 0.602874 0.052202
C24   C     C_R   0.147062 0.505296 0.397094 0.052152
C25   C     C_R   0.485969 0.993459 0.774247 0.019755
C26   C     C_R   0.514026 0.993452 0.225753 0.019753
C27   C     C_R   0.985967 0.493479 0.774252 0.019760
C28   C     C_R   0.014014 0.493461 0.225752 0.019766
C29   C     C_R   0.461525 0.003982 0.844674 -0.068748
C30   C     C_R   0.538460 0.003977 0.155316 -0.068729
C31   C     C_R   0.961506 0.503993 0.844660 -0.068767
C32   C     C_R   0.038439 0.503969 0.155300 -0.068726
C33   C     C_R   0.377009 0.004393 0.786480 0.020321
C34   C     C_R   0.622977 0.004395 0.213504 0.020341
C35   C     C_R   0.876988 0.504383 0.786458 0.020321
C36   C     C_R   0.122958 0.504363 0.213474 0.020426
C37   C     C_R   0.516531 0.010070 0.968651 -0.078300
C38   C     C_R   0.483448 0.010062 0.031337 -0.078299
C39   C     C_R   0.016501 0.510086 0.968631 -0.078249
C40   C     C_R   0.983419 0.510059 0.031318 -0.078292
C41   C     C_R   0.397108 0.017723 0.966959 -0.030383
C42   C     C_R   0.602868 0.017746 0.033027 -0.030363
C43   C     C_R   0.897076 0.517707 0.966934 -0.030408
C44   C     C_R   0.102829 0.517778 0.033002 -0.030357
C45   C     C_R   0.345963 0.005536 0.847935 0.456537
C46   C     C_R   0.654017 0.005548 0.152042 0.456515
C47   C     C_R   0.845937 0.505520 0.847907 0.456561
C48   C     C_R   0.153987 0.505529 0.151998 0.456318
C49   C     C_R   0.659958 0.136348 0.702721 -0.049497
C50   C     C_R   0.332292 0.872103 0.283272 -0.047932
C51   C     C_R   0.340050 0.136351 0.297285 -0.049465
C52   C     C_R   0.667644 0.872045 0.716627 -0.047915
C53   C     C_R   0.159966 0.636348 0.702732 -0.049617
C54   C     C_R   0.832323 0.372072 0.283330 -0.047923
C55   C     C_R   0.840043 0.636345 0.297279 -0.049460
C56   C     C_R   0.167660 0.372057 0.716647 -0.047920
C57   C     C_R   0.779994 0.195164 0.769973 -0.162394
C58   C     C_R   0.203901 0.822845 0.198319 -0.163864
C59   C     C_R   0.220037 0.195188 0.230067 -0.162359
C60   C     C_R   0.795844 0.822547 0.801235 -0.163698
C61   C     C_R   0.280012 0.695155 0.769987 -0.162383
C62   C     C_R   0.704036 0.322683 0.198570 -0.163807
C63   C     C_R   0.720026 0.695177 0.230054 -0.162374
C64   C     C_R   0.295894 0.322602 0.801312 -0.163745
C65   C     C_R   0.723273 0.150122 0.698001 -0.215535
C66   C     C_R   0.267969 0.858500 0.285363 -0.220446
C67   C     C_R   0.276752 0.150146 0.302036 -0.215551
C68   C     C_R   0.731836 0.858289 0.714317 -0.220514
C69   C     C_R   0.223295 0.650106 0.698033 -0.215537
C70   C     C_R   0.768071 0.358388 0.285542 -0.220455
C71   C     C_R   0.776747 0.650140 0.302032 -0.215545
C72   C     C_R   0.231874 0.358328 0.714374 -0.220469
C73   C     C_R   0.651824 0.170166 0.776484 -0.225224
C74   C     C_R   0.332830 0.848724 0.194735 -0.223640
C75   C     C_R   0.348170 0.170151 0.223492 -0.225211
C76   C     C_R   0.667165 0.848725 0.805245 -0.223643
C77   C     C_R   0.151820 0.670191 0.776465 -0.225205
C78   C     C_R   0.832828 0.348723 0.194751 -0.223663
C79   C     C_R   0.848156 0.670138 0.223474 -0.225218
C80   C     C_R   0.167173 0.348727 0.805253 -0.223643
C81   C     C_R   0.707604 0.217182 0.848934 0.055519
C82   C     C_R   0.268663 0.812699 0.104980 0.050565
C83   C     C_R   0.292391 0.217165 0.151041 0.055488
C84   C     C_R   0.731236 0.812562 0.894815 0.050528
C85   C     C_R   0.207584 0.717229 0.848866 0.055580
C86   C     C_R   0.768715 0.312618 0.105102 0.050571
C87   C     C_R   0.792371 0.717145 0.151011 0.055484
C88   C     C_R   0.231262 0.312588 0.894854 0.050539
C89   C     C_R   0.774110 0.227884 0.847473 0.052973
C90   C     C_R   0.203332 0.799941 0.107979 0.050562
C91   C     C_R   0.225905 0.227886 0.152537 0.053006
C92   C     C_R   0.796466 0.799690 0.891642 0.050697
C93   C     C_R   0.274106 0.727908 0.847437 0.052897
C94   C     C_R   0.703439 0.299798 0.108197 0.050617
C95   C     C_R   0.725888 0.727869 0.152512 0.053012
C96   C     C_R   0.296508 0.299735 0.891708 0.050653
C97   C     C_R   0.702480 0.250068 0.928712 -0.015339
C98   C     C_R   0.268515 0.787800 0.014559 -0.003490
C99   C     C_R   0.297500 0.250032 0.071234 -0.015359
C100  C     C_R   0.731402 0.787668 0.985253 -0.003401
C101  C     C_R   0.202427 0.750161 0.928574 -0.015221
C102  C     C_R   0.768559 0.287721 0.014673 -0.003434
C103  C     C_R   0.797473 0.750004 0.071190 -0.015359
C104  C     C_R   0.231428 0.287695 0.985293 -0.003409
C105  C     C_R   0.333112 0.797777 0.008989 -0.306399
C106  C     C_R   0.635045 0.243983 0.928732 -0.323197
C107  C     C_R   0.666822 0.797658 0.990857 -0.306335
C108  C     C_R   0.364912 0.243922 0.071167 -0.323248
C109  C     C_R   0.833150 0.297704 0.009091 -0.306355
C110  C     C_R   0.134947 0.744140 0.928494 -0.323128
C111  C     C_R   0.166850 0.297687 0.990900 -0.306361
C112  C     C_R   0.864874 0.743879 0.071102 -0.323294
Cu1   Cu    Cu3+1 0.526640 1.000000 0.436960 0.931828
Cu2   Cu    Cu3+1 0.473360 1.000000 0.563040 0.931825
Cu3   Cu    Cu3+1 0.026640 0.500000 0.436960 0.931836
Cu4   Cu    Cu3+1 0.973360 0.500000 0.563040 0.931825
H1    H     H_    0.384178 0.860009 0.197921 0.146296
H2    H     H_    0.603041 0.157076 0.778587 0.144398
H3    H     H_    0.615963 0.860192 0.802306 0.146246
H4    H     H_    0.396940 0.157048 0.221369 0.144381
H5    H     H_    0.884095 0.360109 0.197799 0.146272
H6    H     H_    0.103045 0.657106 0.778592 0.144448
H7    H     H_    0.115946 0.360161 0.802273 0.146262
H8    H     H_    0.896927 0.657034 0.221353 0.144381
H9    H     H_    0.266126 0.876675 0.352524 0.155414
H10   H     H_    0.730364 0.124854 0.640830 0.154264
H11   H     H_    0.733630 0.876411 0.647083 0.155473
H12   H     H_    0.269673 0.124894 0.359230 0.154268
H13   H     H_    0.766256 0.376539 0.352742 0.155439
H14   H     H_    0.230399 0.624819 0.640891 0.154276
H15   H     H_    0.233675 0.376460 0.647152 0.155456
H16   H     H_    0.769673 0.624893 0.359236 0.154275
H17   H     H_    0.329530 0.703270 0.766261 0.183755
H18   H     H_    0.654413 0.313755 0.201741 0.187394
H19   H     H_    0.670535 0.703325 0.233827 0.183729
H20   H     H_    0.345490 0.313643 0.798096 0.187421
H21   H     H_    0.829501 0.203295 0.766230 0.183735
H22   H     H_    0.154231 0.813973 0.201406 0.187378
H23   H     H_    0.170545 0.203335 0.233838 0.183740
H24   H     H_    0.845426 0.813569 0.797994 0.187469
H25   H     H_    0.384574 0.826415 0.069245 0.151537
H26   H     H_    0.580370 0.220389 0.861298 0.160752
H27   H     H_    0.615313 0.826234 0.930535 0.151585
H28   H     H_    0.419584 0.220321 0.138582 0.160721
H29   H     H_    0.884641 0.326306 0.069387 0.151587
H30   H     H_    0.080262 0.720571 0.861011 0.160782
H31   H     H_    0.115351 0.326277 0.930594 0.151565
H32   H     H_    0.919547 0.720276 0.138509 0.160688
H33   H     H_    0.453995 0.978703 0.190422 0.121466
H34   H     H_    0.546006 0.978718 0.809590 0.121423
H35   H     H_    0.953983 0.478724 0.190437 0.121468
H36   H     H_    0.046021 0.478765 0.809621 0.121412
H37   H     H_    0.688284 0.008331 0.489911 0.122919
H38   H     H_    0.311718 0.008323 0.510081 0.122903
H39   H     H_    0.188296 0.508281 0.489900 0.122897
H40   H     H_    0.811718 0.508290 0.510068 0.122920
H41   H     H_    0.258375 0.007047 0.618542 0.186007
H42   H     H_    0.741615 0.007057 0.381434 0.186008
H43   H     H_    0.758361 0.507009 0.618511 0.186006
H44   H     H_    0.241607 0.506972 0.381393 0.186007
N1    N     N_R   0.433280 0.000000 0.657760 -0.174444
N2    N     N_R   0.566720 0.000000 0.342240 -0.174454
N3    N     N_R   0.933280 0.500000 0.657760 -0.174445
N4    N     N_R   0.066720 0.500000 0.342240 -0.174451
O1    O     O_R   0.600040 0.935040 0.546740 -0.584880
O2    O     O_R   0.399960 0.064960 0.453260 -0.589397
O3    O     O_R   0.399960 0.935040 0.453260 -0.584854
O4    O     O_R   0.600040 0.064960 0.546740 -0.589385
O5    O     O_R   0.100040 0.435040 0.546740 -0.584875
O6    O     O_R   0.899960 0.564960 0.453260 -0.589394
O7    O     O_R   0.899960 0.435040 0.453260 -0.584878
O8    O     O_R   0.100040 0.564960 0.546740 -0.589347
O9    O     O_R   0.555010 0.935070 0.653220 -0.597144
O10   O     O_R   0.444990 0.064930 0.346780 -0.588654
O11   O     O_R   0.444990 0.935070 0.346780 -0.597131
O12   O     O_R   0.555010 0.064930 0.653220 -0.588658
O13   O     O_R   0.055010 0.435070 0.653220 -0.597123
O14   O     O_R   0.944990 0.564930 0.346780 -0.588663
O15   O     O_R   0.944990 0.435070 0.346780 -0.597148
O16   O     O_R   0.055010 0.564930 0.653220 -0.588659
O17   O     O_3   0.404144 0.775370 0.932423 -0.549251
C113  C     C_3   0.398462 0.830455 0.875817 -0.319023
H45   H     H_    0.399495 0.872291 0.921280 0.147438
H46   H     H_    0.343946 0.830046 0.784154 0.141268
H47   H     H_    0.451772 0.833408 0.876574 0.218639
O18   O     O_3   0.576373 0.248635 0.026569 -0.542265
C114  C     C_3   0.597827 0.193191 0.091320 -0.317873
H48   H     H_    0.662752 0.191195 0.167841 0.134051
H49   H     H_    0.581876 0.152253 0.035071 0.167881
H50   H     H_    0.562602 0.190114 0.124747 0.218587
O19   O     O_3   0.595851 0.775322 0.067537 -0.549248
C115  C     C_3   0.601528 0.830450 0.124048 -0.318932
H51   H     H_    0.600484 0.872252 0.078510 0.147389
H52   H     H_    0.656048 0.830083 0.215708 0.141235
H53   H     H_    0.548222 0.833433 0.123298 0.218683
O20   O     O_3   0.423553 0.248561 0.973286 -0.542299
C116  C     C_3   0.402118 0.193083 0.908625 -0.318053
H54   H     H_    0.337200 0.191074 0.832083 0.134141
H55   H     H_    0.418055 0.152177 0.964930 0.167901
H56   H     H_    0.437369 0.189960 0.875242 0.218558
O21   O     O_3   0.904156 0.275334 0.932477 -0.549242
C117  C     C_3   0.898474 0.330430 0.875897 -0.319016
H57   H     H_    0.899501 0.372257 0.921373 0.147424
H58   H     H_    0.843961 0.330027 0.784232 0.141250
H59   H     H_    0.951786 0.333396 0.876661 0.218666
O22   O     O_3   0.076239 0.748799 0.026279 -0.542249
C118  C     C_3   0.097735 0.693395 0.091152 -0.317594
H60   H     H_    0.162682 0.691394 0.167603 0.133900
H61   H     H_    0.081722 0.652418 0.034958 0.167850
H62   H     H_    0.062585 0.690383 0.124703 0.218662
O23   O     O_3   0.095876 0.275349 0.067576 -0.549268
C119  C     C_3   0.101554 0.330479 0.124083 -0.318967
H63   H     H_    0.100501 0.372279 0.078533 0.147381
H64   H     H_    0.156079 0.330118 0.215740 0.141280
H65   H     H_    0.048253 0.333460 0.123344 0.218655
O24   O     O_3   0.923491 0.748501 0.973187 -0.542371
C120  C     C_3   0.902059 0.693007 0.908569 -0.318330
H66   H     H_    0.837136 0.690985 0.832046 0.134225
H67   H     H_    0.918021 0.652117 0.964914 0.167965
H68   H     H_    0.937292 0.689873 0.875160 0.218521
C121  C     C_3   0.356767 0.042389 0.019023 -0.373029
C122  C     C_3   0.289721 0.092091 0.947476 -0.290812
C123  C     C_3   0.211584 0.075206 0.929183 -0.757899
H69   H     H_    0.186055 0.031214 0.879730 0.272537
H70   H     H_    0.223336 0.069713 0.013446 0.240802
H71   H     H_    0.166538 0.113007 0.880584 0.236121
H72   H     H_    0.310635 0.136350 0.994778 0.196520
H73   H     H_    0.276517 0.102733 0.863762 0.241498
H74   H     H_    0.331982 0.001907 0.035561 0.200700
H75   H     H_    0.402024 0.066467 0.101283 0.173150
C124  C     C_3   0.643205 0.042439 0.980976 -0.372982
C125  C     C_3   0.710210 0.092172 0.052531 -0.290868
C126  C     C_3   0.788340 0.075363 0.070751 -0.757982
H76   H     H_    0.776558 0.069896 0.986463 0.240850
H77   H     H_    0.833350 0.113191 0.119331 0.236143
H78   H     H_    0.813927 0.031376 0.120195 0.272512
H79   H     H_    0.689241 0.136437 0.005265 0.196515
H80   H     H_    0.723440 0.102773 0.136275 0.241523
H81   H     H_    0.668028 0.001971 0.964470 0.200701
H82   H     H_    0.597944 0.066498 0.898702 0.173172
C127  C     C_3   0.856728 0.542363 0.018996 -0.373050
C128  C     C_3   0.789653 0.592044 0.947435 -0.290776
C129  C     C_3   0.711522 0.575123 0.929136 -0.757905
H83   H     H_    0.686023 0.531124 0.879697 0.272537
H84   H     H_    0.723273 0.569626 0.013397 0.240785
H85   H     H_    0.666453 0.612908 0.880522 0.236117
H86   H     H_    0.810536 0.636306 0.994729 0.196532
H87   H     H_    0.776448 0.602693 0.863723 0.241501
H88   H     H_    0.831970 0.501873 0.035561 0.200679
H89   H     H_    0.901979 0.566457 0.101239 0.173134
C130  C     C_3   0.143156 0.542546 0.980984 -0.372891
C131  C     C_3   0.210066 0.592341 0.052569 -0.291110
C132  C     C_3   0.288143 0.575757 0.070482 -0.758310
H90   H     H_    0.313885 0.531753 0.119827 0.272345
H91   H     H_    0.276235 0.570420 0.986090 0.241050
H92   H     H_    0.333073 0.613634 0.119053 0.236229
H93   H     H_    0.188936 0.636648 0.005461 0.196499
H94   H     H_    0.223414 0.602786 0.136437 0.241683
H95   H     H_    0.168072 0.502118 0.964546 0.200727
H96   H     H_    0.097886 0.566571 0.898673 0.173235
O25   O     O_3   0.263066 0.001535 0.788558 -0.582832
C133  C     C_3   0.242603 0.939334 0.790701 -0.350449
H97   H     H_    0.276777 0.921096 0.879968 0.161680
H98   H     H_    0.251639 0.909304 0.737880 0.159311
H99   H     H_    0.177491 0.937420 0.751807 0.196335
O26   O     O_3   0.736914 0.001559 0.211406 -0.582837
C134  C     C_3   0.757386 0.939362 0.209263 -0.350418
H100  H     H_    0.723201 0.921113 0.119998 0.161612
H101  H     H_    0.748374 0.909334 0.262108 0.159305
H102  H     H_    0.822494 0.937460 0.248132 0.196350
O27   O     O_3   0.763040 0.501505 0.788523 -0.582828
C135  C     C_3   0.742591 0.439300 0.790670 -0.350449
H103  H     H_    0.776766 0.421064 0.879938 0.161666
H104  H     H_    0.751637 0.409276 0.737853 0.159311
H105  H     H_    0.677478 0.437376 0.751770 0.196331
O28   O     O_3   0.236884 0.501555 0.211345 -0.582905
C136  C     C_3   0.257353 0.439398 0.208932 -0.350031
H106  H     H_    0.223088 0.421228 0.119604 0.161461
H107  H     H_    0.248450 0.409272 0.261787 0.159289
H108  H     H_    0.322434 0.437546 0.247641 0.196379

loop_
_geom_bond_atom_site_label_1
_geom_bond_atom_site_label_2
_ccdc_geom_bond_type
C88   C96   A    
C27   H36   S    
C7    O7    A    
C15   C91   A    
C33   C45   A    
O21   C117  S    
Cu4   N3    S    
C53   C77   A    
C123  H69   S    
C6    C55   S    
Cu3   O5    S    
C53   C69   A    
C76   C84   A    
Cu1   O4    S    
C64   H20   S    
C57   C89   A    
C123  H71   S    
C61   H17   S    
C130  C131  S    
C12   C96   A    
C61   C69   A    
O17   C113  S    
C43   C127  S    
C120  H68   S    
C99   C108  A    
C1    O9    A    
C37   C38   A    
C98   C105  A    
C117  H58   S    
C6    O6    A    
C32   C36   A    
C51   C75   A    
C107  H27   S    
C50   C74   A    
Cu1   O1    S    
C132  H90   S    
C22   N2    A    
C134  H102  S    
C61   C93   A    
C136  H107  S    
C10   C94   A    
C9    C105  A    
C129  H83   S    
C63   C95   A    
C37   C42   A    
C55   C79   A    
C62   C70   A    
C124  H81   S    
C127  C128  S    
C42   C46   A    
Cu3   N4    S    
C16   O24   S    
C78   H5    S    
C8    O8    A    
C113  H45   S    
C14   C90   A    
C114  H50   S    
C13   C109  A    
C77   H6    S    
C86   C94   A    
C59   C67   A    
C71   H16   S    
C85   C93   A    
C58   C66   A    
C40   C43   A    
C20   C24   A    
C29   C33   A    
C25   N1    A    
C69   H14   S    
C56   C72   A    
C117  H59   S    
C87   C95   A    
C121  H75   S    
C118  H62   S    
C15   O23   S    
C21   H38   S    
C106  H26   S    
C34   C46   A    
C59   H23   S    
C20   H44   S    
C17   H41   S    
C126  H76   S    
C2    O2    A    
C133  H97   S    
C11   O19   S    
C97   C102  A    
C52   C68   A    
C24   H39   S    
Cu1   O11   S    
C27   N3    A    
C42   C124  S    
C78   C86   A    
C60   C92   A    
C99   C104  A    
Cu1   N2    S    
C35   C47   A    
C83   C99   A    
Cu4   O13   S    
C6    O14   A    
C125  H80   S    
C82   C98   A    
C24   N4    A    
C17   C33   A    
C74   C82   A    
C58   C90   A    
C73   C81   A    
C88   C104  A    
C3    C50   S    
C131  H93   S    
Cu2   O2    S    
C23   N3    A    
Cu2   O9    S    
C25   C29   A    
C76   H3    S    
C21   N1    A    
C117  H57   S    
C30   C34   A    
C3    O3    A    
C118  H60   S    
C84   C100  A    
C115  H53   S    
C15   C111  A    
C28   C32   A    
C127  H88   S    
O24   C120  S    
C64   C96   A    
C38   C41   A    
C2    C51   S    
Cu1   O10   S    
C110  H30   S    
C39   C40   A    
C132  H91   S    
C14   O22   S    
O22   C118  S    
C135  H103  S    
Cu2   N1    S    
C133  H98   S    
C129  H84   S    
C120  H66   S    
C27   C31   A    
C26   N2    A    
C70   H13   S    
C128  H87   S    
O19   C115  S    
Cu4   O7    S    
C103  C112  A    
C113  H47   S    
C63   H19   S    
C100  C103  A    
C116  H56   S    
C19   C23   A    
C130  H95   S    
C121  C122  S    
C18   H42   S    
C111  H31   S    
C130  H96   S    
C132  H92   S    
C18   C34   A    
C126  H78   S    
C8    O16   A    
C44   C130  S    
C45   O25   S    
O23   C119  S    
C54   C70   A    
C119  H65   S    
C1    O1    A    
C46   O26   S    
C129  H85   S    
C134  H101  S    
C123  H70   S    
C128  C129  S    
C7    C54   S    
C57   H21   S    
C51   C67   A    
C119  H63   S    
C126  H77   S    
C68   H11   S    
C5    O13   A    
C79   C87   A    
C49   C65   A    
Cu4   O6    S    
C60   H24   S    
C87   C103  A    
C97   C106  A    
C48   O28   S    
C3    O11   A    
C119  H64   S    
C13   O21   S    
C16   C92   A    
C5    C56   S    
C62   C94   A    
C11   C107  A    
C125  H79   S    
Cu4   O16   S    
C49   C73   A    
C59   C91   A    
C10   C106  A    
C39   C44   A    
C121  H74   S    
C86   C102  A    
C9    C93   A    
C108  H28   S    
C32   C40   A    
C85   C101  A    
C16   C112  A    
C72   H15   S    
C12   C108  A    
Cu1   Cu2   S    
C131  H94   S    
C11   C95   A    
C14   C110  A    
C74   H1    S    
O27   C135  S    
C62   H18   S    
C100  C107  A    
C5    O5    A    
C73   H2    S    
C113  H46   S    
C13   C89   A    
C18   C22   A    
C4    O4    A    
C41   C121  S    
C26   H33   S    
C109  H29   S    
C127  H89   S    
C57   C65   A    
O20   C116  S    
C52   C76   A    
Cu2   O3    S    
C56   C80   A    
C8    C53   S    
C104  C111  A    
C134  H100  S    
C50   C66   A    
C26   C30   A    
C133  H99   S    
C120  H67   S    
C98   C101  A    
C83   C91   A    
C79   H8    S    
C128  H86   S    
C82   C90   A    
C66   H9    S    
C4    C49   S    
C7    O15   A    
C19   H43   S    
C65   H10   S    
C25   H34   S    
C105  H25   S    
C116  H55   S    
C101  C110  A    
C81   C89   A    
C114  H48   S    
C80   C88   A    
C19   C35   A    
C67   H12   S    
C115  H51   S    
C112  H32   S    
C28   N4    A    
C58   H22   S    
O25   C133  S    
C81   C97   A    
C122  H72   S    
C135  H105  S    
Cu2   O12   S    
C125  C126  S    
C10   O18   S    
C31   C39   A    
C36   C48   A    
C31   C35   A    
C75   C83   A    
C64   C72   A    
C75   H4    S    
C116  H54   S    
C122  C123  S    
C1    C52   S    
Cu3   O15   S    
C114  H49   S    
Cu3   O14   S    
C9    O17   S    
O26   C134  S    
C2    O10   A    
C77   C85   A    
C20   C36   A    
C47   O27   S    
C44   C48   A    
Cu3   O8    S    
C23   H40   S    
O28   C136  S    
C60   C68   A    
C28   H35   S    
C135  H104  S    
C122  H73   S    
C4    O12   A    
C136  H108  S    
C29   C37   A    
C124  C125  S    
C118  H61   S    
C41   C45   A    
C124  H82   S    
C102  C109  A    
C12   O20   S    
C84   C92   A    
C30   C38   A    
O18   C114  S    
C136  H106  S    
C43   C47   A    
C63   C71   A    
C22   H37   S    
C55   C71   A    
Cu3   Cu4   S    
C115  H52   S    
C131  C132  S    
C54   C78   A    
C80   H7    S    
C17   C21   A    
