data_mof_unit_8634.cif
_audit_creation_date              2012-12-11T17:47:31-0500
_audit_creation_method            fapswitch 2.2
_symmetry_space_group_name_H-M    P1
_symmetry_Int_Tables_number       1
_space_group_crystal_system       triclinic
_cell_length_a                    15.066201
_cell_length_b                    15.073396
_cell_length_c                    15.109995
_cell_angle_alpha                 109.784032
_cell_angle_beta                  109.659106
_cell_angle_gamma                 108.918427
_cell_volume                      2643.10568151

loop_
_atom_site_label
_atom_site_type_symbol
_atom_type_description
_atom_site_fract_x
_atom_site_fract_y
_atom_site_fract_z
_atom_type_partial_charge
C1    C     C_R   0.975280 0.248651 0.062206 -0.136371
C2    C     C_R   0.076044 0.140993 0.157823 -0.237211
C3    C     C_R   0.047750 0.063454 0.737495 0.173021
C4    C     C_R   0.861451 0.899711 0.225964 0.185118
C5    C     C_R   0.039931 0.063423 0.827451 -0.215453
C6    C     C_R   0.956427 0.972994 0.238109 -0.273664
C7    C     C_R   0.557149 0.303290 0.157872 -0.130000
C8    C     C_R   0.312596 0.704221 0.834332 -0.124557
C9    C     C_R   0.656779 0.382422 0.252603 -0.144515
C10   C     C_R   0.216176 0.630627 0.734722 -0.121181
C11   C     C_R   0.739039 0.357044 0.287993 0.140968
C12   C     C_R   0.090057 0.801882 0.002925 -0.153027
C13   C     C_R   0.143149 0.664198 0.693244 0.119204
C14   C     C_R   0.720740 0.252753 0.228105 -0.192803
C15   C     C_R   0.168632 0.772339 0.752683 -0.197818
C16   C     C_R   0.313400 0.748029 0.224898 -0.122283
C17   C     C_R   0.700865 0.198168 0.790688 -0.115057
C18   C     C_R   0.622115 0.174443 0.132848 -0.123585
C19   C     C_R   0.266174 0.845922 0.850811 -0.128963
C20   C     C_R   0.539979 0.199262 0.098539 -0.092316
C21   C     C_R   0.338169 0.811861 0.891641 -0.092929
C22   C     C_R   0.847245 0.440102 0.486332 -0.242228
C23   C     C_R   0.320830 0.766554 0.325421 0.033865
C24   C     C_R   0.031579 0.577961 0.496629 -0.261991
C25   C     C_R   0.944089 0.512437 0.585320 0.076294
C26   C     C_R   0.936113 0.503895 0.397274 0.067491
C27   C     C_R   0.036922 0.585072 0.591469 0.017408
C28   C     C_R   0.841746 0.436217 0.391309 0.015600
C29   C     C_R   0.132605 0.092097 0.920851 0.084768
C30   C     C_R   0.952759 0.988476 0.151491 0.093169
C31   C     C_R   0.233501 0.098413 0.823682 0.195442
C32   C     C_R   0.755886 0.895762 0.059531 0.185071
C33   C     C_R   0.177921 0.933195 0.450486 -0.140348
C34   C     C_R   0.694398 0.136071 0.694442 0.058050
C35   C     C_R   0.728126 0.008084 0.346013 -0.154742
C36   C     C_R   0.278984 0.943413 0.469969 -0.139592
C37   C     C_R   0.710027 0.981214 0.419889 -0.190663
C38   C     C_R   0.324318 0.899154 0.528750 0.112865
C39   C     C_R   0.653075 0.018476 0.464084 0.122781
C40   C     C_R   0.216249 0.410768 0.914808 -0.172579
C41   C     C_R   0.774833 0.591256 0.029988 -0.143547
C42   C     C_R   0.271428 0.852886 0.575325 -0.166322
C43   C     C_R   0.617448 0.085708 0.436083 -0.146822
C44   C     C_R   0.171291 0.845673 0.557429 -0.119009
C45   C     C_R   0.309320 0.501812 0.951026 0.043524
C46   C     C_R   0.635186 0.111164 0.360735 -0.126466
C47   C     C_R   0.123919 0.884113 0.494141 -0.188297
C48   C     C_R   0.688383 0.069594 0.313839 -0.081924
C49   C     C_R   0.519957 0.973717 0.623275 -0.242266
C50   C     C_R   0.518609 0.859297 0.436781 -0.214168
C51   C     C_R   0.609255 0.021685 0.611798 0.054794
C52   C     C_R   0.419916 0.833152 0.433861 0.061587
C53   C     C_R   0.604788 0.964171 0.513151 0.012143
C54   C     C_R   0.420705 0.892839 0.530394 0.019716
C55   C     C_R   0.140716 0.071772 0.733021 -0.193494
C56   C     C_R   0.673503 0.499666 0.961850 0.024546
C57   C     C_R   0.760559 0.865530 0.138752 -0.241738
C58   C     C_R   0.051465 0.039791 0.147403 0.038333
C59   C     C_R   0.128778 0.097604 0.020043 0.052554
C60   C     C_R   0.228673 0.109230 0.917657 -0.279648
C61   C     C_R   0.852842 0.954829 0.065255 -0.192293
C62   C     C_R   0.089263 0.978599 0.091523 0.058701
C63   C     C_R   0.094765 0.160493 0.080095 0.051601
C64   C     C_R   0.996103 0.589421 0.298876 -0.181213
C65   C     C_R   0.937076 0.410515 0.686363 -0.132854
C66   C     C_3   0.459585 0.423670 0.846199 -0.146111
C67   C     C_R   0.943316 0.499240 0.303557 0.071717
C68   C     C_3   0.516088 0.580235 0.040041 -0.171401
C69   C     C_3   0.439469 0.520947 0.864762 -0.156957
C70   C     C_3   0.534590 0.482780 0.021697 -0.136996
C71   C     C_3   0.401633 0.502447 0.942145 0.187864
C72   C     C_3   0.573767 0.500957 0.944723 0.193851
C73   C     C_3   0.419454 0.405092 0.923376 -0.157425
C74   C     C_3   0.555964 0.598217 0.962664 -0.194274
C75   C     C_R   0.304615 0.591877 0.004956 -0.140344
C76   C     C_R   0.684511 0.408981 0.947040 -0.137668
C77   C     C_R   0.913418 0.408882 0.211571 -0.121997
C78   C     C_R   0.952012 0.503371 0.679167 0.033482
C79   C     C_R   0.017231 0.591320 0.781904 -0.097370
C80   C     C_R   0.216997 0.730735 0.308206 -0.109009
C81   C     C_R   0.788781 0.198105 0.698479 -0.163824
C82   C     C_R   0.076991 0.264932 0.983565 -0.132773
C83   C     C_R   0.000718 0.802016 0.093734 -0.140047
C84   C     C_R   0.055795 0.228139 0.049331 0.052292
C85   C     C_R   0.057689 0.864543 0.061785 0.071924
C86   C     C_3   0.965760 0.068722 0.651214 -0.443314
C87   C     C_3   0.018818 0.180554 0.659689 -0.247621
C88   C     C_3   0.969607 0.179884 0.553467 -0.938086
C89   C     C_R   0.143180 0.020514 0.043343 -0.237044
C90   C     C_3   0.873823 0.858042 0.305238 -0.474276
C91   C     C_3   0.770092 0.764561 0.278507 -0.256321
C92   C     C_3   0.793497 0.725300 0.360050 -0.940423
C93   C     C_3   0.339325 0.120540 0.824222 -0.477891
C94   C     C_3   0.342979 0.138991 0.731178 -0.221742
C95   C     C_3   0.450712 0.166066 0.734821 -0.944695
C96   C     C_3   0.648894 0.865548 0.969184 -0.469697
C97   C     C_3   0.632402 0.799763 0.856110 -0.233248
C98   C     C_3   0.520356 0.760491 0.765282 -0.907062
H1    H     H_    0.938512 0.229840 0.108297 0.093548
H2    H     H_    0.110601 0.798271 0.725944 0.118116
H3    H     H_    0.608845 0.094146 0.086313 0.097367
H4    H     H_    0.284725 0.928629 0.896482 0.107955
H5    H     H_    0.777051 0.384943 0.482980 0.133840
H6    H     H_    0.104604 0.627331 0.499792 0.139661
H7    H     H_    0.965244 0.049993 0.828490 0.126191
H8    H     H_    0.034205 0.004995 0.307044 0.117412
H9    H     H_    0.361221 0.327839 0.909710 0.121911
H10   H     H_    0.613798 0.671813 0.971389 0.131553
H11   H     H_    0.378582 0.765033 0.207051 0.098163
H12   H     H_    0.150244 0.827795 0.980289 0.102957
H13   H     H_    0.656842 0.169341 0.827121 0.085289
H14   H     H_    0.299698 0.131242 0.988983 0.122049
H15   H     H_    0.851395 0.975150 0.002736 0.118388
H16   H     H_    0.046951 0.878269 0.481989 0.131097
H17   H     H_    0.698251 0.082583 0.251436 0.109460
H18   H     H_    0.142823 0.964734 0.403170 0.109760
H19   H     H_    0.774716 0.983097 0.315260 0.150380
H20   H     H_    0.319448 0.980406 0.434407 0.116199
H21   H     H_    0.737115 0.928866 0.440185 0.129725
H22   H     H_    0.305052 0.818712 0.621005 0.126454
H23   H     H_    0.463230 0.137103 0.026344 0.087311
H24   H     H_    0.569824 0.112070 0.466885 0.114985
H25   H     H_    0.127985 0.807972 0.589645 0.129692
H26   H     H_    0.604501 0.159535 0.336028 0.127720
H27   H     H_    0.519645 0.012274 0.697399 0.132656
H28   H     H_    0.519255 0.813820 0.364224 0.123741
H29   H     H_    0.176083 0.979244 0.002569 0.123366
H30   H     H_    0.051699 0.189370 0.205175 0.130107
H31   H     H_    0.397496 0.534536 0.798969 0.106457
H32   H     H_    0.576020 0.467668 0.086497 0.120969
H33   H     H_    0.437651 0.366692 0.763500 0.112815
H34   H     H_    0.413093 0.868447 0.968403 0.096852
H35   H     H_    0.535417 0.643913 0.118631 0.105968
H36   H     H_    0.193503 0.328183 0.864002 0.093090
H37   H     H_    0.794316 0.675079 0.062905 0.116376
H38   H     H_    0.018241 0.671366 0.351501 0.127456
H39   H     H_    0.889353 0.327753 0.620439 0.119820
H40   H     H_    0.360268 0.675230 0.034064 0.091751
H41   H     H_    0.623711 0.328330 0.916221 0.122885
H42   H     H_    0.866566 0.325027 0.185538 0.098144
H43   H     H_    0.040197 0.674469 0.805055 0.114231
H44   H     H_    0.190847 0.721232 0.363681 0.131367
H45   H     H_    0.493082 0.322220 0.130938 0.106634
H46   H     H_    0.819220 0.170079 0.646501 0.122543
H47   H     H_    0.140930 0.270822 0.965625 0.126280
H48   H     H_    0.983947 0.827658 0.157658 0.116098
H49   H     H_    0.140817 0.064965 0.659702 0.117796
H50   H     H_    0.685996 0.818232 0.133875 0.113297
H51   H     H_    0.965325 0.114303 0.487180 0.262679
H52   H     H_    0.888765 0.171182 0.532313 0.275806
H53   H     H_    0.020837 0.258629 0.563422 0.247526
H54   H     H_    0.013233 0.240513 0.721702 0.198331
H55   H     H_    0.105913 0.210465 0.685423 0.194175
H56   H     H_    0.367713 0.678149 0.867824 0.104725
H57   H     H_    0.938417 0.002046 0.570441 0.186388
H58   H     H_    0.893444 0.056357 0.660636 0.176135
H59   H     H_    0.850335 0.693795 0.357370 0.264561
H60   H     H_    0.829267 0.792517 0.443626 0.256836
H61   H     H_    0.716704 0.658872 0.339364 0.248095
H62   H     H_    0.709649 0.790863 0.279855 0.191085
H63   H     H_    0.735193 0.695634 0.196553 0.212051
H64   H     H_    0.931876 0.827702 0.305184 0.194125
H65   H     H_    0.909923 0.926613 0.387929 0.183961
H66   H     H_    0.493956 0.250486 0.754580 0.249131
H67   H     H_    0.669284 0.462442 0.298856 0.109614
H68   H     H_    0.499877 0.150464 0.794154 0.255777
H69   H     H_    0.439059 0.117738 0.654262 0.259685
H70   H     H_    0.282280 0.064054 0.655051 0.236074
H71   H     H_    0.321407 0.202092 0.729029 0.181221
H72   H     H_    0.406962 0.194331 0.902051 0.193292
H73   H     H_    0.352504 0.051016 0.819333 0.195610
H74   H     H_    0.516505 0.725743 0.685620 0.249177
H75   H     H_    0.457633 0.696017 0.764444 0.256082
H76   H     H_    0.503232 0.828612 0.775794 0.264476
H77   H     H_    0.693511 0.850870 0.843599 0.192772
H78   H     H_    0.197153 0.547255 0.691458 0.106250
H79   H     H_    0.642798 0.728468 0.849264 0.195883
H80   H     H_    0.580332 0.818393 0.976397 0.187864
H81   H     H_    0.647767 0.941366 0.977911 0.182876
H82   H     H_    0.784494 0.233446 0.254982 0.106640
N1    N     N_R   0.947560 0.293820 0.002910 -0.041286
N2    N     N_R   0.789450 0.443190 0.997090 -0.036568
N3    N     N_R   0.945970 0.443180 0.152110 -0.039150
N4    N     N_R   0.054030 0.556820 0.847890 -0.039584
N5    N     N_R   0.151530 0.706170 0.208880 -0.044382
N6    N     N_R   0.848470 0.293830 0.791120 -0.040485
N7    N     N_R   0.004980 0.293810 0.946140 -0.045620
N8    N     N_R   0.995020 0.706190 0.053860 -0.042563
N9    N     N_R   0.052440 0.706180 0.997090 -0.041447
N10   N     N_R   0.208960 0.706170 0.152110 -0.041883
N11   N     N_R   0.791040 0.293830 0.847890 -0.038339
N12   N     N_R   0.154330 0.443160 0.946140 -0.039189
N13   N     N_R   0.845670 0.556840 0.053860 -0.035272
N14   N     N_R   0.002190 0.556820 0.208880 -0.040478
N15   N     N_R   0.997810 0.443180 0.791120 -0.044146
N16   N     N_R   0.210550 0.556810 0.002910 -0.032995
Ni1   Ni    Ni4+2 0.869690 0.369690 0.000000 0.212642
Ni2   Ni    Ni4+2 0.130310 0.630310 0.000000 0.220156
Ni3   Ni    Ni4+2 0.001390 0.369680 0.869810 0.203103
Ni4   Ni    Ni4+2 0.998610 0.630320 0.130190 0.212506

loop_
_geom_bond_atom_site_label_1
_geom_bond_atom_site_label_2
_ccdc_geom_bond_type
N9    Ni2   S    
C58   C62   A    
C47   H16   S    
C91   H63   S    
C87   C88   S    
C64   H38   S    
C93   C94   S    
C97   H77   S    
C45   C71   S    
C88   H51   S    
C14   C18   A    
C67   C77   A    
C77   H42   S    
C15   H2    S    
N1    Ni1   S    
C1    H1    S    
C12   H12   S    
C97   C98   S    
N1    N7    A    
N5    N10   A    
C21   H34   S    
C5    H7    S    
C17   N11   A    
C1    C84   A    
C15   C19   A    
C12   N9    A    
C34   C51   S    
N3    Ni1   S    
C12   C85   A    
C90   H64   S    
C92   H61   S    
C56   C76   A    
C26   C67   S    
N12   N16   A    
C68   H35   S    
C19   C21   A    
C24   C26   A    
C32   C61   A    
C38   C42   A    
C40   N12   A    
C94   H71   S    
C37   H21   S    
C98   H76   S    
C19   H4    S    
C73   H9    S    
C66   C69   S    
N8    Ni4   S    
C68   C74   S    
C49   C54   A    
C62   C89   A    
C70   H32   S    
N3    N14   A    
C79   N4    A    
C92   H60   S    
C59   C89   A    
N12   Ni3   S    
N6    N11   A    
C69   C71   S    
C86   H58   S    
C82   C84   A    
C41   N13   A    
C77   N3    A    
C3    C55   A    
C81   H46   S    
C66   C72   S    
C29   C59   S    
C49   C51   A    
C22   C25   A    
C64   N14   A    
C4    C57   A    
C50   C52   A    
C80   N5    A    
C87   H55   S    
C50   H28   S    
C34   C81   A    
C69   H31   S    
C23   C80   A    
C8    H56   S    
C5    C29   A    
C44   C47   A    
C98   H74   S    
C75   N16   A    
C88   H52   S    
N5    Ni4   S    
C22   C28   A    
C3    C86   S    
C46   H26   S    
N2    Ni1   S    
C42   C44   A    
C32   C57   A    
C76   N2    A    
C35   C48   A    
C17   H13   S    
C7    H45   S    
C52   C54   A    
C16   H11   S    
N15   Ni3   S    
C10   H78   S    
C40   C45   A    
C37   C39   A    
C62   C85   S    
C46   C48   A    
C93   H72   S    
C50   C53   A    
C30   C61   A    
C33   C36   A    
C64   C67   A    
C72   C74   S    
C63   C84   S    
C94   H70   S    
C91   C92   S    
C71   C73   S    
C98   H75   S    
C1    N1    A    
C78   C79   A    
C39   C43   A    
C56   C72   S    
C31   C93   S    
C66   C73   S    
C40   H36   S    
C75   H40   S    
C22   H5    S    
C25   C78   S    
N7    Ni3   S    
C92   H59   S    
C51   C53   A    
C18   H3    S    
C31   C60   A    
C86   H57   S    
C41   C56   A    
C60   H14   S    
C83   H48   S    
C97   H79   S    
C38   C54   S    
C29   C60   A    
C24   C27   A    
C96   C97   S    
C70   C73   S    
C8    C21   A    
C6    H8    S    
C69   C74   S    
N2    N13   A    
N4    Ni2   S    
C9    C11   A    
C43   H24   S    
C91   H62   S    
C16   N10   A    
C48   H17   S    
C31   C55   A    
C55   H49   S    
N16   Ni2   S    
C83   C85   A    
C16   C23   A    
C80   H44   S    
C87   H54   S    
C13   C15   A    
C61   H15   S    
C33   C47   A    
C88   H53   S    
N14   Ni4   S    
C83   N8    A    
C35   H19   S    
C4    C6    A    
C17   C34   A    
C90   C91   S    
N4    N15   A    
C95   H68   S    
C81   N6    A    
C41   H37   S    
C82   H47   S    
C36   H20   S    
C2    C63   A    
N10   Ni2   S    
C20   H23   S    
C66   H33   S    
C89   H29   S    
C76   H41   S    
C35   C37   A    
C7    C9    A    
C93   H73   S    
C33   H18   S    
C65   C78   A    
C6    C30   A    
C86   C87   S    
C59   C63   A    
C13   C27   S    
N11   Ni1   S    
C3    C5    A    
C10   C13   A    
C95   H69   S    
C2    C58   A    
C4    C90   S    
C79   H43   S    
C25   C27   A    
N13   Ni4   S    
C49   H27   S    
C82   N7    A    
C44   H25   S    
C26   C28   A    
C90   H65   S    
C45   C75   A    
C96   H80   S    
C9    H67   S    
C65   H39   S    
C32   C96   S    
C95   H66   S    
C42   H22   S    
C23   C52   S    
C39   C53   S    
C11   C28   S    
C68   C71   S    
C30   C58   S    
C36   C38   A    
C11   C14   A    
C18   C20   A    
C96   H81   S    
C94   C95   S    
N6    Ni3   S    
C43   C46   A    
C74   H10   S    
C8    C10   A    
C7    C20   A    
C57   H50   S    
C68   C70   S    
N8    N9    A    
C70   C72   S    
C24   H6    S    
C14   H82   S    
C65   N15   A    
C2    H30   S    
