data_mof_unit_46345.cif
_audit_creation_date              2012-12-11T15:53:54-0500
_audit_creation_method            fapswitch 2.2
_symmetry_space_group_name_H-M    P1
_symmetry_Int_Tables_number       1
_space_group_crystal_system       triclinic
_cell_length_a                    10.679769
_cell_length_b                    10.810342
_cell_length_c                    17.047669
_cell_angle_alpha                 80.563021
_cell_angle_beta                  99.264594
_cell_angle_gamma                 118.659005
_cell_volume                      1695.9613336

loop_
_atom_site_label
_atom_site_type_symbol
_atom_type_description
_atom_site_fract_x
_atom_site_fract_y
_atom_site_fract_z
_atom_type_partial_charge
C1    C     C_R   0.361124 0.229429 0.627435 0.570415
C2    C     C_R   0.387397 0.830887 0.671972 0.257885
C3    C     C_R   0.370507 0.851157 0.748880 -0.160130
C4    C     C_3   0.141641 0.454582 0.795361 0.225313
C5    C     C_3   0.136036 0.430516 0.708435 0.160190
C6    C     C_R   0.311730 0.692602 0.645744 -0.001071
C7    C     C_1   0.823120 0.656348 0.705986 -0.032637
C8    C     C_1   0.851403 0.684818 0.773640 -0.047819
C9    C     C_1   0.345054 0.187642 0.709707 -0.052129
C10   C     C_1   0.320839 0.159621 0.778168 -0.055767
C11   C     C_1   0.318368 0.683047 0.280391 0.039434
C12   C     C_R   0.368273 0.654926 0.585299 0.551735
C13   C     C_1   0.295960 0.705307 0.209743 0.043841
C14   C     C_R   0.796399 0.654139 0.146732 0.011838
C15   C     C_R   0.740602 0.519160 0.190302 -0.041541
C16   C     C_R   0.728089 0.509396 0.270236 -0.045389
C17   C     C_R   0.781930 0.754225 0.260556 -0.047913
C18   C     C_R   0.801221 0.767433 0.179989 -0.168250
C19   C     C_3   0.774007 0.394886 0.206921 0.159087
C20   C     C_3   0.790394 0.410641 0.295595 0.281450
C21   C     C_R   0.748854 0.623143 0.307153 -0.032110
C22   C     C_R   0.270649 0.070424 0.177848 0.011986
C23   C     C_R   0.776301 0.618312 0.626840 0.560926
C24   C     C_R   0.177428 0.107054 0.203960 -0.089066
C25   C     C_R   0.200013 0.146851 0.278562 0.001797
C26   C     C_R   0.392993 0.087258 0.312673 -0.122095
C27   C     C_R   0.377300 0.053326 0.233043 0.225911
C28   C     C_3   0.115970 0.205410 0.167363 -0.101380
C29   C     C_3   0.148154 0.256012 0.249952 0.192739
C30   C     C_R   0.311495 0.145336 0.332906 -0.020707
C31   C     C_R   0.892783 0.702452 0.855819 0.531004
C32   C     C_R   0.282847 0.749912 0.883009 0.572646
C33   C     C_R   0.284451 0.114089 0.857730 0.567644
C34   C     C_R   0.348592 0.221386 0.402294 0.567041
C35   C     C_R   0.881263 0.688304 0.080886 0.553631
C36   C     C_R   0.284584 0.737212 0.125538 0.579624
C37   C     C_R   0.248737 0.043110 0.095120 0.571402
C38   C     C_R   0.363063 0.656680 0.361662 0.569954
C39   C     C_R   0.716196 0.592885 0.389388 0.558117
C40   C     C_R   0.284636 0.735165 0.799871 -0.058084
C41   C     C_R   0.195448 0.608489 0.766637 -0.026203
C42   C     C_R   0.199728 0.589450 0.689546 -0.053782
Cr1   Cr    Cr6+3 0.608440 0.389080 0.519680 1.043214
Cr2   Cr    Cr6+3 0.288640 0.400090 0.490760 1.014556
Cr3   Cr    Cr6+3 0.602940 0.710800 0.489510 1.026789
Cr4   Cr    Cr6+3 0.052530 0.947560 0.964210 1.024592
Cr5   Cr    Cr6+3 0.059970 0.626800 0.992920 1.030305
Cr6   Cr    Cr6+3 0.373320 0.938440 0.995370 1.023887
H1    H     H_    0.674229 0.298333 0.189376 0.130546
H2    H     H_    0.470432 0.077244 0.358181 0.164193
H3    H     H_    0.000166 0.143556 0.148703 0.062581
H4    H     H_    0.048870 0.230264 0.276114 0.165011
H5    H     H_    0.430335 0.954842 0.770330 0.130899
H6    H     H_    0.033955 0.408509 0.817231 0.175141
H7    H     H_    0.202564 0.381729 0.698618 0.147787
H8    H     H_    0.839515 0.871650 0.147039 0.135272
O1    O     O_R   0.754020 0.497590 0.609930 -0.490980
O2    O     O_R   0.295080 0.533620 0.397890 -0.442811
O3    O     O_R   0.485280 0.746620 0.388440 -0.559953
O4    O     O_R   0.720550 0.696220 0.420010 -0.484893
O5    O     O_3   0.500010 0.499990 0.499980 -0.290422
O6    O     O_R   0.163320 0.092900 0.874450 -0.457576
O7    O     O_R   0.934650 0.822080 0.882840 -0.496968
O8    O     O_R   0.915520 0.604140 0.893670 -0.532613
O9    O     O_R   0.191760 0.638110 0.923230 -0.463260
O10   O     O_R   0.406180 0.826930 0.920660 -0.516639
O11   O     O_R   0.358620 0.062870 0.901950 -0.529205
O12   O     O_R   0.481420 0.271390 0.600630 -0.481435
O13   O     O_R   0.163910 0.085460 0.050210 -0.512491
O14   O     O_R   0.935200 0.815170 0.045770 -0.533390
O15   O     O_R   0.916120 0.596690 0.069430 -0.478800
O16   O     O_R   0.192310 0.631200 0.086170 -0.459665
O17   O     O_R   0.406770 0.819480 0.096420 -0.488658
O18   O     O_R   0.359170 0.055960 0.064880 -0.459291
O19   O     O_3   0.161940 0.837600 0.984160 -0.333751
O20   O     O_R   0.263810 0.254550 0.589590 -0.538278
O21   O     O_R   0.300820 0.531200 0.560890 -0.538955
O22   O     O_R   0.491480 0.744020 0.564270 -0.469479
O23   O     O_R   0.726290 0.693800 0.583010 -0.500560
O24   O     O_R   0.747830 0.500190 0.434090 -0.486380
O25   O     O_R   0.475680 0.273800 0.437630 -0.482751
O26   O     O_R   0.257620 0.257160 0.413750 -0.494264
O27   O     O_3   0.476172 0.943679 0.621789 -0.545968
C43   C     C_3   0.616291 0.013166 0.659913 -0.064137
H9    H     H_    0.650798 0.938521 0.697957 0.115306
H10   H     H_    0.625541 0.095126 0.695408 0.136597
H11   H     H_    0.691500 0.067546 0.613137 0.134719
O28   O     O_3   0.698822 0.288132 0.342517 -0.596931
C44   C     C_3   0.774187 0.220530 0.390498 -0.115150
H12   H     H_    0.837986 0.281703 0.441422 0.113884
H13   H     H_    0.845978 0.207590 0.355787 0.131740
H14   H     H_    0.697068 0.114524 0.415961 0.126017
C45   C     C_1   0.938955 0.494496 0.332217 0.278347
N1    N     N_1   0.051523 0.562018 0.362678 -0.315873
O29   O     O_3   0.461875 0.009479 0.202849 -0.576661
C46   C     C_3   0.575923 0.003334 0.253895 -0.099529
H15   H     H_    0.602050 0.929246 0.230976 0.156628
H16   H     H_    0.550788 0.962365 0.315404 0.148672
H17   H     H_    0.672234 0.106294 0.251437 0.147011
C47   C     C_1   0.195091 0.315909 0.104443 0.269069
N2    N     N_1   0.256832 0.401740 0.055062 -0.219678
O30   O     O_3   0.248267 0.402225 0.253865 -0.546196
C48   C     C_3   0.392981 0.441946 0.245045 -0.071185
H18   H     H_    0.439199 0.544769 0.207646 0.134401
H19   H     H_    0.409851 0.367350 0.215960 0.111550
H20   H     H_    0.454439 0.458471 0.304305 0.125824
O31   O     O_3   0.234417 0.413651 0.850453 -0.544373
C49   C     C_3   0.382125 0.493317 0.839180 -0.086250
H21   H     H_    0.430454 0.593779 0.867232 0.157016
H22   H     H_    0.404367 0.514533 0.775666 0.067191
H23   H     H_    0.437239 0.431827 0.870364 0.145070
O32   O     O_3   0.990948 0.359401 0.677439 -0.588335
C50   C     C_3   0.981190 0.351080 0.595116 -0.081675
H24   H     H_    0.030365 0.286856 0.582885 0.137222
H25   H     H_    0.028486 0.457932 0.561434 0.156628
H26   H     H_    0.866095 0.297679 0.573566 0.119215
C51   C     C_1   0.823203 0.881918 0.296222 0.211127
N3    N     N_1   0.857206 0.983313 0.326132 -0.377151
O33   O     O_3   0.901568 0.414904 0.180234 -0.544788
C52   C     C_3   0.866221 0.320054 0.122631 -0.068895
H27   H     H_    0.781918 0.322935 0.075525 0.122001
H28   H     H_    0.830045 0.210387 0.151646 0.075782
H29   H     H_    0.962175 0.352420 0.091717 0.160917

loop_
_geom_bond_atom_site_label_1
_geom_bond_atom_site_label_2
_ccdc_geom_bond_type
C37   O18   A    
Cr3   O4    S    
C16   C21   A    
C37   O13   A    
C3    H5    S    
C41   C42   A    
C14   C18   A    
C27   O29   S    
C19   C20   S    
C43   H11   S    
C20   C45   S    
C7    C8    T    
C15   C19   S    
C33   O11   A    
C26   C27   A    
C45   N1    T    
Cr4   O6    S    
Cr2   O21   S    
C43   H10   S    
Cr2   O26   S    
C26   H2    S    
C6    C12   S    
C28   H3    S    
C4    C41   S    
C15   C16   A    
C46   H17   S    
C1    O12   A    
C49   H21   S    
Cr2   O20   S    
Cr4   O19   S    
Cr4   O13   S    
C38   O2    A    
O29   C46   S    
C35   O14   A    
Cr2   O2    S    
C33   O6    A    
C46   H16   S    
O31   C49   S    
Cr3   O22   S    
C34   O25   A    
C44   H13   S    
C9    C10   T    
C52   H29   S    
C18   H8    S    
C50   H26   S    
C28   C47   S    
C35   O15   A    
C12   O21   A    
C1    O20   A    
Cr6   O19   S    
C2    O27   S    
C2    C6    A    
C31   O8    A    
O32   C50   S    
C52   H28   S    
C25   C29   S    
C4    O31   S    
C30   C34   S    
C31   O7    A    
C1    C9    S    
C24   C25   A    
C13   C36   S    
C48   H19   S    
C14   C35   S    
Cr1   O12   S    
Cr1   O24   S    
C22   C37   S    
C17   C21   A    
C12   O22   A    
C48   H20   S    
C11   C38   S    
Cr6   O18   S    
C19   H1    S    
O27   C43   S    
C21   C39   S    
C16   C20   S    
C46   H15   S    
C17   C18   A    
Cr3   O23   S    
C43   H9    S    
C44   H14   S    
Cr5   O15   S    
C40   C41   A    
C3    C40   A    
C26   C30   A    
C22   C27   A    
Cr1   O25   S    
C22   C24   A    
C28   C29   S    
Cr5   O8    S    
C52   H27   S    
Cr1   O5    S    
C5    C42   S    
C32   O10   A    
C50   H24   S    
C25   C30   A    
C23   O1    A    
Cr3   O3    S    
C4    H6    S    
C8    C31   S    
Cr6   O17   S    
C5    H7    S    
C24   C28   S    
C4    C5    S    
O33   C52   S    
C5    O32   S    
C17   C51   S    
Cr2   O5    S    
C49   H23   S    
Cr4   O7    S    
C23   O23   A    
C39   O24   A    
C2    C3    A    
Cr5   O19   S    
C51   N3    T    
C11   C13   T    
C7    C23   S    
C39   O4    A    
C20   O28   S    
Cr3   O5    S    
C47   N2    T    
C49   H22   S    
C29   O30   S    
C10   C33   S    
C32   C40   S    
Cr6   O11   S    
O30   C48   S    
Cr5   O16   S    
Cr4   O14   S    
C36   O17   A    
Cr1   O1    S    
C19   O33   S    
C38   O3    A    
O28   C44   S    
C6    C42   A    
C48   H18   S    
C14   C15   A    
C34   O26   A    
Cr6   O10   S    
C44   H12   S    
Cr5   O9    S    
C36   O16   A    
C32   O9    A    
C50   H25   S    
C29   H4    S    
