data_mof_unit_25246.cif
_audit_creation_date              2013-03-05T16:08:13-0500
_audit_creation_method            fapswitch 2.2
_symmetry_space_group_name_H-M    P1
_symmetry_Int_Tables_number       1
_space_group_crystal_system       triclinic
_cell_length_a                    6.952982
_cell_length_b                    14.668546
_cell_length_c                    15.968687
_cell_angle_alpha                 90.053685
_cell_angle_beta                  90.307143
_cell_angle_gamma                 90.284583
_cell_volume                      1628.60431748

loop_
_atom_site_label
_atom_site_type_symbol
_atom_site_description
_atom_site_fract_x
_atom_site_fract_y
_atom_site_fract_z
_atom_type_partial_charge
O1    O     O_R   0.505720 0.583900 0.413310 -0.605760
O2    O     O_R   0.175940 0.594920 0.586080 -0.578917
O3    O     O_R   0.005640 0.416100 0.586690 -0.617750
C1    C     C_R   0.345447 0.618600 0.613544 0.977203
O4    O     O_R   0.176000 0.594930 0.413930 -0.566361
O5    O     O_R   0.005700 0.416110 0.413310 -0.598646
C2    C     C_R   0.344757 0.617481 0.385600 0.960717
O6    O     O_R   0.505660 0.583890 0.586690 -0.583539
O7    O     O_3   0.339200 0.441330 0.500000 -0.289450
V1    V     V_3+5 0.064350 0.510880 0.500000 1.216073
O8    O     O_R   0.675980 0.405080 0.413920 -0.606142
C3    C     C_R   0.844763 0.382731 0.385453 0.924845
O9    O     O_R   0.675920 0.405070 0.586070 -0.579335
C4    C     C_R   0.846118 0.383291 0.615167 0.993161
V2    V     V_3+5 0.564340 0.489120 0.500000 1.198273
O10   O     O_3   0.839360 0.558670 0.500000 -0.242821
H1    H     H_    0.562419 0.091710 0.522296 0.132154
C5    C     C_R   0.067418 0.414728 0.771117 -0.101524
C6    C     C_R   0.137825 0.439893 0.849802 -0.156749
C7    C     C_R   0.097163 0.386968 0.920075 0.422656
C8    C     C_R   0.010196 0.301607 0.908379 -0.203459
C9    C     C_R   0.950312 0.271840 0.827878 0.042715
C10   C     C_R   0.960484 0.333487 0.759547 0.110353
C11   C     C_R   0.875940 0.183079 0.815629 -0.265372
C12   C     C_R   0.792177 0.159114 0.737302 0.129216
C13   C     C_R   0.781302 0.224762 0.671604 0.112346
C14   C     C_R   0.862442 0.313094 0.682911 -0.289463
C15   C     C_R   0.720393 0.069972 0.722459 -0.203528
C16   C     C_R   0.636916 0.046575 0.645898 -0.088179
C17   C     C_R   0.625400 0.110565 0.582037 -0.072771
C18   C     C_R   0.697832 0.198371 0.594126 -0.189904
H2    H     H_    0.095342 0.461374 0.720629 0.183121
H3    H     H_    0.216191 0.503459 0.856330 0.205412
H4    H     H_    0.985988 0.259568 0.962967 0.165398
H5    H     H_    0.729163 0.016979 0.769298 0.112802
H6    H     H_    0.582459 0.978113 0.635864 0.133536
H7    H     H_    0.691203 0.244188 0.541252 0.112061
C19   C     C_R   0.741828 0.253567 0.183965 0.127048
C20   C     C_R   0.885431 0.187395 0.181320 -0.238479
C21   C     C_R   0.031654 0.193873 0.242769 -0.086779
H8    H     H_    0.150966 0.146785 0.242102 0.111865
C22   C     C_R   0.018304 0.257491 0.309150 -0.154823
H9    H     H_    0.128674 0.257853 0.357222 0.125098
C23   C     C_R   0.858361 0.316216 0.315901 -0.203348
C24   C     C_R   0.728065 0.315803 0.248921 0.172858
C25   C     C_3   0.513720 0.318553 0.243504 -0.594179
C26   C     C_3   0.529863 0.250522 0.171002 0.188046
H10   H     H_    0.459706 0.386920 0.225108 0.244921
H11   H     H_    0.445349 0.288885 0.300012 0.174971
H12   H     H_    0.464952 0.182484 0.183526 0.068583
C27   C     C_R   0.503977 0.687222 0.740768 0.125934
C28   C     C_R   0.354466 0.687348 0.681811 -0.261522
C29   C     C_R   0.206603 0.751724 0.693350 -0.029684
H13   H     H_    0.086982 0.754320 0.649887 0.139805
C30   C     C_R   0.214987 0.815387 0.759751 -0.147687
H14   H     H_    0.101542 0.865164 0.765622 0.122737
C31   C     C_R   0.374128 0.817903 0.814928 -0.205924
C32   C     C_R   0.514919 0.751936 0.804373 0.138166
C33   C     C_3   0.725721 0.764594 0.795011 -0.581227
C34   C     C_3   0.716059 0.691542 0.727296 0.208379
H15   H     H_    0.804949 0.745003 0.852871 0.246728
H16   H     H_    0.762501 0.833181 0.770062 0.162404
H17   H     H_    0.758664 0.714757 0.663790 0.074935
C35   C     C_R   0.497632 0.754276 0.316076 0.094531
C36   C     C_R   0.351694 0.688129 0.319267 -0.247921
C37   C     C_R   0.203804 0.694568 0.258633 -0.067632
H18   H     H_    0.084026 0.647224 0.259737 0.126911
C38   C     C_R   0.215582 0.758242 0.192461 -0.138275
H19   H     H_    0.103749 0.758488 0.145066 0.140047
C39   C     C_R   0.376281 0.816769 0.184621 -0.203868
C40   C     C_R   0.510690 0.815767 0.250117 0.142969
C41   C     C_3   0.725081 0.814602 0.250474 -0.598568
C42   C     C_3   0.711351 0.748465 0.324212 0.209139
H20   H     H_    0.788161 0.882298 0.266277 0.222138
H21   H     H_    0.782901 0.782550 0.192900 0.187128
H22   H     H_    0.768969 0.679304 0.311395 0.074430
O11   O     O_R   0.229140 0.916090 0.913340 -0.600659
O12   O     O_R   0.558860 0.905090 0.086080 -0.593724
O13   O     O_R   0.729100 0.083920 0.086690 -0.602151
C43   C     C_R   0.389739 0.882861 0.114662 0.947324
O14   O     O_R   0.558860 0.905090 0.913930 -0.601793
O15   O     O_R   0.729100 0.083920 0.913310 -0.583675
C44   C     C_R   0.389127 0.885393 0.883516 0.949114
O16   O     O_R   0.229140 0.916080 0.086720 -0.603718
O17   O     O_3   0.395570 0.058660 0.000020 -0.232396
V3    V     V_3+5 0.670450 0.989140 0.000000 1.180641
O18   O     O_R   0.058810 0.094980 0.913910 -0.582874
C45   C     C_R   0.889346 0.115121 0.884229 0.938629
O19   O     O_R   0.058810 0.094980 0.086060 -0.570144
C46   C     C_R   0.890833 0.117062 0.114775 0.947034
V4    V     V_3+5 0.170450 0.010950 0.999970 1.205941
O20   O     O_3   0.895460 0.941370 0.999990 -0.285509
N1    N     N_R   0.475902 0.289053 0.089849 0.272015
O21   O     O_R   0.362845 0.243185 0.040132 -0.369834
O22   O     O_R   0.553073 0.364765 0.063447 -0.335556
N2    N     N_R   0.810981 0.608018 0.753825 0.251508
O23   O     O_R   0.717904 0.530827 0.755538 -0.424613
O24   O     O_R   0.985921 0.612299 0.782448 -0.446138
N3    N     N_R   0.781234 0.788459 0.402810 0.251099
O25   O     O_R   0.915805 0.747813 0.445228 -0.395025
O26   O     O_R   0.712666 0.865219 0.430437 -0.421131
N4    N     N_R   0.140109 0.420524 0.002913 0.270230
O27   O     O_R   0.234605 0.496623 0.013156 -0.361203
O28   O     O_R   0.069546 0.380003 0.068523 -0.365622

loop_
_geom_bond_atom_site_label_1
_geom_bond_atom_site_label_2
_geom_bond_distance
_ccdc_geom_bond_type
C37   C38   1.413394 A    
O18   C45   1.303076 A    
N1    O21   1.299229 A    
O18   V4    2.002916 S    
C6    C7    1.394536 A    
C43   O16   1.297653 A    
O17   V4    1.711403 S    
O17   V3    2.170736 S    
C23   C24   1.397977 A    
C12   C15   1.416592 A    
C25   H11   1.110370 S    
C13   C14   1.421590 A    
C1    C28   1.485214 S    
C34   H17   1.111293 S    
C15   C16   1.392478 A    
O5    C3    1.295593 A    
C17   C18   1.393502 A    
O12   C43   1.303684 A    
C7    N4    1.440273 S    
O11   C44   1.295075 A    
V2    O10   2.162860 S    
C5    C6    1.394787 A    
C35   C40   1.390405 A    
C19   C24   1.385148 A    
O8    V2    2.007349 S    
C15   H5    1.080967 S    
C38   H19   1.082192 S    
O13   C46   1.300305 A    
N2    O24   1.298308 A    
C35   C42   1.493824 S    
C31   C44   1.478600 S    
C39   C40   1.398966 A    
O1    V2    2.004635 S    
O16   V4    2.006315 S    
C10   C14   1.428336 A    
C4    C14   1.498450 S    
O19   V4    2.007367 S    
O7    V1    2.170759 S    
C20   C46   1.481112 S    
O14   V3    1.996734 S    
C1    O6    1.301677 A    
O12   V3    2.004146 S    
C21   C22   1.415316 A    
C37   H18   1.081951 S    
C13   C18   1.416538 A    
N1    O22   1.302472 A    
O9    C4    1.310147 A    
H1    C17   1.082664 S    
C22   C23   1.414567 A    
C41   H21   1.110375 S    
O14   C44   1.304723 A    
C26   H12   1.112018 S    
C29   C30   1.413052 A    
C25   H10   1.111813 S    
C33   H15   1.111905 S    
C39   C43   1.482871 S    
C5    C10   1.412928 A    
C11   C12   1.420055 A    
C41   H20   1.111804 S    
C6    H3    1.082275 S    
V4    O20   2.162884 S    
O4    C2    1.301144 A    
C8    H4    1.081666 S    
C12   C13   1.426672 A    
C24   C25   1.493129 S    
C27   C28   1.398770 A    
O2    C1    1.300821 A    
C16   C17   1.388908 A    
C2    C36   1.483362 S    
N3    O25   1.299722 A    
C16   H6    1.082958 S    
N2    O23   1.301773 A    
C30   H14   1.081888 S    
C26   N1    1.462132 S    
C27   C32   1.391095 A    
N4    O28   1.302099 A    
C11   C45   1.484684 S    
C19   C26   1.487601 S    
O3    C4    1.291947 A    
C34   N2    1.456750 S    
C21   H8    1.082211 S    
N3    O26   1.302440 A    
O6    V2    2.005839 S    
C30   C31   1.411075 A    
C42   H22   1.111801 S    
C9    C11   1.411587 A    
C5    H2    1.075766 S    
C22   H9    1.082525 S    
O2    V1    1.996753 S    
C20   C21   1.411998 A    
C28   C29   1.412082 A    
C42   N3    1.464511 S    
C25   C26   1.532715 S    
O11   V4    2.006108 S    
C33   H16   1.111582 S    
O1    C2    1.300602 A    
C41   C42   1.529451 S    
O5    V1    1.999963 S    
O8    C3    1.304068 A    
C29   H13   1.081242 S    
C35   C36   1.401619 A    
O9    V2    2.003047 S    
C32   C33   1.484856 S    
O4    V1    2.004199 S    
C3    C23   1.481367 S    
O3    V1    2.004972 S    
V3    O20   1.717417 S    
O15   V3    2.004888 S    
C31   C32   1.390646 A    
C19   C20   1.396750 A    
O15   C45   1.291287 A    
O7    V2    1.712009 S    
N4    O27   1.302194 A    
C18   H7    1.080574 S    
C33   C34   1.522614 S    
C40   C41   1.490826 S    
C7    C8    1.399698 A    
C38   C39   1.411853 A    
C36   C37   1.412171 A    
C9    C10   1.419638 A    
V1    O10   1.717411 S    
C27   C34   1.492400 S    
O19   C46   1.299420 A    
C8    C9    1.417014 A    
O13   V3    2.000064 S    
