data_mof_unit_68398.cif
_audit_creation_date              2012-12-10T17:22:51-0500
_audit_creation_method            fapswitch 2.2
_symmetry_space_group_name_H-M    P1
_symmetry_Int_Tables_number       1
_space_group_crystal_system       triclinic
_cell_length_a                    10.404086
_cell_length_b                    10.482523
_cell_length_c                    10.525489
_cell_angle_alpha                 94.898793
_cell_angle_beta                  96.02096
_cell_angle_gamma                 81.503701
_cell_volume                      1126.20551238

loop_
_atom_site_label
_atom_site_type_symbol
_atom_type_description
_atom_site_fract_x
_atom_site_fract_y
_atom_site_fract_z
_atom_type_partial_charge
C1    C     C_R   0.444777 0.512920 0.266321 0.823360
C2    C     C_3   0.499603 0.123096 0.495939 -0.219182
C3    C     C_3   0.620915 0.945427 0.547570 -0.429169
C4    C     C_3   0.378743 0.054527 0.452002 -0.430427
C5    C     C_2   0.414407 0.537969 0.131392 0.305078
C6    C     C_2   0.587177 0.513193 0.872184 0.346064
C7    C     C_2   0.503484 0.590228 0.076156 -0.198378
C8    C     C_2   0.500858 0.592416 0.938800 -0.291600
C9    C     C_2   0.069829 0.487284 0.486010 0.363118
C10   C     C_2   0.929840 0.512670 0.514552 0.366163
C11   C     C_3   0.385588 0.976905 0.174104 0.145144
C12   C     C_R   0.555554 0.496315 0.734243 0.825558
C13   C     C_3   0.371291 0.910337 0.040846 -0.842104
C14   C     C_3   0.596908 0.019734 0.828728 0.091148
C15   C     C_3   0.616086 0.087067 0.961296 -0.718083
C16   C     C_3   0.754490 0.934408 0.297844 0.119773
C17   C     C_3   0.873258 0.967949 0.241762 -0.732834
C18   C     C_3   0.244037 0.064558 0.701002 0.121791
C19   C     C_3   0.120659 0.031166 0.748356 -0.722264
C20   C     C_R   0.499622 0.258229 0.496915 0.997271
C21   C     C_R   0.500341 0.741753 0.503036 0.951986
C22   C     C_3   0.589778 0.018405 0.424611 0.431449
C23   C     C_3   0.409700 0.981406 0.574728 0.419393
C24   C     C_3   0.471094 0.949724 0.381715 0.365137
C25   C     C_3   0.528382 0.050054 0.617837 0.377985
C26   C     C_3   0.500110 0.876821 0.503630 -0.203636
H1    H     H_    0.717995 0.900087 0.586588 0.251015
H2    H     H_    0.331676 0.983135 0.971341 0.225086
H3    H     H_    0.468026 0.862232 0.014498 0.249992
H4    H     H_    0.691660 0.961837 0.807178 0.180694
H5    H     H_    0.522746 0.953634 0.829676 0.154082
H6    H     H_    0.527201 0.155042 0.982510 0.275703
H7    H     H_    0.636154 0.014085 0.033610 0.194937
H8    H     H_    0.700832 0.140661 0.966635 0.297575
H9    H     H_    0.693935 0.885110 0.221024 0.165970
H10   H     H_    0.790745 0.866124 0.373307 0.183937
H11   H     H_    0.938596 0.010993 0.318667 0.287417
H12   H     H_    0.281658 0.100168 0.413663 0.248461
H13   H     H_    0.927947 0.879068 0.197504 0.223808
H14   H     H_    0.842789 0.038419 0.167676 0.254495
H15   H     H_    0.213187 0.136596 0.627965 0.190318
H16   H     H_    0.302390 0.109739 0.782492 0.179549
H17   H     H_    0.145432 0.955919 0.818437 0.248945
H18   H     H_    0.066600 0.118902 0.795086 0.217693
H19   H     H_    0.056947 0.994166 0.666342 0.287524
H20   H     H_    0.893355 0.290382 0.887047 0.376534
H21   H     H_    0.064979 0.583579 0.056576 0.415493
H22   H     H_    0.994588 0.666343 0.831100 0.385468
H23   H     H_    0.417078 0.648848 0.889974 0.199662
H24   H     H_    0.007979 0.325788 0.170935 0.402080
H25   H     H_    0.590859 0.616705 0.131952 0.206108
H26   H     H_    0.864313 0.378821 0.377034 0.249093
H27   H     H_    0.135601 0.620075 0.623938 0.243472
H28   H     H_    0.445997 0.055947 0.172184 0.170368
H29   H     H_    0.286203 0.018909 0.199418 0.186471
H30   H     H_    0.303705 0.837164 0.037598 0.279142
N1    N     N_2   0.157310 0.552180 0.551120 -0.219250
N2    N     N_2   0.842690 0.447820 0.448880 -0.221377
O1    O     O_R   0.568940 0.489500 0.307530 -0.623478
O2    O     O_3   0.556348 0.113413 0.738983 -0.591837
O3    O     O_3   0.681750 0.049211 0.346783 -0.587023
O4    O     O_3   0.316961 0.950167 0.651412 -0.604558
O5    O     O_2   0.824254 0.535171 0.986209 -0.274402
O6    O     O_2   0.711916 0.370818 0.061110 -0.331125
O7    O     O_3   0.808590 0.323438 0.841058 -0.513320
O8    O     O_2   0.252456 0.514855 0.909713 -0.307703
O9    O     O_2   0.258664 0.356253 0.067492 -0.271007
O10   O     O_3   0.142447 0.589025 0.118828 -0.500541
O11   O     O_2   0.934985 0.758100 0.607443 -0.416855
O12   O     O_R   0.431060 0.510500 0.692470 -0.620970
O13   O     O_2   0.757836 0.668155 0.679737 -0.295121
O14   O     O_3   0.986773 0.586279 0.775304 -0.508922
O15   O     O_2   0.241650 0.331049 0.323027 -0.249954
O16   O     O_2   0.066649 0.240323 0.399149 -0.418683
O17   O     O_3   0.011078 0.406672 0.226534 -0.504378
O18   O     O_R   0.348880 0.522990 0.340350 -0.509570
O19   O     O_R   0.651120 0.477010 0.659650 -0.499771
O20   O     O_R   0.610000 0.297210 0.483560 -0.568358
O21   O     O_R   0.390000 0.702790 0.516440 -0.586201
O22   O     O_R   0.389940 0.330700 0.516390 -0.577079
O23   O     O_R   0.610060 0.669300 0.483610 -0.588000
O24   O     O_3   0.444165 0.885342 0.260836 -0.635291
S1    S     S_3+6 0.736168 0.434898 0.945172 0.048551
S2    S     S_3+6 0.265911 0.495742 0.050533 0.061055
S3    S     S_3+6 0.893822 0.635138 0.642938 0.008427
S4    S     S_3+6 0.105701 0.362706 0.359783 0.023320
Zn1   Zn    Zn3+2 0.646930 0.477640 0.478080 1.097660
Zn2   Zn    Zn3+2 0.353070 0.522360 0.521920 1.091930

loop_
_geom_bond_atom_site_label_1
_geom_bond_atom_site_label_2
_ccdc_geom_bond_type
O20   Zn1   S    
C21   C26   S    
C10   S3    S    
C14   H5    S    
O12   Zn2   S    
N2    Zn1   S    
O14   S3    S    
C11   H29   S    
C7    C8    S    
C1    C5    S    
C13   H3    S    
C10   N2    D    
C24   C26   S    
C1    O1    A    
C16   H9    S    
C6    C12   S    
C4    C24   S    
O7    S1    S    
C18   C19   S    
C17   H13   S    
C23   C26   S    
C24   O24   S    
C18   H16   S    
O13   S3    D    
C23   O4    S    
C16   C17   S    
C2    C22   S    
C13   H2    S    
C25   O2    S    
C9    C10   S    
O18   Zn2   S    
C15   H8    S    
C13   H30   S    
O9    S2    D    
H22   O14   S    
O21   Zn2   S    
C19   H17   S    
C11   O24   S    
C20   O22   A    
C2    C20   S    
O10   S2    S    
C3    C25   S    
H20   O7    S    
C18   H15   S    
C5    C7    D    
C4    C23   S    
H27   N1    S    
C18   O4    S    
C6    C8    D    
C14   H4    S    
O5    S1    D    
C17   H14   S    
C2    C4    S    
O6    S1    D    
C9    S4    S    
O17   S4    S    
C12   O19   A    
C21   O21   A    
C17   H11   S    
O16   S4    D    
O23   Zn1   S    
C11   H28   S    
H26   N2    S    
C21   O23   A    
C22   C24   S    
C16   O3    S    
H21   O10   S    
O11   S3    D    
C19   H18   S    
C5    S2    S    
C12   O12   A    
C6    S1    S    
C1    O18   A    
C3    C26   S    
C4    H12   S    
C15   H6    S    
C19   H19   S    
C14   O2    S    
N1    Zn2   S    
C20   O20   A    
C3    H1    S    
C7    H25   S    
O22   Zn2   S    
H24   O17   S    
C16   H10   S    
C22   O3    S    
C11   C13   S    
C2    C25   S    
C9    N1    D    
C23   C25   S    
O1    Zn1   S    
O15   S4    D    
O8    S2    D    
O19   Zn1   S    
C14   C15   S    
C3    C22   S    
C8    H23   S    
C15   H7    S    
