data_mof_unit_55039.cif
_audit_creation_date              2013-03-05T16:34:12-0500
_audit_creation_method            fapswitch 2.2
_symmetry_space_group_name_H-M    P1
_symmetry_Int_Tables_number       1
_space_group_crystal_system       triclinic
_cell_length_a                    10.978659
_cell_length_b                    10.87968
_cell_length_c                    9.655725
_cell_angle_alpha                 88.684998
_cell_angle_beta                  91.182119
_cell_angle_gamma                 91.378007
_cell_volume                      1152.45144751

loop_
_atom_site_label
_atom_site_type_symbol
_atom_site_description
_atom_site_fract_x
_atom_site_fract_y
_atom_site_fract_z
_atom_type_partial_charge
O1    O     O_R   0.500000 0.319640 0.618810 -0.585092
O2    O     O_R   0.500010 0.319680 0.381230 -0.597813
C1    C     C_R   0.496539 0.262671 0.501016 0.791189
O3    O     O_R   0.319640 0.499990 0.618790 -0.601673
O4    O     O_R   0.319650 0.500030 0.381210 -0.577762
C2    C     C_R   0.262643 0.496978 0.498195 0.768054
Cu1   Cu    Cu3+1 0.499990 0.499980 0.640670 0.953560
Cu2   Cu    Cu3+1 0.500010 0.500020 0.359330 0.969070
O5    O     O_R   0.499990 0.680320 0.618770 -0.578921
O6    O     O_R   0.500000 0.680360 0.381190 -0.568603
O7    O     O_R   0.680350 0.499970 0.618790 -0.574336
O8    O     O_R   0.680360 0.500010 0.381210 -0.584443
C3    C     C_R   0.490323 0.736282 0.498505 0.836850
C4    C     C_R   0.737639 0.494850 0.501904 0.808403
H1    H     H_    0.208272 0.350453 0.872819 0.123675
C5    C     C_R   0.194797 0.498706 0.016037 -0.145364
H2    H     H_    0.231372 0.567868 0.944961 0.130591
C6    C     C_R   0.158559 0.532089 0.147687 -0.096842
H3    H     H_    0.165678 0.627479 0.177153 0.126060
C7    C     C_R   0.109793 0.442514 0.239158 0.120729
C8    C     C_R   0.099754 0.319509 0.198528 -0.144120
H4    H     H_    0.061302 0.249754 0.267723 0.134506
C9    C     C_R   0.135800 0.286656 0.066908 -0.116266
H5    H     H_    0.126553 0.192033 0.035307 0.139245
C10   C     C_R   0.181742 0.376325 0.975173 -0.122623
C11   C     C_R   0.931653 0.480281 0.379469 -0.220115
H6    H     H_    0.877879 0.472755 0.287096 0.146862
C12   C     C_R   0.872146 0.485990 0.505005 -0.090367
C13   C     C_R   0.943459 0.481314 0.628020 0.016421
C14   C     C_R   0.069741 0.493212 0.621147 -0.235507
H7    H     H_    0.122637 0.496509 0.716613 0.159876
C15   C     C_R   0.128886 0.491449 0.494991 -0.079624
C16   C     C_R   0.058283 0.476878 0.372385 0.000902
C17   C     C_R   0.927548 0.524969 0.876159 -0.164768
H8    H     H_    0.980233 0.609462 0.860366 0.138106
C18   C     C_R   0.890755 0.491954 0.008412 -0.146922
H9    H     H_    0.914835 0.553811 0.090395 0.140784
C19   C     C_R   0.821154 0.384195 0.031460 -0.149207
H10   H     H_    0.789363 0.358220 0.133284 0.146517
C20   C     C_R   0.791573 0.308086 0.921598 -0.078992
H11   H     H_    0.741477 0.223725 0.941590 0.227795
C21   C     C_R   0.828183 0.340564 0.787979 -0.083769
H12   H     H_    0.806350 0.279582 0.703414 0.141348
C22   C     C_R   0.894247 0.451063 0.764667 0.103378
C23   C     C_R   0.458281 0.057355 0.616360 0.052773
C24   C     C_R   0.486598 0.129287 0.499762 -0.125237
C25   C     C_R   0.498023 0.066791 0.374051 -0.163011
H13   H     H_    0.514126 0.116498 0.277486 0.207324
C26   C     C_R   0.490216 0.937925 0.371982 -0.122959
H14   H     H_    0.496431 0.892851 0.275134 0.231809
C27   C     C_R   0.474466 0.868396 0.494832 -0.109368
C28   C     C_R   0.447964 0.933013 0.612071 0.057804
C29   C     C_3   0.414179 0.917102 0.759595 -0.456661
C30   C     C_3   0.431757 0.057595 0.767799 0.186182
H15   H     H_    0.317802 0.885335 0.770420 0.153536
H16   H     H_    0.480655 0.863462 0.821518 0.246380
H17   H     H_    0.348577 0.107964 0.793829 0.062746
C31   C     C_R   0.530818 0.604879 0.071435 0.165951
N1    N     N_R   0.500790 0.500930 0.147930 -0.224138
C32   C     C_R   0.464161 0.399172 0.075448 -0.014725
H18   H     H_    0.433742 0.316950 0.130602 0.170022
C33   C     C_R   0.464009 0.399430 0.927691 -0.033834
H19   H     H_    0.433114 0.318212 0.874254 0.158868
N2    N     N_R   0.500790 0.500890 0.852020 -0.195555
C34   C     C_R   0.530959 0.604073 0.923932 0.173075
C35   C     C_3   0.651464 0.667458 0.915505 -0.506150
C36   C     C_3   0.653949 0.667540 0.072946 0.132346
H20   H     H_    0.717336 0.607617 0.868850 0.212973
H21   H     H_    0.648103 0.758781 0.862877 0.239092
H22   H     H_    0.722455 0.609200 0.125271 0.123999
N3    N     N_R   0.539321 0.089546 0.852157 0.148043
O9    O     O_R   0.646568 0.055988 0.814326 -0.367468
O10   O     O_R   0.524809 0.121590 0.979547 -0.408839
N4    N     N_R   0.654580 0.791340 0.128110 0.133338
O11   O     O_R   0.597937 0.879628 0.062761 -0.345164
O12   O     O_R   0.726956 0.817793 0.232129 -0.363942

loop_
_geom_bond_atom_site_label_1
_geom_bond_atom_site_label_2
_geom_bond_distance
_ccdc_geom_bond_type
C2    C15   1.467972 S    
C35   H20   1.095146 S    
Cu1   Cu2   2.716535 S    
C25   C26   1.403157 A    
C29   C30   1.539693 S    
Cu1   O7    1.995682 S    
C11   H6    1.063056 S    
C33   H19   1.077666 S    
N4    O12   1.300892 A    
C12   C13   1.409683 A    
C19   C20   1.389091 A    
C6    H3    1.082977 S    
Cu2   N1    2.041212 S    
C19   H10   1.079351 S    
O7    C4    1.306264 A    
H1    C10   1.081380 S    
C35   H21   1.106601 S    
C32   C33   1.426602 A    
C17   H8    1.083737 S    
O5    C3    1.302315 A    
C33   N2    1.367160 A    
C11   C16   1.394744 A    
C3    C27   1.451549 S    
C30   N3    1.460280 S    
C5    H2    1.082386 S    
C26   C27   1.403633 A    
C9    H5    1.082271 S    
C6    C7    1.404059 A    
C20   C21   1.394505 A    
C35   C36   1.519916 S    
N1    C32   1.371028 A    
C8    H4    1.083291 S    
C21   C22   1.405121 A    
O3    Cu1   1.986903 S    
C29   H15   1.111418 S    
N4    O11   1.300864 A    
C27   C28   1.385759 A    
C17   C22   1.395880 A    
O3    C2    1.311196 A    
N3    O10   1.300143 A    
C23   C28   1.356321 A    
C31   N1    1.373689 A    
C23   C24   1.392451 A    
C32   H18   1.080025 S    
O1    C1    1.307167 A    
C13   C14   1.392137 A    
C31   C34   1.424515 A    
C25   H13   1.082662 S    
C14   H7    1.080124 S    
Cu2   O8    1.986904 S    
C36   N4    1.459531 S    
C7    C16   1.475354 S    
C5    C6    1.398250 A    
C20   H11   1.074292 S    
O8    C4    1.313461 A    
C23   C30   1.496924 S    
C34   C35   1.480023 S    
C8    C9    1.395682 A    
C13   C22   1.463576 S    
C21   H12   1.083288 S    
C28   C29   1.484595 S    
C29   H16   1.103244 S    
C5    C10   1.400579 A    
Cu1   O5    1.968572 S    
C24   C25   1.414108 A    
C18   H9    1.075491 S    
O1    Cu1   1.978175 S    
O2    Cu2   1.968574 S    
O6    C3    1.305495 A    
O4    Cu2   1.995682 S    
C1    C24   1.452953 S    
C11   C12   1.392127 A    
C36   H22   1.102886 S    
C15   C16   1.411492 A    
C18   C19   1.399943 A    
O2    C1    1.300651 A    
N3    O9    1.302933 A    
N2    C34   1.363992 A    
C14   C15   1.392882 A    
O4    C2    1.301999 A    
C17   C18   1.384257 A    
C9    C10   1.394930 A    
Cu1   N2    2.040826 S    
C31   C36   1.499220 S    
C7    C8    1.404342 A    
Cu2   O6    1.978175 S    
C26   H14   1.070003 S    
C4    C12   1.481807 S    
C30   H17   1.112328 S    
