data_mof_unit_34281.cif
_audit_creation_date              2012-10-26T21:21:31-0400
_audit_creation_method            fapswitch 2.2
_symmetry_space_group_name_H-M    P1
_symmetry_Int_Tables_number       1
_space_group_crystal_system       triclinic
_cell_length_a                    14.34265
_cell_length_b                    10.862795
_cell_length_c                    9.571067
_cell_angle_alpha                 89.505654
_cell_angle_beta                  90.284261
_cell_angle_gamma                 92.9223
_cell_volume                      1489.17451837

loop_
_atom_site_label
_atom_site_type_symbol
_atom_type_description
_atom_site_fract_x
_atom_site_fract_y
_atom_site_fract_z
_atom_type_partial_charge
C1    C     C_R   0.505607 0.262379 0.501423 0.549560
C2    C     C_R   0.507058 0.064469 0.378517 -0.155178
C3    C     C_R   0.498094 0.937146 0.377007 -0.159157
C4    C     C_R   0.331091 0.499399 0.499748 0.550227
C5    C     C_R   0.483887 0.870787 0.501764 -0.018087
C6    C     C_R   0.626141 0.662743 0.143315 -0.088751
C7    C     C_R   0.688585 0.743724 0.070721 0.249566
C8    C     C_R   0.687000 0.742267 0.926526 -0.122804
C9    C     C_R   0.626988 0.660737 0.855065 -0.127136
C10   C     C_R   0.563847 0.577124 0.924848 0.112022
C11   C     C_R   0.563458 0.577851 0.074328 0.057653
C12   C     C_1   0.771128 0.498390 0.500618 -0.061345
C13   C     C_R   0.438170 0.426170 0.075417 0.366306
C14   C     C_R   0.438221 0.428099 0.925661 -0.023971
C15   C     C_R   0.492338 0.736942 0.499984 0.521640
C16   C     C_R   0.668873 0.499773 0.500238 0.525918
C17   C     C_1   0.228754 0.499264 0.499254 -0.047072
C18   C     C_1   0.143324 0.499054 0.499283 -0.051580
C19   C     C_1   0.042642 0.498699 0.499595 -0.010045
C20   C     C_1   0.957202 0.498353 0.499963 -0.009380
C21   C     C_1   0.856537 0.498054 0.500408 -0.057220
C22   C     C_3   0.378736 0.769582 0.012493 0.006241
C23   C     C_R   0.529721 0.110127 0.765292 -0.155128
C24   C     C_3   0.273902 0.764088 0.980245 -0.280560
C25   C     C_3   0.235728 0.630945 0.966666 -0.475743
C26   C     C_3   0.347575 0.241167 0.100077 -0.002016
C27   C     C_3   0.248460 0.234296 0.039767 -0.274687
C28   C     C_3   0.223356 0.106782 0.980809 -0.465213
C29   C     C_3   0.787231 0.800271 0.259577 0.001781
C30   C     C_3   0.746088 0.867522 0.383250 -0.261516
C31   C     C_3   0.801193 0.848923 0.517815 -0.481880
C32   C     C_R   0.505058 0.047158 0.888129 -0.095560
C33   C     C_R   0.452442 0.935773 0.884402 0.278748
C34   C     C_R   0.438327 0.879008 0.752623 -0.097379
C35   C     C_R   0.475666 0.934817 0.629358 -0.011581
C36   C     C_R   0.505675 0.059750 0.633528 0.009398
C37   C     C_R   0.510363 0.127676 0.505679 -0.008553
Cu1   Cu    Cu3+1 0.499990 0.499990 0.640660 0.887389
Cu2   Cu    Cu3+1 0.500010 0.500010 0.359340 0.957735
H1    H     H_    0.513007 0.113267 0.279531 0.142579
H2    H     H_    0.416928 0.708750 0.943571 0.140596
H3    H     H_    0.236673 0.808867 0.066073 0.163380
H4    H     H_    0.259916 0.814656 0.881646 0.160250
H5    H     H_    0.269612 0.585644 0.877992 0.159832
H6    H     H_    0.159357 0.629416 0.946757 0.149387
H7    H     H_    0.248543 0.578476 0.064474 0.175647
H8    H     H_    0.395603 0.794925 0.743120 0.128761
H9    H     H_    0.349975 0.175653 0.189646 0.169316
H10   H     H_    0.398128 0.209272 0.022630 0.108594
H11   H     H_    0.198172 0.254644 0.123463 0.174849
H12   H     H_    0.631760 0.670611 0.744958 0.188227
H13   H     H_    0.242027 0.304297 0.955507 0.153025
H14   H     H_    0.271762 0.085442 0.895061 0.167248
H15   H     H_    0.151050 0.104121 0.938597 0.144310
H16   H     H_    0.227393 0.035762 0.064419 0.162597
H17   H     H_    0.862394 0.829362 0.251135 0.157943
H18   H     H_    0.785053 0.698751 0.278154 0.116784
H19   H     H_    0.746120 0.967855 0.359302 0.188533
H20   H     H_    0.672989 0.833321 0.400087 0.159235
H21   H     H_    0.798936 0.750097 0.547812 0.149097
H22   H     H_    0.769809 0.901056 0.603493 0.147983
H23   H     H_    0.502979 0.890702 0.277826 0.178032
H24   H     H_    0.874975 0.882989 0.504565 0.152718
H25   H     H_    0.627057 0.672475 0.252686 0.179304
H26   H     H_    0.732234 0.806886 0.868318 0.132945
H27   H     H_    0.387074 0.372873 0.867443 0.119793
H28   H     H_    0.570312 0.195986 0.775994 0.155582
H29   H     H_    0.523734 0.088196 0.987754 0.120825
H30   H     H_    0.388273 0.731833 0.119574 0.173307
N1    N     N_R   0.500820 0.501210 0.147910 -0.227401
N2    N     N_R   0.500850 0.501290 0.852040 -0.266678
O1    O     O_R   0.499990 0.319640 0.618810 -0.504894
O2    O     O_3   0.369490 0.360846 0.151735 -0.542950
O3    O     O_3   0.743263 0.837150 0.134209 -0.571657
O4    O     O_R   0.500000 0.319660 0.381240 -0.463790
O5    O     O_R   0.376050 0.499990 0.618810 -0.497905
O6    O     O_R   0.376060 0.500010 0.381240 -0.423953
O7    O     O_R   0.500000 0.680340 0.618760 -0.522668
O8    O     O_R   0.500010 0.680360 0.381190 -0.534930
O9    O     O_R   0.623940 0.499990 0.618760 -0.493645
O10   O     O_R   0.623950 0.500010 0.381190 -0.503942
O11   O     O_3   0.415885 0.892633 0.011968 -0.598908

loop_
_geom_bond_atom_site_label_1
_geom_bond_atom_site_label_2
_ccdc_geom_bond_type
C24   H3    S    
C14   N2    A    
C31   H22   S    
C35   C36   A    
C9    H12   S    
C11   N1    A    
C7    C8    A    
Cu1   O5    S    
C26   C27   S    
C22   O11   S    
C36   C37   A    
C18   C19   S    
C30   C31   S    
C22   H2    S    
C13   N1    A    
C6    H25   S    
C30   H19   S    
C26   O2    S    
C34   C35   A    
C23   H28   S    
C15   O8    A    
C12   C16   S    
C8    C9    A    
Cu2   O4    S    
C33   O11   S    
C22   H30   S    
C27   H11   S    
C26   H9    S    
C32   H29   S    
C10   N2    A    
C8    H26   S    
C13   C14   A    
C25   H5    S    
C28   H16   S    
C33   C34   A    
C7    O3    S    
Cu1   O1    S    
C1    O1    A    
C4    O5    A    
C1    O4    A    
C31   H24   S    
C24   C25   S    
Cu2   O10   S    
C26   H10   S    
C6    C11   A    
C28   H15   S    
C29   O3    S    
Cu1   O7    S    
C12   C21   T    
C16   O9    A    
Cu2   O8    S    
C31   H21   S    
C29   C30   S    
C30   H20   S    
C17   C18   T    
C14   H27   S    
C4    C17   S    
C29   H18   S    
C22   C24   S    
C25   H6    S    
C27   H13   S    
C9    C10   A    
C3    H23   S    
Cu2   O6    S    
Cu1   N2    S    
C13   O2    S    
C3    C5    A    
C28   H14   S    
C6    C7    A    
C29   H17   S    
C1    C37   S    
C23   C32   A    
C19   C20   T    
C2    C3    A    
C4    O6    A    
C32   C33   A    
C2    C37   A    
Cu1   Cu2   S    
Cu1   O9    S    
C5    C35   A    
C16   O10   A    
Cu2   N1    S    
C5    C15   S    
C10   C11   A    
C15   O7    A    
C2    H1    S    
C20   C21   S    
C23   C36   A    
C27   C28   S    
C24   H4    S    
C34   H8    S    
C25   H7    S    
