data_mof_unit_35967.cif
_audit_creation_date              2012-12-10T17:40:59-0500
_audit_creation_method            fapswitch 2.2
_symmetry_space_group_name_H-M    P1
_symmetry_Int_Tables_number       1
_space_group_crystal_system       triclinic
_cell_length_a                    14.983399
_cell_length_b                    15.225693
_cell_length_c                    10.016298
_cell_angle_alpha                 88.174485
_cell_angle_beta                  92.504453
_cell_angle_gamma                 90.566296
_cell_volume                      2281.62071034

loop_
_atom_site_label
_atom_site_type_symbol
_atom_type_description
_atom_site_fract_x
_atom_site_fract_y
_atom_site_fract_z
_atom_type_partial_charge
C1    C     C_R   0.380992 0.879879 0.500748 0.904583
C2    C     C_R   0.385291 0.124408 0.497816 0.908736
C3    C     C_R   0.880989 0.379884 0.500752 0.904205
C4    C     C_R   0.885339 0.624446 0.497823 0.908774
C5    C     C_R   0.258700 0.203041 0.400573 -0.068781
C6    C     C_R   0.228469 0.834202 0.513359 -0.127284
C7    C     C_R   0.758988 0.703318 0.400318 -0.069069
C8    C     C_R   0.728476 0.334178 0.513279 -0.128542
C9    C     C_R   0.693135 0.763384 0.406694 -0.155866
C10   C     C_R   0.663660 0.270068 0.510720 -0.151593
C11   C     C_R   0.192869 0.263135 0.406959 -0.156180
C12   C     C_R   0.163638 0.770105 0.510858 -0.152387
C13   C     C_R   0.695442 0.823064 0.508901 -0.071395
C14   C     C_R   0.688727 0.182828 0.503347 -0.046497
C15   C     C_R   0.195366 0.322997 0.508918 -0.071202
C16   C     C_R   0.188677 0.682867 0.503337 -0.046487
C17   C     C_R   0.350137 0.930263 0.123209 0.327815
C18   C     C_R   0.850120 0.430317 0.123203 0.326788
C19   C     C_R   0.304231 0.865658 0.048748 0.384056
C20   C     C_R   0.804171 0.365739 0.048743 0.384056
C21   C     C_R   0.293284 0.882436 0.911419 -0.203466
C22   C     C_R   0.793213 0.382531 0.911421 -0.203022
C23   C     C_R   0.347781 0.945796 0.853555 -0.180917
C24   C     C_R   0.847760 0.445844 0.853547 -0.181047
C25   C     C_R   0.426340 0.971010 0.923645 0.136654
C26   C     C_R   0.926338 0.471017 0.923642 0.136749
C27   C     C_R   0.428387 0.964502 0.066823 0.001412
C28   C     C_R   0.928390 0.464499 0.066821 0.001934
C29   C     C_R   0.570088 0.031865 0.074448 0.001660
C30   C     C_R   0.070095 0.531852 0.074449 0.002061
C31   C     C_R   0.619415 0.119612 0.500559 0.807284
C32   C     C_R   0.623115 0.883718 0.503500 0.827193
C33   C     C_R   0.119367 0.619655 0.500553 0.807311
C34   C     C_R   0.123099 0.383707 0.503500 0.827155
C35   C     C_R   0.570643 0.030499 0.932045 -0.030319
C36   C     C_R   0.070649 0.530485 0.932046 -0.030149
C37   C     C_R   0.412176 0.268390 0.684968 -0.243190
C38   C     C_R   0.435181 0.698293 0.540800 -0.257960
C39   C     C_R   0.912057 0.768260 0.685411 -0.243197
C40   C     C_R   0.935210 0.198352 0.541381 -0.258274
C41   C     C_R   0.415764 0.327168 0.788973 0.461788
C42   C     C_R   0.458396 0.609623 0.556064 0.542250
C43   C     C_R   0.915521 0.826928 0.789562 0.461039
C44   C     C_R   0.958444 0.109704 0.557010 0.541786
C45   C     C_R   0.846501 0.886230 0.800997 -0.233465
C46   C     C_R   0.893272 0.044769 0.537480 -0.202764
C47   C     C_R   0.346763 0.386491 0.800441 -0.233699
C48   C     C_R   0.393179 0.544731 0.536574 -0.202799
C49   C     C_R   0.774349 0.887101 0.708505 -0.248242
C50   C     C_R   0.804179 0.068056 0.513699 -0.248860
C51   C     C_R   0.274504 0.387263 0.708136 -0.248185
C52   C     C_R   0.304078 0.568067 0.513152 -0.248935
C53   C     C_R   0.767613 0.825383 0.605334 0.109421
C54   C     C_R   0.778769 0.156984 0.511182 0.147475
C55   C     C_R   0.267651 0.325430 0.605138 0.109133
C56   C     C_R   0.278707 0.657002 0.510929 0.147590
C57   C     C_R   0.336799 0.264031 0.595506 0.008194
C58   C     C_R   0.344873 0.722559 0.518364 0.050443
C59   C     C_R   0.836780 0.763996 0.595735 0.008457
C60   C     C_R   0.844910 0.222567 0.518621 0.050856
C61   C     C_R   0.328601 0.200224 0.495459 -0.133507
C62   C     C_R   0.317603 0.810767 0.506338 -0.043658
C63   C     C_R   0.828711 0.700315 0.495479 -0.134147
C64   C     C_R   0.817618 0.310760 0.506369 -0.043677
H1    H     H_    0.250218 0.155172 0.326012 0.268858
H2    H     H_    0.209207 0.901971 0.521986 0.202689
H3    H     H_    0.750632 0.655588 0.325533 0.269256
H4    H     H_    0.709199 0.401943 0.521887 0.202544
H5    H     H_    0.242787 0.849399 0.851064 0.247148
H6    H     H_    0.742684 0.349525 0.851080 0.247260
H7    H     H_    0.327883 0.974565 0.757800 0.228051
H8    H     H_    0.827888 0.474607 0.757779 0.227959
H9    H     H_    0.628859 0.054914 0.882037 0.164671
H10   H     H_    0.128869 0.554891 0.882039 0.164553
H11   H     H_    0.469430 0.227082 0.674576 0.190437
H12   H     H_    0.487219 0.747641 0.551340 0.169458
H13   H     H_    0.969345 0.726992 0.675051 0.190520
H14   H     H_    0.987211 0.247729 0.551982 0.169693
H15   H     H_    0.849100 0.933003 0.880308 0.188592
H16   H     H_    0.911150 0.975990 0.543187 0.182432
H17   H     H_    0.349452 0.433336 0.879655 0.188368
H18   H     H_    0.411035 0.475945 0.541978 0.182512
H19   H     H_    0.726097 0.938000 0.719283 0.188686
H20   H     H_    0.755266 0.016234 0.500296 0.141161
H21   H     H_    0.226241 0.438152 0.718929 0.188661
H22   H     H_    0.255138 0.516272 0.499739 0.141281
H23   H     H_    0.637913 0.760752 0.333086 0.187693
H24   H     H_    0.593979 0.288383 0.512903 0.151765
H25   H     H_    0.137529 0.260410 0.333562 0.187436
H26   H     H_    0.093965 0.788429 0.513162 0.151668
H27   H     H_    0.627652 0.057729 0.129566 0.177381
H28   H     H_    0.127661 0.557708 0.129569 0.177372
N1    N     N_R   0.498810 0.000000 0.142780 -0.109368
N2    N     N_R   0.998810 0.500000 0.142780 -0.109359
N3    N     N_R   0.498740 0.000000 0.857170 -0.116820
N4    N     N_R   0.998740 0.500000 0.857170 -0.116853
O1    O     O_R   0.408390 0.908380 0.614690 -0.649487
O2    O     O_R   0.408390 0.091620 0.614690 -0.637391
O3    O     O_R   0.908390 0.408380 0.614690 -0.649331
O4    O     O_R   0.908390 0.591620 0.614690 -0.637571
O5    O     O_R   0.408370 0.908380 0.385360 -0.575504
O6    O     O_R   0.408370 0.091620 0.385360 -0.531260
O7    O     O_R   0.908370 0.408380 0.385360 -0.575657
O8    O     O_R   0.908370 0.591620 0.385360 -0.531260
O9    O     O_R   0.591620 0.091610 0.614640 -0.625888
O10   O     O_R   0.591620 0.908390 0.614640 -0.614942
O11   O     O_R   0.091620 0.591610 0.614640 -0.626048
O12   O     O_R   0.091620 0.408390 0.614640 -0.614790
O13   O     O_R   0.591610 0.091610 0.385310 -0.616744
O14   O     O_R   0.591610 0.908390 0.385310 -0.631235
O15   O     O_R   0.091610 0.591610 0.385310 -0.616676
O16   O     O_R   0.091610 0.408390 0.385310 -0.631151
Zn1   Zn    Zn3+2 0.500010 0.000000 0.653130 0.967929
Zn2   Zn    Zn3+2 0.000010 0.500000 0.653130 0.967871
Zn3   Zn    Zn3+2 0.499980 0.000000 0.346870 1.032833
Zn4   Zn    Zn3+2 0.999980 0.500000 0.346870 1.032744
S1    S     S_3+6 0.506145 0.323981 0.906604 0.083593
O17   O     O_2   0.587352 0.292498 0.840471 -0.267047
O18   O     O_2   0.524447 0.413506 0.961179 -0.203117
O19   O     O_3   0.482084 0.253068 0.032310 -0.512188
H29   H     H_    0.428942 0.277789 0.072481 0.358092
S2    S     S_3+6 0.568984 0.579669 0.599451 0.009355
O20   O     O_2   0.570603 0.493317 0.676509 -0.277815
O21   O     O_2   0.617212 0.570588 0.472876 -0.337563
O22   O     O_3   0.619354 0.657524 0.692128 -0.537757
H30   H     H_    0.682055 0.638004 0.705892 0.391682
S3    S     S_3+6 0.005839 0.823690 0.907291 0.083644
O23   O     O_2   0.087265 0.793075 0.840813 -0.266562
O24   O     O_2   0.023590 0.913003 0.962957 -0.203195
O25   O     O_3   0.982164 0.751984 0.032159 -0.512618
H31   H     H_    0.928541 0.775880 0.072107 0.358314
S4    S     S_3+6 0.068954 0.079835 0.601213 0.009452
O26   O     O_2   0.070341 0.993816 0.679153 -0.276054
O27   O     O_2   0.117494 0.070116 0.475056 -0.339256
O28   O     O_3   0.119186 0.158066 0.693307 -0.537780
H32   H     H_    0.181900 0.138632 0.707340 0.391852
S5    S     S_3+6 0.276577 0.013790 0.164022 0.066406
O29   O     O_2   0.321148 0.101861 0.143754 -0.308511
O30   O     O_2   0.193210 0.012149 0.074535 -0.222069
O31   O     O_3   0.247675 0.997747 0.322393 -0.567073
H33   H     H_    0.188073 0.969329 0.314937 0.412937
S6    S     S_3+6 0.776638 0.513934 0.163910 0.066436
O32   O     O_2   0.821272 0.601954 0.143410 -0.309302
O33   O     O_2   0.693214 0.512287 0.074556 -0.221683
O34   O     O_3   0.747819 0.498039 0.322334 -0.566241
H34   H     H_    0.688719 0.468629 0.314980 0.412640
S7    S     S_3+6 0.245285 0.778925 0.125349 0.069661
O35   O     O_2   0.214795 0.713968 0.022712 -0.277423
O36   O     O_2   0.306417 0.733603 0.227459 -0.332692
O37   O     O_3   0.156216 0.818142 0.199554 -0.492868
H35   H     H_    0.120837 0.765418 0.224993 0.394427
S8    S     S_3+6 0.745297 0.278950 0.125323 0.069250
O38   O     O_2   0.715032 0.213894 0.022704 -0.277346
O39   O     O_2   0.806400 0.233777 0.227628 -0.332818
O40   O     O_3   0.656063 0.318049 0.199253 -0.493383
H36   H     H_    0.620855 0.265263 0.224936 0.394377

loop_
_geom_bond_atom_site_label_1
_geom_bond_atom_site_label_2
_ccdc_geom_bond_type
C58   C62   A    
C29   N1    A    
C40   C60   A    
C31   O13   A    
C34   O16   A    
C13   C32   S    
S7    O35   D    
C33   O11   A    
O16   Zn4   S    
C14   C31   S    
C1    C62   S    
C51   H21   S    
O3    Zn2   S    
S3    O24   D    
O34   H34   S    
C53   C59   A    
C50   H20   S    
O28   H32   S    
C54   C60   A    
C3    C64   S    
S5    O30   D    
C4    C63   S    
C10   H24   S    
C50   C54   A    
C32   O14   A    
C39   H13   S    
O9    Zn1   S    
S7    O36   D    
C24   C26   A    
C5    C11   A    
S1    O18   D    
C6    C12   A    
C2    O6    A    
C28   N2    A    
N1    Zn3   S    
O12   Zn2   S    
C9    C13   A    
S2    O21   D    
O6    Zn3   S    
O8    Zn4   S    
C11   C15   A    
C12   C16   A    
C56   C58   A    
S4    O26   D    
C40   C44   A    
O15   Zn4   S    
C33   O15   A    
C45   C49   A    
C15   C34   S    
C18   C20   A    
C2    C61   S    
C23   C25   A    
C37   H11   S    
C32   O10   A    
C38   H12   S    
C31   O9    A    
S6    O34   S    
N4    Zn2   S    
C44   C46   A    
C13   C53   A    
C26   N4    A    
S5    O31   S    
O10   Zn1   S    
C5    C61   A    
C17   C27   A    
C23   H7    S    
C18   S6    S    
S7    O37   S    
C18   C28   A    
O31   H33   S    
C30   H28   S    
C10   C14   A    
S1    O19   S    
C43   S3    S    
N2    Zn4   S    
O2    Zn1   S    
C39   C43   A    
C19   S7    S    
C20   S8    S    
C21   H5    S    
C15   C55   A    
C42   C48   A    
C16   C56   A    
O11   Zn2   S    
C16   C33   S    
C11   H25   S    
S8    O40   S    
C48   C52   A    
C39   C59   A    
C41   C47   A    
O4    Zn2   S    
C45   H15   S    
C42   S2    S    
C38   C58   A    
C57   C61   A    
C43   C45   A    
C7    C63   A    
C36   H10   S    
C8    C64   A    
C40   H14   S    
C5    H1    S    
C14   C54   A    
S8    O39   D    
C8    H4    S    
C55   C57   A    
O22   H30   S    
O5    Zn3   S    
C22   C24   A    
C27   N1    A    
C25   C27   A    
C1    O1    A    
S3    O23   D    
C1    O5    A    
C29   H27   S    
S6    O33   D    
O19   H29   S    
C24   H8    S    
C3    O7    A    
C7    C9    A    
C46   C50   A    
C35   H9    S    
C19   C21   A    
S6    O32   D    
C26   C28   A    
C8    C10   A    
C20   C22   A    
C12   H26   S    
C47   C51   A    
C25   N3    A    
C35   N3    A    
C44   S4    S    
S5    O29   D    
C29   C35   A    
C59   C63   A    
C4    O4    A    
C30   C36   A    
C60   C64   A    
C34   O12   A    
C6    C62   A    
S2    O22   S    
C21   C23   A    
O7    Zn4   S    
S3    O25   S    
C30   N2    A    
S1    O17   D    
C9    H23   S    
C46   H16   S    
C49   H19   S    
N3    Zn1   S    
S4    O28   S    
C49   C53   A    
C4    O8    A    
C52   H22   S    
C17   C19   A    
C48   H18   S    
O25   H31   S    
C51   C55   A    
C47   H17   S    
C37   C41   A    
O13   Zn3   S    
C7    H3    S    
C38   C42   A    
C3    O3    A    
C6    H2    S    
S8    O38   D    
C2    O2    A    
S4    O27   D    
O40   H36   S    
O37   H35   S    
C17   S5    S    
C41   S1    S    
S2    O20   D    
O1    Zn1   S    
O14   Zn3   S    
C22   H6    S    
C37   C57   A    
C52   C56   A    
C36   N4    A    
