data_mof_unit_33036.cif
_audit_creation_date              2013-03-05T16:33:33-0500
_audit_creation_method            fapswitch 2.2
_symmetry_space_group_name_H-M    P1
_symmetry_Int_Tables_number       1
_space_group_crystal_system       triclinic
_cell_length_a                    10.825642
_cell_length_b                    10.818723
_cell_length_c                    9.622166
_cell_angle_alpha                 91.259642
_cell_angle_beta                  90.526521
_cell_angle_gamma                 91.393978
_cell_volume                      1126.28536246

loop_
_atom_site_label
_atom_site_type_symbol
_atom_site_description
_atom_site_fract_x
_atom_site_fract_y
_atom_site_fract_z
_atom_type_partial_charge
O1    O     O_R   0.500000 0.319640 0.618810 -0.556612
O2    O     O_R   0.500010 0.319680 0.381230 -0.534626
C1    C     C_R   0.499452 0.263057 0.498771 0.804993
O3    O     O_R   0.319650 0.499970 0.618810 -0.596302
O4    O     O_R   0.319660 0.500010 0.381230 -0.566092
C2    C     C_R   0.262520 0.499259 0.499602 0.805509
Cu1   Cu    Cu3+1 0.499990 0.499980 0.640670 0.999273
Cu2   Cu    Cu3+1 0.500010 0.500020 0.359330 1.049662
O5    O     O_R   0.499990 0.680320 0.618770 -0.602110
O6    O     O_R   0.500000 0.680360 0.381190 -0.554764
O7    O     O_R   0.680340 0.499990 0.618770 -0.571240
O8    O     O_R   0.680350 0.500030 0.381190 -0.573452
C3    C     C_R   0.501512 0.737113 0.501577 0.842076
C4    C     C_R   0.737370 0.498323 0.500321 0.842060
C5    C     C_R   0.064391 0.478089 0.622927 0.110210
C6    C     C_R   0.128925 0.490011 0.498707 -0.103444
C7    C     C_R   0.062545 0.486827 0.372711 -0.176122
H1    H     H_    0.109219 0.493188 0.274429 0.205295
C8    C     C_R   0.934028 0.483961 0.373004 -0.132541
H2    H     H_    0.885331 0.485049 0.274333 0.211519
C9    C     C_R   0.870356 0.487925 0.499626 -0.093412
C10   C     C_R   0.937022 0.477448 0.623450 0.120631
C11   C     C_3   0.933571 0.554628 0.753832 -0.392578
C12   C     C_3   0.073688 0.555235 0.753448 -0.414987
H3    H     H_    0.895153 0.647318 0.736578 0.210447
H4    H     H_    0.892808 0.503259 0.841825 0.236695
H5    H     H_    0.116140 0.648333 0.736752 0.205173
H6    H     H_    0.113973 0.503882 0.840919 0.247098
C13   C     C_R   0.573852 0.067886 0.586183 0.013832
C14   C     C_R   0.497740 0.130445 0.497271 -0.062727
C15   C     C_R   0.415074 0.059831 0.412189 -0.148815
H7    H     H_    0.350260 0.103670 0.344504 0.202946
C16   C     C_R   0.414615 0.930057 0.416181 -0.192627
H8    H     H_    0.350017 0.877148 0.350581 0.183147
C17   C     C_R   0.497075 0.869811 0.504717 -0.024401
C18   C     C_R   0.573804 0.943122 0.591215 0.029363
C19   C     C_3   0.681999 0.944532 0.690760 -0.287623
C20   C     C_3   0.682393 0.087001 0.680675 0.131687
H9    H     H_    0.658420 0.912783 0.795866 0.186001
H10   H     H_    0.763797 0.129200 0.628038 0.114718
C21   C     C_R   0.590186 0.562573 0.075324 0.166096
N1    N     N_R   0.500790 0.500930 0.147930 -0.230371
C22   C     C_R   0.411684 0.435106 0.068339 0.096977
C23   C     C_R   0.413491 0.435696 0.920825 -0.022674
H11   H     H_    0.343295 0.385003 0.860498 0.168299
N2    N     N_R   0.500790 0.500890 0.852020 -0.192152
C24   C     C_R   0.593718 0.557210 0.928330 0.231466
C25   C     C_3   0.630878 0.689204 0.917089 -0.591028
C26   C     C_3   0.616890 0.700503 0.073896 0.178740
H12   H     H_    0.726874 0.701024 0.879449 0.219632
H13   H     H_    0.561230 0.740128 0.857254 0.202010
C27   C     C_2   0.797249 0.887547 0.634123 0.831987
O9    O     O_2   0.791530 0.813870 0.535978 -0.559908
O10   O     O_R   0.910946 0.916937 0.697980 -0.727946
H14   H     H_    0.981865 0.872200 0.652717 0.334823
N3    N     N_R   0.650465 0.150456 0.810925 0.172812
O11   O     O_R   0.718856 0.243439 0.856587 -0.345227
O12   O     O_R   0.551561 0.118798 0.878855 -0.328705
C28   C     C_2   0.304797 0.366831 0.126509 0.855598
O13   O     O_2   0.317615 0.296400 0.221892 -0.586763
O14   O     O_R   0.189020 0.374552 0.061847 -0.810901
H15   H     H_    0.123940 0.318765 0.104962 0.343743
N4    N     N_R   0.733028 0.735092 0.146684 0.152207
O15   O     O_R   0.736061 0.821331 0.243176 -0.272226
O16   O     O_R   0.834251 0.677659 0.117833 -0.371422
C29   C     C_2   0.510204 0.784713 0.107340 0.856805
O17   O     O_2   0.406287 0.741848 0.126455 -0.610742
O18   O     O_R   0.529616 0.912842 0.103720 -0.676880
H16   H     H_    0.450873 0.960067 0.118169 0.347887

loop_
_geom_bond_atom_site_label_1
_geom_bond_atom_site_label_2
_geom_bond_distance
_ccdc_geom_bond_type
C13   C20   1.486757 S    
C5    C6    1.396827 A    
C1    C14   1.434120 S    
C29   O18   1.398214 S    
C11   C12   1.516740 S    
N4    O16   1.301952 A    
C19   C20   1.546415 S    
C26   N4    1.469929 S    
O4    Cu2   1.965666 S    
C21   N1    1.367815 A    
C17   C18   1.392110 A    
C12   H5    1.112393 S    
C22   C28   1.478626 S    
C14   C15   1.407297 A    
Cu2   O8    1.961669 S    
C27   O10   1.397170 S    
C25   H12   1.109047 S    
C29   O17   1.223352 D    
C21   C24   1.415220 A    
C16   C17   1.409327 A    
C20   N3    1.463948 S    
Cu1   Cu2   2.707112 S    
C19   H9    1.105309 S    
N2    C24   1.363598 A    
C9    C10   1.395478 A    
C23   H11   1.082969 S    
Cu1   O7    1.965665 S    
C13   C18   1.351705 A    
C13   C14   1.381495 A    
C25   H13   1.108906 S    
C27   O9    1.222479 D    
O3    Cu1   1.961669 S    
C25   C26   1.520330 S    
O4    C2    1.301198 A    
C4    C9    1.446839 S    
O3    C2    1.297921 A    
C18   C19   1.505804 S    
C20   H10   1.113706 S    
Cu2   N1    2.034459 S    
C3    C17   1.437259 S    
C8    C9    1.405699 A    
O2    C1    1.298027 A    
N3    O12   1.302237 A    
C22   C23   1.419867 A    
O14   H15   1.014117 S    
Cu2   O6    1.957754 S    
O7    C4    1.301176 A    
C28   O14   1.399304 S    
C6    C7    1.402975 A    
N1    C22   1.397556 A    
O1    Cu1   1.957754 S    
C2    C6    1.447215 S    
N4    O15   1.301334 A    
Cu1   N2    2.033390 S    
C12   H6    1.110339 S    
C28   O13   1.214812 D    
C11   H3    1.110156 S    
C16   H8    1.082421 S    
N3    O11   1.300573 A    
C7    H1    1.079029 S    
C5    C10   1.378760 A    
C11   H4    1.111794 S    
C21   C26   1.513437 S    
O1    C1    1.295173 A    
Cu1   O5    1.966997 S    
C19   C27   1.506282 S    
O5    C3    1.296027 A    
O10   H14   1.014058 S    
C5    C12   1.493814 S    
C15   C16   1.405244 A    
C23   N2    1.352235 A    
C7    C8    1.390894 A    
C10   C11   1.492934 S    
O18   H16   1.013543 S    
C15   H7    1.078325 S    
O2    Cu2   1.966994 S    
C8    H2    1.082155 S    
O8    C4    1.297637 A    
C26   C29   1.520719 S    
C24   C25   1.480662 S    
O6    C3    1.298849 A    
