data_mof_unit_30120.cif
_audit_creation_date              2012-12-11T19:49:45-0500
_audit_creation_method            fapswitch 2.2
_symmetry_space_group_name_H-M    P1
_symmetry_Int_Tables_number       1
_space_group_crystal_system       triclinic
_cell_length_a                    8.296969
_cell_length_b                    15.202245
_cell_length_c                    18.754378
_cell_angle_alpha                 102.511315
_cell_angle_beta                  90.780968
_cell_angle_gamma                 100.090906
_cell_volume                      2270.36313484

loop_
_atom_site_label
_atom_site_type_symbol
_atom_type_description
_atom_site_fract_x
_atom_site_fract_y
_atom_site_fract_z
_atom_type_partial_charge
Ba1   Ba    Ba6+2 0.853520 0.540910 0.466490 1.795549
Ba2   Ba    Ba6+2 0.336320 0.459170 0.533520 1.733149
C1    C     C_3   0.683163 0.862355 0.287093 0.385499
C2    C     C_3   0.609769 0.763980 0.289696 0.411233
C3    C     C_3   0.445285 0.150529 0.309001 0.273142
C4    C     C_3   0.546535 0.075742 0.305454 -0.412391
C5    C     C_3   0.045533 0.287153 0.733414 0.341851
C6    C     C_3   0.078885 0.277254 0.811006 -0.288861
C7    C     C_3   0.515503 0.228745 0.684512 0.347250
C8    C     C_3   0.463015 0.134616 0.702106 0.382570
C9    C     C_R   0.985081 0.467429 0.047260 0.036351
C10   C     C_R   0.881598 0.424075 0.093370 0.033975
C11   C     C_R   0.717730 0.386582 0.069878 -0.075228
C12   C     C_3   0.189569 0.798253 0.285743 0.261694
C13   C     C_R   0.657379 0.391063 0.001039 -0.079372
C14   C     C_R   0.760499 0.431536 0.953730 0.024933
C15   C     C_R   0.924888 0.470169 0.976813 0.020946
C16   C     C_R   0.702029 0.432050 0.883335 -0.066209
C17   C     C_R   0.806495 0.468057 0.833765 -0.039328
C18   C     C_R   0.971025 0.509447 0.857446 0.019325
C19   C     C_R   0.029270 0.510444 0.929282 0.011913
C20   C     C_R   0.752618 0.462229 0.760700 0.002735
C21   C     C_R   0.861266 0.497348 0.712922 -0.284581
C22   C     C_R   0.022031 0.541138 0.735623 0.039996
C23   C     C_3   0.144032 0.846694 0.226469 0.295330
C24   C     C_R   0.077989 0.548917 0.809371 0.003477
C25   C     C_R   0.149234 0.506030 0.070812 0.053054
C26   C     C_R   0.208521 0.504780 0.141874 0.029822
C27   C     C_R   0.102334 0.462261 0.189302 -0.064372
C28   C     C_R   0.942729 0.418307 0.162090 -0.002406
C29   C     C_R   0.237305 0.594242 0.836737 0.013246
C30   C     C_R   0.297514 0.590887 0.906229 0.028711
C31   C     C_R   0.193494 0.548894 0.952813 0.036240
C32   C     C_R   0.253997 0.545865 0.023132 0.059143
C33   C     C_R   0.461919 0.627591 0.929337 -0.055179
C34   C     C_3   0.246617 0.742345 0.627630 0.286537
C35   C     C_R   0.522788 0.622678 0.997974 -0.016604
C36   C     C_R   0.419540 0.582903 0.045598 0.040196
C37   C     C_R   0.374851 0.544594 0.164818 -0.104788
C38   C     C_R   0.478653 0.581830 0.115810 -0.092288
C39   C     C_R   0.435057 0.539216 0.234135 -0.091369
C40   C     C_R   0.334512 0.483978 0.272646 0.161969
C41   C     C_R   0.164502 0.459238 0.259894 -0.010742
C42   C     C_R   0.852324 0.175848 0.557745 0.010336
C43   C     C_R   0.785662 0.081962 0.551284 -0.024725
C44   C     C_R   0.651590 0.891307 0.531929 -0.046824
C45   C     C_3   0.303105 0.845776 0.651295 -0.317989
C46   C     C_R   0.802381 0.930356 0.571092 -0.029105
C47   C     C_R   0.869763 0.023073 0.579136 -0.026598
C48   C     C_R   0.584644 0.795674 0.519518 0.036783
C49   C     C_R   0.436633 0.761824 0.477590 -0.278956
C50   C     C_R   0.610060 0.196982 0.492683 -0.045966
C51   C     C_R   0.538754 0.104472 0.489494 -0.044909
C52   C     C_R   0.629287 0.045869 0.515699 0.017714
C53   C     C_R   0.380963 0.067813 0.458226 -0.085683
C54   C     C_R   0.317829 0.975641 0.446695 -0.107769
C55   C     C_R   0.408898 0.915167 0.467464 -0.020406
C56   C     C_3   0.952336 0.259197 0.377664 0.302020
C57   C     C_R   0.564007 0.950482 0.504590 0.017042
C58   C     C_R   0.346145 0.820819 0.453707 -0.031920
C59   C     C_R   0.762692 0.232022 0.529470 -0.287098
C60   C     C_3   0.954674 0.156979 0.362197 -0.378236
C61   C     C_3   0.826033 0.758789 0.696990 0.234865
C62   C     C_3   0.807194 0.817971 0.772695 0.286981
H1    H     H_    0.588097 0.762707 0.347809 -0.130764
H2    H     H_    0.413185 0.861778 0.689415 0.167753
H3    H     H_    0.333613 0.875713 0.603488 0.034793
H4    H     H_    0.204167 0.878479 0.678752 0.158499
H5    H     H_    0.831609 0.271813 0.395302 0.012656
H6    H     H_    0.044623 0.292401 0.423120 0.058366
H7    H     H_    0.894489 0.122026 0.308000 0.169424
H8    H     H_    0.893374 0.125813 0.405216 0.047704
H9    H     H_    0.082168 0.145781 0.362034 0.095818
H10   H     H_    0.922598 0.797579 0.669845 0.010277
H11   H     H_    0.861189 0.693337 0.702395 0.034092
H12   H     H_    0.808352 0.880899 0.313695 0.019610
H13   H     H_    0.808269 0.889701 0.768009 0.072276
H14   H     H_    0.687356 0.792339 0.793681 0.053823
H15   H     H_    0.491972 0.742307 0.256864 -0.117907
H16   H     H_    0.608742 0.908385 0.319578 -0.091558
H17   H     H_    0.331344 0.134740 0.336122 -0.063553
H18   H     H_    0.619643 0.084585 0.356633 0.086371
H19   H     H_    0.461793 0.008928 0.295678 0.123407
H20   H     H_    0.632482 0.075409 0.260594 0.178769
H21   H     H_    0.104272 0.357186 0.729115 0.038582
H22   H     H_    0.910996 0.278048 0.723171 0.005825
H23   H     H_    0.212481 0.295370 0.825725 0.141559
H24   H     H_    0.014909 0.323362 0.850057 0.047423
H25   H     H_    0.033644 0.205661 0.815682 0.179868
H26   H     H_    0.648316 0.239908 0.674877 -0.064832
H27   H     H_    0.445949 0.228642 0.633608 0.034032
H28   H     H_    0.462951 0.080353 0.651814 -0.068993
H29   H     H_    0.205530 0.726913 0.261902 0.030001
H30   H     H_    0.336592 0.127960 0.721561 0.070581
H31   H     H_    0.635804 0.354035 0.104945 0.112237
H32   H     H_    0.530352 0.361558 0.984343 0.098310
H33   H     H_    0.818948 0.491758 0.657012 0.069831
H34   H     H_    0.574942 0.402672 0.867557 0.119246
H35   H     H_    0.863967 0.378865 0.193680 0.124245
H36   H     H_    0.318178 0.631017 0.804161 0.096474
H37   H     H_    0.544251 0.659154 0.893877 0.102162
H38   H     H_    0.650492 0.650951 0.014118 0.156841
H39   H     H_    0.606713 0.608934 0.131305 0.148477
H40   H     H_    0.307334 0.838083 0.313340 -0.119543
H41   H     H_    0.872775 0.890095 0.594998 0.078223
H42   H     H_    0.988047 0.047979 0.608151 0.101057
H43   H     H_    0.196633 0.953318 0.420400 0.094248
H44   H     H_    0.302824 0.109217 0.441382 0.113921
H45   H     H_    0.385122 0.689533 0.468233 0.064097
H46   H     H_    0.816351 0.302946 0.532218 0.046649
H47   H     H_    0.034384 0.877226 0.241074 0.104547
H48   H     H_    0.243048 0.904507 0.223202 0.035012
H49   H     H_    0.348815 0.710596 0.603337 0.014136
H50   H     H_    0.142762 0.727815 0.586455 0.054071
O1    O     O_2   0.871960 0.437280 0.322960 -0.402552
O2    O     O_3   0.671807 0.739221 0.659544 -0.670415
O3    O     O_3   0.063800 0.796446 0.334895 -0.586670
O4    O     O_2   0.317750 0.562750 0.677090 -0.454812
O5    O     O_3   0.068300 0.555620 0.587560 -0.512785
O6    O     O_3   0.528270 0.392500 0.627460 -0.484232
O7    O     O_3   0.198253 0.708951 0.689282 -0.600162
O8    O     O_3   0.609290 0.386840 0.459690 -0.370279
O9    O     O_3   0.105700 0.342700 0.589730 -0.486591
O10   O     O_2   0.188414 0.182054 0.548438 -0.512919
O11   O     O_3   0.110971 0.220596 0.684197 -0.591801
O12   O     O_3   0.121410 0.444460 0.412450 -0.483697
O13   O     O_3   0.580430 0.613240 0.540320 -0.434710
O14   O     O_2   0.337390 0.273050 0.457610 -0.493796
O15   O     O_3   0.536946 0.237528 0.342122 -0.558817
O16   O     O_2   0.414586 0.460979 0.754398 -0.502878
O17   O     O_3   0.478864 0.297146 0.742167 -0.586285
O18   O     O_3   0.661450 0.607570 0.372550 -0.423174
O19   O     O_2   0.777771 0.543658 0.245830 -0.431807
O20   O     O_3   0.982669 0.290936 0.313277 -0.589478
O21   O     O_3   0.719199 0.706319 0.261754 -0.547640
O22   O     O_2   0.852310 0.726980 0.542430 -0.487867
O23   O     O_3   0.084010 0.657370 0.410280 -0.476348
O24   O     O_2   0.019824 0.818597 0.471839 -0.482530
P1    P     P_3+3 0.039430 0.410940 0.333230 1.088410
P2    P     P_3+3 0.676770 0.715000 0.563590 0.992804
P3    P     P_3+3 0.133480 0.774091 0.416466 0.953338
P4    P     P_3+3 0.150290 0.589140 0.666780 0.998109
P5    P     P_3+3 0.062659 0.228546 0.595001 0.936405
P6    P     P_3+3 0.644618 0.597776 0.277335 1.094536
P7    P     P_3+3 0.521782 0.268763 0.438352 1.021252
P8    P     P_3+3 0.544557 0.404683 0.721951 0.961639
S1    S     S_3+6 0.963188 0.817206 0.838893 -0.048809
O25   O     O_2   0.941250 0.883250 0.908739 -0.188824
O26   O     O_2   0.946565 0.722661 0.853112 -0.333653
O27   O     O_3   0.149956 0.849112 0.809340 -0.501399
H51   H     H_    0.227150 0.832264 0.842623 0.380534
C63   C     C_1   0.395973 0.149799 0.233204 0.442760
N1    N     N_1   0.357257 0.149026 0.173513 -0.224330
S2    S     S_3+6 0.690128 0.879486 0.195305 -0.069670
O28   O     O_2   0.829929 0.955640 0.191510 -0.297093
O29   O     O_2   0.713455 0.793359 0.142915 -0.225679
O30   O     O_3   0.515440 0.908728 0.170511 -0.552039
H52   H     H_    0.532536 0.920693 0.121060 0.401244
S3    S     S_3+6 0.105172 0.772064 0.137828 0.010991
O31   O     O_2   0.992077 0.684738 0.141952 -0.284764
O32   O     O_2   0.027720 0.819386 0.087622 -0.129008
O33   O     O_3   0.282299 0.748532 0.103823 -0.472620
H53   H     H_    0.344925 0.738386 0.145578 0.330407
S4    S     S_3+6 0.598146 0.116283 0.770160 -0.075105
O34   O     O_2   0.521447 0.032998 0.796793 -0.258247
O35   O     O_2   0.757750 0.100951 0.737277 -0.347831
O36   O     O_3   0.631881 0.207873 0.840835 -0.514233
H54   H     H_    0.720530 0.197018 0.871936 0.360370
S5    S     S_3+6 0.424867 0.411179 0.310986 -0.067750
O37   O     O_2   0.581629 0.394820 0.276902 -0.277477
O38   O     O_2   0.450847 0.457764 0.389805 -0.280848
O39   O     O_3   0.298684 0.310068 0.296170 -0.567283
H55   H     H_    0.273144 0.300113 0.344970 0.342290

loop_
_geom_bond_atom_site_label_1
_geom_bond_atom_site_label_2
_ccdc_geom_bond_type
C2    H15   S    
O18   P6    S    
C53   C54   A    
C39   C40   A    
C56   C60   S    
O30   H52   S    
C4    H18   S    
C44   C57   A    
O16   P8    D    
C62   H13   S    
C51   C53   A    
C17   C18   A    
O22   P2    D    
Ba1   O18   S    
C34   H50   S    
C7    H27   S    
Ba2   O4    S    
C5    C6    S    
C37   C39   A    
C5    H21   S    
Ba2   O9    S    
C56   O20   S    
O6    P8    S    
C50   P7    S    
C3    C63   S    
C18   C24   A    
C11   H31   S    
C26   C27   A    
C33   C35   A    
C22   C24   A    
Ba1   Ba2   S    
C50   C59   A    
S3    O31   D    
O21   P6    S    
C3    C4    S    
C48   P2    S    
O14   P7    D    
C55   C57   A    
C5    H22   S    
C19   C31   A    
C59   H46   S    
C13   C14   A    
C54   C55   A    
C34   C45   S    
C16   C17   A    
Ba1   O5    S    
O8    P7    S    
Ba1   O8    S    
C23   H48   S    
C9    C15   A    
S1    O25   D    
C22   P4    S    
C14   C15   A    
C23   S3    S    
C21   C22   A    
S3    O32   D    
C60   H9    S    
C41   P1    S    
C9    C25   A    
Ba1   O22   S    
C7    C8    S    
C12   H29   S    
O15   P7    S    
Ba1   P1    S    
C10   C28   A    
Ba2   O13   S    
C13   H32   S    
C3    O15   S    
C8    H28   S    
C24   C29   A    
C49   H45   S    
C27   C41   A    
S5    O38   D    
C62   H14   S    
C1    H16   S    
C45   H3    S    
C48   C49   A    
C52   C57   A    
Ba2   O8    S    
C25   C32   A    
C44   C46   A    
O12   P1    S    
C4    H20   S    
O17   P8    S    
S5    O37   D    
C20   P8    S    
S1    O27   S    
Ba1   O12   S    
S2    O30   S    
O36   H54   S    
Ba2   O6    S    
C56   H6    S    
C55   C58   A    
C26   C37   A    
O4    P4    D    
C51   C52   A    
C28   H35   S    
C1    S2    S    
C5    O11   S    
C35   H38   S    
C6    H24   S    
O3    P3    S    
C30   C33   A    
C54   H43   S    
C35   C36   A    
C40   S5    S    
C58   P3    S    
C3    H17   S    
C12   H40   S    
C46   H41   S    
C43   C47   A    
Ba2   O5    S    
C12   O3    S    
C17   C20   A    
C31   C32   A    
S3    O33   S    
C60   H8    S    
O10   P5    D    
C29   H36   S    
C18   C19   A    
C1    H12   S    
S2    O28   D    
Ba1   P2    S    
C39   P6    S    
C2    O21   S    
C61   O2    S    
Ba2   O12   S    
C46   C47   A    
C21   H33   S    
O1    P1    D    
C43   C52   A    
C11   C13   A    
C62   S1    S    
Ba2   P4    S    
S5    O39   S    
C40   C41   A    
C1    C2    S    
C45   H4    S    
O20   P1    S    
Ba1   O23   S    
O39   H55   S    
C63   N1    T    
O33   H53   S    
O23   P3    S    
S4    O34   D    
O19   P6    D    
C8    S4    S    
C4    H19   S    
C45   H2    S    
S1    O26   D    
C32   C36   A    
S2    O29   D    
O7    P4    S    
C29   C30   A    
C42   C43   A    
Ba1   O13   S    
C33   H37   S    
O24   P3    D    
C7    H26   S    
C9    C10   A    
C56   H5    S    
C47   H42   S    
C6    H25   S    
C61   H10   S    
C42   C59   A    
C16   H34   S    
C44   C48   A    
C53   H44   S    
C6    H23   S    
C30   C31   A    
S4    O35   D    
C34   O7    S    
C38   H39   S    
C36   C38   A    
C2    H1    S    
C61   H11   S    
O11   P5    S    
C42   P5    S    
C7    O17   S    
C34   H49   S    
C60   H7    S    
C20   C21   A    
S4    O36   S    
C12   C23   S    
C15   C19   A    
C23   H47   S    
C27   C28   A    
C61   C62   S    
C37   C38   A    
C10   C11   A    
C14   C16   A    
O13   P2    S    
O9    P5    S    
C25   C26   A    
O5    P4    S    
C8    H30   S    
O27   H51   S    
C49   C58   A    
Ba1   O1    S    
C50   C51   A    
O2    P2    S    
Ba2   O14   S    
