data_mof_unit_22567.cif
_audit_creation_date              2013-03-05T16:03:41-0500
_audit_creation_method            fapswitch 2.2
_symmetry_space_group_name_H-M    P1
_symmetry_Int_Tables_number       1
_space_group_crystal_system       triclinic
_cell_length_a                    8.72744
_cell_length_b                    10.801605
_cell_length_c                    9.552667
_cell_angle_alpha                 90.597826
_cell_angle_beta                  98.263397
_cell_angle_gamma                 90.51117
_cell_volume                      891.085916361

loop_
_atom_site_label
_atom_site_type_symbol
_atom_site_description
_atom_site_fract_x
_atom_site_fract_y
_atom_site_fract_z
_atom_type_partial_charge
O1    O     O_R   0.499990 0.319660 0.618740 -0.601999
O2    O     O_R   0.500010 0.680340 0.381260 -0.601988
O3    O     O_R   0.499990 0.319630 0.381170 -0.507664
O4    O     O_R   0.500010 0.680370 0.618830 -0.507715
C1    C     C_R   0.502853 0.262370 0.499598 0.859107
C2    C     C_R   0.497148 0.737630 0.500402 0.859085
O5    O     O_R   0.274840 0.500010 0.591370 -0.587541
O6    O     O_R   0.725160 0.499990 0.408630 -0.587551
O7    O     O_R   0.274830 0.499980 0.353800 -0.545398
O8    O     O_R   0.725170 0.500020 0.646200 -0.545349
C3    C     C_R   0.203739 0.499896 0.463572 0.890581
C4    C     C_R   0.796261 0.500104 0.536428 0.890589
Cu1   Cu    Cu3+1 0.500000 0.500020 0.640660 1.060925
Cu2   Cu    Cu3+1 0.500000 0.499980 0.359340 1.060922
N1    N     N_R   0.500040 0.500030 0.852080 -0.246668
N2    N     N_R   0.499960 0.499970 0.147920 -0.246661
C5    C     C_2   0.037599 0.499928 0.443734 -0.300133
C6    C     C_2   0.962401 0.500070 0.556266 -0.300080
H1    H     H_    0.976974 0.499872 0.336022 0.210707
H2    H     H_    0.023026 0.500126 0.663977 0.210728
C7    C     C_R   0.586207 0.061403 0.407561 0.422449
C8    C     C_R   0.413794 0.938597 0.592440 0.422455
C9    C     C_R   0.581417 0.933208 0.409296 -0.224085
C10   C     C_R   0.418584 0.066792 0.590704 -0.224084
H3    H     H_    0.646761 0.881509 0.340429 0.198999
H4    H     H_    0.353239 0.118491 0.659571 0.198992
C11   C     C_R   0.496507 0.871488 0.501401 -0.163627
C12   C     C_R   0.503494 0.128512 0.498600 -0.163606
C13   C     C_R   0.397464 0.427161 0.058815 0.460371
C14   C     C_R   0.602521 0.572852 0.941181 0.460383
C15   C     C_R   0.397986 0.427768 0.910491 -0.102599
C16   C     C_R   0.602008 0.572239 0.089507 -0.102605
H5    H     H_    0.316628 0.369708 0.842389 0.170577
H6    H     H_    0.683356 0.630308 0.157607 0.170568
Cl1   Cl    Cl    0.704052 0.132916 0.295802 -0.504178
Cl2   Cl    Cl    0.295949 0.867084 0.704198 -0.504174
N3    N     N_R   0.288281 0.349015 0.113749 0.137479
O9    O     O_R   0.143643 0.381290 0.097859 -0.329118
O10   O     O_R   0.322149 0.233285 0.136499 -0.298248
N4    N     N_R   0.711636 0.651055 0.886235 0.137487
O11   O     O_R   0.677796 0.766827 0.863751 -0.298264
O12   O     O_R   0.856254 0.618733 0.901874 -0.329073

loop_
_geom_bond_atom_site_label_1
_geom_bond_atom_site_label_2
_geom_bond_distance
_ccdc_geom_bond_type
N3    O10   1.300405 A    
C14   C16   1.417645 A    
O7    Cu2   1.958253 S    
C15   H5    1.082334 S    
N1    C15   1.361409 A    
N3    O9    1.300736 A    
C7    Cl1   1.764335 S    
Cu2   N2    2.019573 S    
C9    C11   1.399490 A    
N2    C16   1.361417 A    
C1    C12   1.445884 S    
C8    Cl2   1.764336 S    
C2    C11   1.445884 S    
O6    C4    1.287495 A    
N4    O12   1.300754 A    
C5    C6    1.337565 D    
C14   N4    1.426357 S    
C13   C15   1.417640 A    
Cu1   Cu2   2.687352 S    
O5    C3    1.287495 A    
O7    C3    1.292885 A    
O2    C2    1.293306 A    
O3    Cu2   1.961362 S    
O8    C4    1.292887 A    
O1    C1    1.293304 A    
N4    O11   1.300434 A    
C5    H1    1.087263 S    
C7    C12   1.406955 A    
C10   H4    1.084311 S    
C6    H2    1.087262 S    
C8    C11   1.406955 A    
Cu1   N1    2.019575 S    
C7    C9    1.385311 A    
O2    Cu2   1.957224 S    
C8    C10   1.385312 A    
O1    Cu1   1.957223 S    
C4    C6    1.435053 S    
O5    Cu1   1.953775 S    
C9    H3    1.084311 S    
N1    C14   1.377603 A    
O4    C2    1.292192 A    
C13   N3    1.426359 S    
O4    Cu1   1.961363 S    
C3    C5    1.435052 S    
O6    Cu2   1.953774 S    
N2    C13   1.377616 A    
C10   C12   1.399490 A    
O3    C1    1.292192 A    
O8    Cu1   1.958251 S    
C16   H6    1.082335 S    
