data_mof_unit_65246.cif
_audit_creation_date              2012-12-11T16:00:41-0500
_audit_creation_method            fapswitch 2.2
_symmetry_space_group_name_H-M    P1
_symmetry_Int_Tables_number       1
_space_group_crystal_system       triclinic
_cell_length_a                    6.949542
_cell_length_b                    17.26935
_cell_length_c                    18.583311
_cell_angle_alpha                 107.269834
_cell_angle_beta                  90.329726
_cell_angle_gamma                 90.666077
_cell_volume                      2129.46972149

loop_
_atom_site_label
_atom_site_type_symbol
_atom_type_description
_atom_site_fract_x
_atom_site_fract_y
_atom_site_fract_z
_atom_type_partial_charge
O1    O     O_R   0.505810 0.442350 0.559500 -0.520641
O2    O     O_R   0.167990 0.405060 0.411070 -0.539329
O3    O     O_R   0.005550 0.557650 0.440500 -0.521079
C1    C     C_R   0.337370 0.381348 0.383103 0.691063
O4    O     O_R   0.175580 0.432840 0.557140 -0.524664
O5    O     O_R   0.013190 0.585620 0.587600 -0.533838
C2    C     C_R   0.344539 0.415894 0.580602 0.717930
O6    O     O_R   0.498170 0.414380 0.412400 -0.536603
O7    O     O_3   0.341790 0.550090 0.509830 -0.358279
V1    V     V_3+5 0.063870 0.490710 0.498180 1.394529
O8    O     O_R   0.683930 0.594940 0.588930 -0.539293
C3    C     C_R   0.854147 0.618193 0.617051 0.682532
O9    O     O_R   0.676340 0.567160 0.442860 -0.523705
C4    C     C_R   0.845234 0.584022 0.419328 0.717778
V2    V     V_3+5 0.564820 0.509290 0.501820 1.399177
O10   O     O_3   0.836770 0.449910 0.490170 -0.361250
C5    C     C_1   0.856374 0.635960 0.367237 -0.221206
C6    C     C_1   0.867603 0.678481 0.323645 -0.003906
C7    C     C_1   0.881990 0.728653 0.271759 -0.004531
C8    C     C_1   0.894355 0.770926 0.227977 -0.004369
C9    C     C_1   0.908773 0.821143 0.176130 -0.003064
C10   C     C_1   0.920068 0.863744 0.132606 -0.220193
C11   C     C_3   0.813997 0.816706 0.738574 -0.140680
C12   C     C_3   0.982644 0.767529 0.693840 -0.138535
H1    H     H_    0.059917 0.781564 0.647006 0.103617
H2    H     H_    0.752875 0.872275 0.729630 0.101728
C13   C     C_3   0.869918 0.688523 0.687686 -0.010019
C14   C     C_3   0.701097 0.736874 0.731601 -0.116221
C15   C     C_3   0.794281 0.732409 0.806192 -0.138830
C16   C     C_3   0.962929 0.683231 0.761459 -0.140761
C17   C     C_3   0.075829 0.763064 0.768431 -0.116123
C18   C     C_3   0.907007 0.811415 0.812347 -0.009113
H3    H     H_    0.546681 0.725708 0.715924 0.106526
H4    H     H_    0.717008 0.718373 0.853027 0.103190
H5    H     H_    0.024051 0.627663 0.770403 0.101734
H6    H     H_    0.230245 0.774229 0.784108 0.106312
C19   C     C_3   0.543484 0.260349 0.295911 -0.113146
C20   C     C_3   0.419517 0.181470 0.268500 -0.197298
H7    H     H_    0.446331 0.124942 0.283567 0.114799
H8    H     H_    0.672382 0.268557 0.333149 0.108964
C21   C     C_3   0.420546 0.189208 0.187783 -0.077303
C22   C     C_3   0.539185 0.267449 0.215415 0.355893
C23   C     C_3   0.356553 0.319002 0.231839 -0.208113
C24   C     C_3   0.233913 0.239718 0.204814 -0.151678
C25   C     C_3   0.233309 0.232504 0.286147 -0.107878
C26   C     C_3   0.356444 0.310764 0.312421 -0.056382
H9    H     H_    0.330858 0.375418 0.216434 0.106551
H10   H     H_    0.106231 0.230679 0.166936 0.160299
H11   H     H_    0.104649 0.218393 0.315337 0.112462
C27   C     C_1   0.355005 0.363848 0.632644 -0.220055
C28   C     C_1   0.366667 0.321312 0.676214 -0.002901
C29   C     C_1   0.382085 0.271179 0.728115 -0.004311
C30   C     C_1   0.395411 0.228971 0.771921 -0.004400
C31   C     C_1   0.410804 0.178828 0.823813 -0.003202
C32   C     C_1   0.422408 0.136271 0.867366 -0.219998
O11   O     O_R   0.278780 0.085730 0.087540 -0.535014
O12   O     O_R   0.601620 0.067180 0.942850 -0.525582
O13   O     O_R   0.763750 0.914350 0.912410 -0.535004
C33   C     C_R   0.432728 0.084192 0.919379 0.712983
O14   O     O_R   0.608970 0.094960 0.088920 -0.529979
O15   O     O_R   0.771150 0.942330 0.059520 -0.521611
C34   C     C_R   0.439595 0.118742 0.116881 0.688615
O16   O     O_R   0.271380 0.057750 0.940430 -0.521425
O17   O     O_3   0.435070 0.949970 0.990140 -0.360380
V3    V     V_3+5 0.713090 0.009280 0.001830 1.411501
O18   O     O_R   0.100340 0.932730 0.057200 -0.524226
C35   C     C_R   0.931367 0.915809 0.080623 0.719958
O19   O     O_R   0.092990 0.904950 0.911140 -0.540210
C36   C     C_R   0.922784 0.881744 0.882982 0.678611
V4    V     V_3+5 0.212100 0.990570 0.998260 1.406166
O20   O     O_3   0.940260 0.050030 0.009860 -0.357792
N1    N     N_2   0.705396 0.285859 0.176622 -0.528932
H12   H     H_    0.677164 0.280323 0.120785 0.246300
C37   C     C_3   0.805878 0.360469 0.215596 -0.566968
H13   H     H_    0.932215 0.368648 0.182159 0.192730
H14   H     H_    0.858514 0.358303 0.271509 0.209423
H15   H     H_    0.709477 0.413103 0.223033 0.188651

loop_
_geom_bond_atom_site_label_1
_geom_bond_atom_site_label_2
_ccdc_geom_bond_type
C32   C33   S    
C21   C22   S    
C7    C8    T    
C12   C13   S    
C1    O6    A    
C1    C26   S    
C30   C31   S    
C24   C25   S    
C19   C20   S    
C37   H14   S    
C16   H5    S    
C14   C15   S    
C15   C18   S    
O5    C3    A    
C16   C17   S    
O12   C33   A    
C14   H3    S    
V2    O10   S    
O14   C34   A    
C6    C7    S    
C11   H2    S    
C19   C22   S    
C20   C25   S    
O8    V2    S    
V3    O20   S    
O19   C36   A    
C37   H15   S    
C11   C12   S    
V4    O20   S    
O1    V2    S    
O17   V4    S    
O7    V1    S    
O18   C35   A    
O9    C4    A    
C13   C16   S    
C4    C5    S    
C21   C34   S    
C27   C28   T    
C37   H13   S    
C3    C13   S    
C28   C29   S    
C12   H1    S    
C20   C21   S    
N1    C37   S    
O4    C2    A    
C25   C26   S    
C15   H4    S    
O2    C1    A    
C23   C24   S    
C15   C16   S    
O15   C35   A    
O13   V3    S    
C17   C18   S    
O16   V4    S    
C25   H11   S    
C22   N1    S    
C5    C6    T    
C11   C14   S    
O3    C4    A    
O14   V3    S    
O6    V2    S    
O11   V4    S    
O9    V2    S    
C21   C24   S    
O11   C34   A    
C22   C23   S    
O2    V1    S    
C29   C30   T    
C31   C32   T    
O1    C2    A    
C2    C27   S    
O12   V3    S    
N1    H12   S    
O5    V1    S    
O8    C3    A    
O13   C36   A    
C18   C36   S    
C19   H8    S    
O18   V4    S    
C33   O16   A    
O17   V3    S    
O7    V2    S    
C12   C17   S    
O4    V1    S    
O3    V1    S    
V1    O10   S    
C11   C18   S    
C20   H7    S    
C23   C26   S    
C10   C35   S    
O15   V3    S    
C8    C9    S    
O19   V4    S    
C13   C14   S    
C17   H6    S    
C19   C26   S    
C9    C10   T    
C23   H9    S    
C24   H10   S    
