data_mof_unit_10514.cif
_audit_creation_date              2012-10-26T17:11:03-0400
_audit_creation_method            fapswitch 2.2
_symmetry_space_group_name_H-M    P1
_symmetry_Int_Tables_number       1
_space_group_crystal_system       triclinic
_cell_length_a                    28.093539
_cell_length_b                    18.781165
_cell_length_c                    16.832438
_cell_angle_alpha                 90.0
_cell_angle_beta                  62.514458
_cell_angle_gamma                 90.000213
_cell_volume                      7878.83414597

loop_
_atom_site_label
_atom_site_type_symbol
_atom_type_description
_atom_site_fract_x
_atom_site_fract_y
_atom_site_fract_z
_atom_type_partial_charge
C1    C     C_R   0.294908 0.728148 0.329588 0.549413
C2    C     C_R   0.442712 0.123591 0.525194 -0.148736
C3    C     C_R   0.926851 0.097258 0.066392 0.554382
C4    C     C_R   0.426218 0.403539 0.066845 0.556461
C5    C     C_R   0.573148 0.597260 0.933609 0.554382
C6    C     C_R   0.573783 0.403540 0.933155 0.556463
C7    C     C_R   0.426851 0.597259 0.066392 0.554380
C8    C     C_R   0.047924 0.497810 0.507555 0.033878
C9    C     C_R   0.952077 0.497810 0.492441 0.033878
C10   C     C_R   0.547925 0.997810 0.507552 0.033877
C11   C     C_R   0.452078 0.997810 0.492438 0.033877
C12   C     C_R   0.025860 0.562120 0.496806 0.011000
C13   C     C_R   0.461407 0.871493 0.462974 -0.146859
C14   C     C_R   0.978191 0.433053 0.489793 0.009088
C15   C     C_R   0.974142 0.562121 0.503189 0.011000
C16   C     C_R   0.021810 0.433053 0.510204 0.009089
C17   C     C_R   0.525861 0.062120 0.496803 0.011000
C18   C     C_R   0.478192 0.933053 0.489790 0.009088
C19   C     C_R   0.474143 0.062121 0.503185 0.011000
C20   C     C_R   0.521810 0.933052 0.510201 0.009088
C21   C     C_R   0.115276 0.434802 0.535319 0.007560
C22   C     C_R   0.874406 0.562568 0.499108 0.007508
C23   C     C_R   0.884724 0.434802 0.464679 0.007559
C24   C     C_R   0.557293 0.123591 0.474793 -0.148735
C25   C     C_R   0.125595 0.562567 0.500889 0.007507
C26   C     C_R   0.615277 0.934802 0.535317 0.007560
C27   C     C_R   0.374407 0.062568 0.499106 0.007508
C28   C     C_R   0.384725 0.934802 0.464678 0.007559
C29   C     C_R   0.625596 0.062567 0.500887 0.007507
C30   C     C_R   0.166384 0.434777 0.534549 -0.028927
C31   C     C_R   0.828128 0.563913 0.484511 -0.025893
C32   C     C_R   0.833616 0.434777 0.465450 -0.028927
C33   C     C_R   0.171872 0.563913 0.515487 -0.025893
C34   C     C_R   0.666384 0.934777 0.534548 -0.028927
C35   C     C_R   0.038594 0.371493 0.537020 -0.146859
C36   C     C_R   0.328128 0.063913 0.484510 -0.025893
C37   C     C_R   0.333616 0.934777 0.465450 -0.028927
C38   C     C_R   0.671873 0.063913 0.515486 -0.025893
C39   C     C_R   0.192021 0.499695 0.529638 -0.169430
C40   C     C_R   0.807979 0.499695 0.470362 -0.169430
C41   C     C_R   0.692021 0.999695 0.529637 -0.169429
C42   C     C_R   0.307979 0.999695 0.470362 -0.169429
C43   C     C_R   0.096238 0.498455 0.515215 0.032005
C44   C     C_R   0.903763 0.498455 0.484782 0.032005
C45   C     C_R   0.596239 0.998455 0.515213 0.032005
C46   C     C_R   0.942711 0.623591 0.525197 -0.148736
C47   C     C_R   0.403763 0.998455 0.484779 0.032005
C48   C     C_R   0.582350 0.873588 0.554672 -0.115616
C49   C     C_R   0.392293 0.122233 0.529457 -0.117483
C50   C     C_R   0.417651 0.873588 0.445321 -0.115616
C51   C     C_R   0.607711 0.122232 0.470532 -0.117482
C52   C     C_R   0.082350 0.373588 0.554674 -0.115616
C53   C     C_R   0.892292 0.622233 0.529460 -0.117483
C54   C     C_R   0.917650 0.373588 0.445323 -0.115615
C55   C     C_R   0.107710 0.622232 0.470535 -0.117482
C56   C     C_3   0.273457 0.923131 0.881455 -0.297148
C57   C     C_R   0.961406 0.371493 0.462976 -0.146858
C58   C     C_3   0.810809 0.074124 0.926753 -0.317021
C59   C     C_3   0.726550 0.923155 0.118542 -0.297190
C60   C     C_3   0.189199 0.074111 0.073200 -0.317020
C61   C     C_3   0.773444 0.423130 0.881472 -0.297185
C62   C     C_3   0.310808 0.574121 0.926754 -0.317020
C63   C     C_3   0.226576 0.423151 0.118502 -0.297183
C64   C     C_3   0.689212 0.574113 0.073206 -0.317013
C65   C     C_R   0.057292 0.623591 0.474797 -0.148735
C66   C     C_R   0.223322 0.771514 0.950575 0.023577
C67   C     C_R   0.782041 0.233769 0.042569 0.023956
C68   C     C_R   0.776665 0.771534 0.049437 0.023591
C69   C     C_R   0.704988 0.271637 0.670338 0.563140
C70   C     C_R   0.217957 0.233777 0.957432 0.023953
C71   C     C_R   0.723325 0.271516 0.950571 0.023606
C72   C     C_R   0.282041 0.733771 0.042569 0.023950
C73   C     C_R   0.276677 0.271513 0.049425 0.023589
C74   C     C_R   0.717945 0.733797 0.957442 0.023945
C75   C     C_R   0.234046 0.699936 0.959312 -0.138187
C76   C     C_R   0.771392 0.305488 0.033725 -0.142687
C77   C     C_R   0.765940 0.699958 0.040698 -0.138186
C78   C     C_R   0.228609 0.305495 0.966277 -0.142679
C79   C     C_R   0.734048 0.199938 0.959304 -0.138187
C80   C     C_R   0.705091 0.728150 0.670413 0.549413
C81   C     C_R   0.271391 0.805492 0.033724 -0.142677
C82   C     C_R   0.265952 0.199937 0.040688 -0.138194
C83   C     C_R   0.728595 0.805516 0.966290 -0.142682
C84   C     C_R   0.264169 0.680713 0.003080 0.142137
C85   C     C_R   0.743712 0.324989 0.985646 0.143704
C86   C     C_R   0.735818 0.680739 0.996926 0.142128
C87   C     C_R   0.256293 0.324991 0.014350 0.143708
C88   C     C_R   0.764170 0.180714 0.003075 0.142132
C89   C     C_R   0.243711 0.824991 0.985646 0.143704
C90   C     C_R   0.235830 0.180717 0.996916 0.142133
C91   C     C_R   0.295012 0.271636 0.329662 0.563141
C92   C     C_R   0.756278 0.825011 0.014366 0.143706
C93   C     C_R   0.146174 0.832574 0.942887 -0.086498
C94   C     C_R   0.857972 0.173238 0.053886 -0.084537
C95   C     C_R   0.853821 0.832583 0.057118 -0.086500
C96   C     C_R   0.142025 0.173245 0.946117 -0.084537
C97   C     C_R   0.646173 0.332574 0.942886 -0.086509
C98   C     C_R   0.357972 0.673239 0.053885 -0.084539
C99   C     C_R   0.353830 0.332568 0.057111 -0.086497
C100  C     C_R   0.642019 0.673256 0.946122 -0.084533
C101  C     C_R   0.118565 0.853045 0.894814 -0.019188
C102  C     C_R   0.794908 0.228147 0.329588 0.549413
C103  C     C_R   0.883067 0.149118 0.104206 -0.019067
C104  C     C_R   0.881433 0.853047 0.105187 -0.019189
C105  C     C_R   0.116931 0.149122 0.895796 -0.019065
C106  C     C_R   0.618564 0.353044 0.894813 -0.019191
C107  C     C_R   0.383068 0.649119 0.104205 -0.019069
C108  C     C_R   0.381437 0.353042 0.105185 -0.019192
C109  C     C_R   0.616929 0.649125 0.895797 -0.019065
C110  C     C_R   0.136635 0.829593 0.807066 -0.140458
C111  C     C_R   0.863381 0.170189 0.193133 -0.142313
C112  C     C_R   0.863365 0.829592 0.192933 -0.140462
C113  C     C_R   0.204988 0.771636 0.670338 0.563139
C114  C     C_R   0.136617 0.170192 0.806869 -0.142313
C115  C     C_R   0.636634 0.329593 0.807066 -0.140461
C116  C     C_R   0.363382 0.670191 0.193132 -0.142314
C117  C     C_R   0.363366 0.329591 0.192934 -0.140461
C118  C     C_R   0.636617 0.670192 0.806869 -0.142312
C119  C     C_R   0.182546 0.787559 0.766009 -0.017072
C120  C     C_R   0.817703 0.212757 0.233493 -0.016615
C121  C     C_R   0.817451 0.787563 0.233993 -0.017073
C122  C     C_R   0.182294 0.212762 0.766508 -0.016614
C123  C     C_R   0.682546 0.287560 0.766008 -0.017077
C124  C     C_R   0.205092 0.228149 0.670413 0.549414
C125  C     C_R   0.317704 0.712759 0.233493 -0.016615
C126  C     C_R   0.317454 0.287558 0.233991 -0.017073
C127  C     C_R   0.682292 0.712766 0.766510 -0.016615
C128  C     C_R   0.209497 0.766253 0.814651 -0.137701
C129  C     C_R   0.791881 0.235525 0.183305 -0.128035
C130  C     C_R   0.790496 0.766266 0.185356 -0.137700
C131  C     C_R   0.208115 0.235534 0.816697 -0.128030
C132  C     C_R   0.709498 0.266256 0.814649 -0.137709
C133  C     C_R   0.291883 0.735528 0.183304 -0.128035
C134  C     C_R   0.290503 0.266253 0.185349 -0.137698
C135  C     C_R   0.795012 0.771637 0.329662 0.563141
C136  C     C_R   0.708108 0.735548 0.816703 -0.128029
C137  C     C_R   0.191873 0.789366 0.902809 0.003779
C138  C     C_R   0.811542 0.214963 0.093509 0.013258
C139  C     C_R   0.808118 0.789380 0.097199 0.003774
C140  C     C_R   0.188454 0.214974 0.906494 0.013263
C141  C     C_R   0.691874 0.289368 0.902807 0.003765
C142  C     C_R   0.311543 0.714966 0.093509 0.013255
C143  C     C_R   0.308128 0.289363 0.097190 0.003779
C144  C     C_R   0.688445 0.714990 0.906501 0.013258
C145  C     C_R   0.199785 0.630964 0.516300 0.555291
C146  C     C_R   0.538595 0.871493 0.537018 -0.146859
C147  C     C_R   0.803004 0.368260 0.473724 0.551820
C148  C     C_R   0.800215 0.630964 0.483699 0.555293
C149  C     C_R   0.196996 0.368260 0.526276 0.551819
C150  C     C_R   0.699785 0.130964 0.516300 0.555291
C151  C     C_R   0.303004 0.868260 0.473724 0.551820
C152  C     C_R   0.300215 0.130964 0.483699 0.555292
C153  C     C_R   0.696996 0.868260 0.526276 0.551818
C154  C     C_R   0.926217 0.903541 0.066846 0.556464
C155  C     C_R   0.073149 0.097259 0.933608 0.554381
C156  C     C_R   0.073783 0.903540 0.933154 0.556462
Cu1   Cu    Cu3+1 0.209920 0.785290 0.495070 0.907688
Cu2   Cu    Cu3+1 0.504760 0.500000 0.075850 0.915166
Cu3   Cu    Cu3+1 0.995240 1.000000 0.924150 0.915162
Cu4   Cu    Cu3+1 0.004760 0.000000 0.075850 0.915157
Cu5   Cu    Cu3+1 0.790080 0.214710 0.504930 0.907812
Cu6   Cu    Cu3+1 0.790080 0.785290 0.504930 0.907690
Cu7   Cu    Cu3+1 0.209920 0.214710 0.495070 0.907814
Cu8   Cu    Cu3+1 0.709920 0.285290 0.495070 0.907688
Cu9   Cu    Cu3+1 0.290080 0.714710 0.504930 0.907811
Cu10  Cu    Cu3+1 0.290080 0.285290 0.504930 0.907688
Cu11  Cu    Cu3+1 0.709920 0.714710 0.495070 0.907813
Cu12  Cu    Cu3+1 0.495240 0.500000 0.924150 0.915162
H1    H     H_    0.229275 0.499979 0.534099 0.159066
H2    H     H_    0.867890 0.668130 0.560451 0.156023
H3    H     H_    0.911491 0.326777 0.414185 0.149474
H4    H     H_    0.132113 0.668129 0.439543 0.156021
H5    H     H_    0.516154 0.822326 0.549870 0.105725
H6    H     H_    0.455245 0.171821 0.545514 0.108089
H7    H     H_    0.483847 0.822326 0.450122 0.105725
H8    H     H_    0.544762 0.171820 0.454471 0.108090
H9    H     H_    0.016153 0.322326 0.549872 0.105725
H10   H     H_    0.955243 0.671821 0.545518 0.108089
H11   H     H_    0.983847 0.322326 0.450124 0.105726
H12   H     H_    0.770725 0.499979 0.465902 0.159066
H13   H     H_    0.044760 0.671820 0.454475 0.108089
H14   H     H_    0.218915 0.658678 0.931911 0.111961
H15   H     H_    0.786230 0.346547 0.061850 0.103894
H16   H     H_    0.781073 0.658698 0.068092 0.111967
H17   H     H_    0.213772 0.346558 0.938155 0.103899
H18   H     H_    0.718918 0.158682 0.931901 0.111957
H19   H     H_    0.286230 0.846553 0.061846 0.103898
H20   H     H_    0.281082 0.158678 0.068086 0.111961
H21   H     H_    0.713758 0.846577 0.938169 0.103897
H22   H     H_    0.132991 0.851213 0.010748 0.148542
H23   H     H_    0.729275 0.999979 0.534100 0.159066
H24   H     H_    0.873820 0.158321 0.984282 0.143616
H25   H     H_    0.867004 0.851222 0.989257 0.148548
H26   H     H_    0.126178 0.158327 0.015721 0.143605
H27   H     H_    0.632989 0.351210 0.010748 0.148551
H28   H     H_    0.373819 0.658322 0.984281 0.143622
H29   H     H_    0.367015 0.351203 0.989248 0.148554
H30   H     H_    0.626171 0.658338 0.015725 0.143619
H31   H     H_    0.116120 0.846506 0.769353 0.155489
H32   H     H_    0.882553 0.151149 0.232079 0.154465
H33   H     H_    0.883883 0.846499 0.230643 0.155488
H34   H     H_    0.270725 0.999979 0.465902 0.159066
H35   H     H_    0.117447 0.151149 0.767921 0.154465
H36   H     H_    0.616119 0.346505 0.769354 0.155490
H37   H     H_    0.382553 0.651150 0.232079 0.154465
H38   H     H_    0.383881 0.346505 0.230647 0.155489
H39   H     H_    0.617451 0.651143 0.767919 0.154467
H40   H     H_    0.245702 0.734480 0.782952 0.129679
H41   H     H_    0.755517 0.267012 0.214542 0.126984
H42   H     H_    0.754288 0.734498 0.217057 0.129686
H43   H     H_    0.244478 0.267022 0.785460 0.126982
H44   H     H_    0.745704 0.234485 0.782950 0.129688
H45   H     H_    0.588509 0.826776 0.585810 0.149474
H46   H     H_    0.255519 0.767016 0.214541 0.126983
H47   H     H_    0.254296 0.234482 0.217049 0.129683
H48   H     H_    0.744470 0.767039 0.785468 0.126982
H49   H     H_    0.238264 0.931463 0.019317 0.238637
H50   H     H_    0.261698 0.977640 0.872202 0.153008
H51   H     H_    0.271182 0.888586 0.829826 0.169452
H52   H     H_    0.315477 0.924070 0.871195 0.134516
H53   H     H_    0.739739 0.078671 0.044584 0.245086
H54   H     H_    0.827206 0.024727 0.940877 0.167011
H55   H     H_    0.845083 0.109688 0.885900 0.147325
H56   H     H_    0.367892 0.168130 0.560449 0.156023
H57   H     H_    0.789281 0.060447 0.887564 0.121553
H58   H     H_    0.761734 0.931474 0.980683 0.238647
H59   H     H_    0.738294 0.977669 0.127778 0.152987
H60   H     H_    0.728844 0.888641 0.170169 0.169465
H61   H     H_    0.684533 0.924064 0.128820 0.134544
H62   H     H_    0.260274 0.078685 0.955376 0.245086
H63   H     H_    0.172794 0.024731 0.059057 0.167034
H64   H     H_    0.154929 0.109672 0.114076 0.147313
H65   H     H_    0.210730 0.060407 0.112374 0.121553
H66   H     H_    0.738269 0.431448 0.019327 0.238644
H67   H     H_    0.411491 0.826777 0.414184 0.149474
H68   H     H_    0.761729 0.477667 0.872261 0.152939
H69   H     H_    0.771113 0.388649 0.829848 0.169482
H70   H     H_    0.815469 0.423979 0.871170 0.134573
H71   H     H_    0.239740 0.578670 0.044596 0.245078
H72   H     H_    0.327213 0.524731 0.940874 0.166999
H73   H     H_    0.345079 0.609688 0.885890 0.147320
H74   H     H_    0.289275 0.560434 0.887580 0.121556
H75   H     H_    0.261769 0.431450 0.980641 0.238645
H76   H     H_    0.238349 0.477653 0.127736 0.153022
H77   H     H_    0.228841 0.388617 0.170143 0.169458
H78   H     H_    0.632114 0.168128 0.439541 0.156022
H79   H     H_    0.184560 0.424105 0.128757 0.134529
H80   H     H_    0.760267 0.578714 0.955344 0.245081
H81   H     H_    0.672819 0.524720 0.059066 0.167024
H82   H     H_    0.654933 0.609657 0.114096 0.147327
H83   H     H_    0.710756 0.560425 0.112362 0.121553
H84   H     H_    0.088509 0.326776 0.585811 0.149473
N1    N     N_2   0.237709 0.898327 0.970913 -0.523955
N2    N     N_2   0.774506 0.107645 0.010527 -0.514992
N3    N     N_2   0.762289 0.898343 0.029088 -0.523969
N4    N     N_2   0.225503 0.107649 0.989441 -0.514995
N5    N     N_2   0.737707 0.398321 0.970925 -0.523983
N6    N     N_2   0.274508 0.607644 0.010530 -0.514992
N7    N     N_2   0.262313 0.398323 0.029057 -0.523979
N8    N     N_2   0.725495 0.607670 0.989444 -0.514986
O1    O     O_R   0.255040 0.869590 0.478480 -0.507418
O2    O     O_R   0.817950 0.203450 0.375560 -0.516620
O3    O     O_R   0.817950 0.796550 0.375560 -0.506491
O4    O     O_R   0.182050 0.203450 0.624440 -0.516620
O5    O     O_R   0.682050 0.296550 0.624440 -0.506492
O6    O     O_R   0.317950 0.703450 0.375560 -0.516620
O7    O     O_R   0.317950 0.296550 0.375560 -0.506492
O8    O     O_R   0.682050 0.703450 0.624440 -0.516620
O9    O     O_R   0.250530 0.763330 0.367210 -0.520698
O10   O     O_R   0.749470 0.236670 0.632790 -0.510262
O11   O     O_R   0.749470 0.763330 0.632790 -0.520696
O12   O     O_R   0.744960 0.130410 0.521520 -0.508070
O13   O     O_R   0.250530 0.236670 0.367210 -0.510262
O14   O     O_R   0.750530 0.263330 0.367210 -0.520698
O15   O     O_R   0.249470 0.736670 0.632790 -0.510262
O16   O     O_R   0.249470 0.263330 0.632790 -0.520697
O17   O     O_R   0.750530 0.736670 0.367210 -0.510263
O18   O     O_R   0.177260 0.690030 0.513710 -0.520986
O19   O     O_R   0.822740 0.309970 0.486290 -0.518800
O20   O     O_R   0.822740 0.690030 0.486290 -0.520986
O21   O     O_R   0.177260 0.309970 0.513710 -0.518801
O22   O     O_R   0.677260 0.190030 0.513710 -0.520986
O23   O     O_R   0.744960 0.869590 0.521520 -0.507419
O24   O     O_R   0.322740 0.809970 0.486290 -0.518801
O25   O     O_R   0.322740 0.190030 0.486290 -0.520987
O26   O     O_R   0.677260 0.809970 0.513710 -0.518802
O27   O     O_R   0.051640 0.926880 0.885090 -0.510719
O28   O     O_R   0.948360 0.073120 0.114910 -0.513193
O29   O     O_R   0.948360 0.926880 0.114910 -0.510718
O30   O     O_R   0.051640 0.073120 0.885090 -0.513194
O31   O     O_R   0.551640 0.426880 0.885090 -0.510720
O32   O     O_R   0.448360 0.573120 0.114910 -0.513194
O33   O     O_R   0.448360 0.426880 0.114910 -0.510719
O34   O     O_R   0.255040 0.130410 0.478480 -0.508069
O35   O     O_R   0.551640 0.573120 0.885090 -0.513195
O36   O     O_R   0.940620 0.926560 0.986760 -0.514225
O37   O     O_R   0.059380 0.073440 0.013240 -0.516312
O38   O     O_R   0.059380 0.926560 0.013240 -0.514229
O39   O     O_R   0.940620 0.073440 0.986760 -0.516307
O40   O     O_R   0.440620 0.426560 0.986760 -0.514225
O41   O     O_R   0.559380 0.573440 0.013240 -0.516304
O42   O     O_R   0.559380 0.426560 0.013240 -0.514225
O43   O     O_R   0.440620 0.573440 0.986760 -0.516307
O44   O     O_R   0.755040 0.369590 0.478480 -0.507418
O45   O     O_R   0.244960 0.630410 0.521520 -0.508070
O46   O     O_R   0.244960 0.369590 0.521520 -0.507418
O47   O     O_R   0.755040 0.630410 0.478480 -0.508069
O48   O     O_R   0.182050 0.796550 0.624440 -0.506491

loop_
_geom_bond_atom_site_label_1
_geom_bond_atom_site_label_2
_ccdc_geom_bond_type
Cu1   O1    S    
C28   C47   A    
C70   C140  S    
C153  O23   A    
C36   C42   A    
Cu2   O32   S    
C74   C83   A    
C56   H50   S    
C93   H22   S    
C72   C142  S    
C154  O36   A    
C13   C18   A    
C99   C143  A    
C16   C35   A    
C69   O5    A    
C69   C123  S    
C37   C42   A    
C67   C138  S    
Cu11  O8    S    
C131  C140  A    
C134  C143  A    
C40   H12   S    
Cu7   O21   S    
C10   C20   A    
C102  O2    A    
C117  C126  A    
C62   N6    S    
C119  C128  A    
C24   C51   A    
C100  C109  A    
C8    C16   A    
C60   H64   S    
C91   O7    A    
C55   C65   A    
C109  C118  A    
C66   C89   A    
C3    O28   A    
C115  C123  A    
C59   N3    S    
C127  C136  A    
C117  H38   S    
C100  C144  A    
C150  O12   A    
C30   C149  S    
C101  C110  A    
C134  H47   S    
C29   C45   A    
C7    O32   A    
C6    C106  S    
Cu8   O22   S    
C102  O14   A    
C59   H60   S    
C3    O39   A    
C72   C84   A    
C53   H2    S    
C64   H82   S    
C49   H56   S    
C20   C146  A    
Cu7   O13   S    
C61   H70   S    
C129  H41   S    
C24   H8    S    
C55   H4    S    
C56   H52   S    
Cu7   O34   S    
C21   C30   A    
C34   C153  S    
C3    C103  S    
C68   C77   A    
C13   H7    S    
C14   C57   A    
C90   N4    S    
C48   H45   S    
C2    C19   A    
C60   H65   S    
C25   C55   A    
Cu10  O25   S    
C58   H55   S    
Cu5   O10   S    
C63   H79   S    
C95   C139  A    
C106  C115  A    
C97   H27   S    
C9    C15   A    
C39   H1    S    
C46   C53   A    
C68   C92   A    
C58   N2    S    
Cu3   O27   S    
C92   N3    S    
C126  C134  A    
C124  O4    A    
C4    O40   A    
C85   N5    S    
C5    O41   A    
C76   C85   A    
Cu2   O42   S    
C7    O43   A    
C78   C87   A    
C11   C18   A    
C123  C132  A    
C60   H63   S    
C121  C130  A    
C25   C43   A    
C71   C79   A    
C32   C147  S    
Cu6   O23   S    
C99   C108  A    
C133  C142  A    
Cu8   O44   S    
Cu11  O26   S    
C75   C84   A    
C1    O9    A    
C60   N4    S    
C26   C45   A    
C69   O10   A    
C29   C38   A    
Cu11  O47   S    
Cu11  O17   S    
C71   C141  S    
C113  C119  S    
C98   C142  A    
Cu9   O24   S    
Cu3   O39   S    
C148  O47   A    
Cu5   O12   S    
C63   H77   S    
Cu6   O11   S    
C41   H23   S    
C120  C129  A    
C4    O33   A    
C38   C41   A    
Cu1   Cu9   S    
C104  C112  A    
C93   C101  A    
C36   C152  S    
C82   H20   S    
Cu4   O37   S    
C63   N7    S    
C111  H32   S    
C8    C12   A    
Cu1   O9    S    
C10   C45   A    
C98   H28   S    
C52   H84   S    
C86   N8    S    
H58   N3    S    
C105  C155  S    
Cu9   O6    S    
C131  H43   S    
C7    C107  S    
C42   H34   S    
C118  C127  A    
C122  C124  S    
C59   H61   S    
C122  C131  A    
C153  O26   A    
C62   H73   S    
C29   C51   A    
C27   C47   A    
C132  C141  A    
Cu12  O35   S    
C149  O21   A    
C80   O8    A    
C108  C117  A    
Cu2   O33   S    
C110  C119  A    
C96   C140  A    
Cu9   O45   S    
C154  O29   A    
C116  C125  A    
C118  H39   S    
Cu3   O30   S    
C112  C121  A    
C151  O24   A    
C28   C37   A    
C63   H76   S    
C30   C39   A    
C107  C116  A    
C13   C50   A    
C15   C46   A    
C75   H14   S    
C156  O27   A    
C27   C49   A    
C25   C33   A    
C54   C57   A    
C35   H9    S    
C96   C105  A    
C79   H18   S    
C11   C47   A    
C8    C43   A    
C61   N5    S    
C113  O15   A    
Cu2   Cu12  S    
C4    C108  S    
C11   C19   A    
C67   C88   A    
C133  H46   S    
Cu8   O14   S    
H62   N4    S    
C145  O45   A    
Cu12  O40   S    
C113  O48   A    
C62   H72   S    
C31   C40   A    
C103  C111  A    
C73   C87   A    
C6    O42   A    
H80   N8    S    
C1    O6    A    
Cu7   O4    S    
Cu10  O7    S    
C76   H15   S    
C59   H59   S    
C72   C81   A    
C26   C48   A    
C81   C89   A    
C96   H26   S    
C34   C41   A    
C112  H33   S    
C130  C139  A    
C79   C88   A    
Cu7   Cu10  S    
Cu3   O36   S    
Cu5   O19   S    
C57   H11   S    
Cu6   O20   S    
C152  O25   A    
C88   N2    S    
C101  C156  S    
C98   C107  A    
C148  O20   A    
C9    C14   A    
Cu3   Cu4   S    
C12   C15   A    
C115  H36   S    
C78   H17   S    
H75   N7    S    
C97   C141  A    
C58   H57   S    
C97   C106  A    
C149  O46   A    
C94   C103  A    
C155  O30   A    
C94   C138  A    
C87   N7    S    
C73   C82   A    
Cu5   Cu8   S    
C102  C120  S    
C6    O31   A    
C73   C143  S    
C156  O38   A    
C74   C144  S    
C147  O44   A    
C135  O17   A    
C83   H21   S    
C100  H30   S    
C27   C36   A    
C12   C65   A    
C155  O37   A    
C82   C90   A    
C80   O11   A    
C23   C32   A    
C136  C144  A    
C5    C109  S    
C66   C75   A    
C151  O1    A    
C64   H81   S    
Cu12  O31   S    
C35   C52   A    
C68   C139  S    
C104  C154  S    
C56   H51   S    
H66   N5    S    
C135  O3    A    
Cu10  O46   S    
C91   C126  S    
C70   C78   A    
C46   H10   S    
H71   N6    S    
C145  O18   A    
C132  H44   S    
Cu4   O29   S    
C58   H54   S    
C65   H13   S    
C83   C92   A    
C33   C39   A    
C84   N6    S    
C1    C125  S    
C5    O35   A    
C10   C17   A    
C146  H5    S    
C77   H16   S    
C150  O22   A    
Cu4   O38   S    
Cu1   O18   S    
C71   C85   A    
C28   C50   A    
Cu5   O2    S    
C26   C34   A    
C22   C44   A    
C129  C138  A    
Cu1   O48   S    
C48   C146  A    
Cu12  O43   S    
Cu2   O41   S    
C116  H37   S    
C95   H25   S    
C21   C43   A    
C56   N1    S    
C70   C90   A    
C37   C151  S    
C62   H74   S    
C22   C53   A    
C17   C24   A    
C22   C31   A    
C105  C114  A    
C91   O13   A    
C51   H78   S    
C128  H40   S    
H49   N1    S    
Cu9   O15   S    
C111  C120  A    
Cu4   O28   S    
C152  O34   A    
C128  C137  A    
C2    C49   A    
C64   H83   S    
Cu10  O16   S    
C99   H29   S    
C74   C86   A    
C33   C145  S    
C77   C86   A    
C14   C16   A    
C130  H42   S    
C31   C148  S    
C95   C104  A    
C23   C54   A    
C125  C133  A    
H53   N2    S    
C9    C44   A    
C110  H31   S    
C54   H3    S    
C147  O19   A    
C80   C127  S    
Cu8   O5    S    
C61   H69   S    
C2    H6    S    
C124  O16   A    
C66   C137  S    
Cu6   O3    S    
C17   C19   A    
C38   C150  S    
C18   C20   A    
C32   C40   A    
C50   H67   S    
C94   H24   S    
C93   C137  A    
Cu6   Cu11  S    
C114  C122  A    
C121  C135  S    
C61   H68   S    
C114  H35   S    
C89   N1    S    
C67   C76   A    
C136  H48   S    
C81   H19   S    
C21   C52   A    
C64   N8    S    
C23   C44   A    
