data_mof_unit_26732.cif
_audit_creation_date              2012-12-10T17:03:43-0500
_audit_creation_method            fapswitch 2.2
_symmetry_space_group_name_H-M    P1
_symmetry_Int_Tables_number       1
_space_group_crystal_system       triclinic
_cell_length_a                    10.041827
_cell_length_b                    10.681952
_cell_length_c                    13.203622
_cell_angle_alpha                 90.353201
_cell_angle_beta                  72.547614
_cell_angle_gamma                 90.325291
_cell_volume                      1351.06990681

loop_
_atom_site_label
_atom_site_type_symbol
_atom_type_description
_atom_site_fract_x
_atom_site_fract_y
_atom_site_fract_z
_atom_type_partial_charge
C1    C     C_R   0.497861 0.737603 0.507824 0.911748
C2    C     C_R   0.392524 0.564334 0.811096 -0.106801
C3    C     C_2   0.566692 0.073370 0.562936 -0.144481
C4    C     C_R   0.426861 0.519948 0.700722 0.859798
C5    C     C_2   0.500528 0.130036 0.502078 -0.381584
C6    C     C_2   0.588902 0.938415 0.555354 0.200487
C7    C     C_2   0.488210 0.868915 0.532775 -0.417772
C8    C     C_2   0.098269 0.426900 0.439773 -0.092239
C9    C     C_2   0.946674 0.422401 0.443948 -0.131847
C10   C     C_R   0.499642 0.262533 0.500233 0.947499
C11   C     C_R   0.575151 0.493409 0.297222 0.920588
C12   C     C_R   0.455050 0.561232 0.974145 0.085650
C13   C     C_R   0.797126 0.471030 0.013414 0.177978
C14   C     C_R   0.617462 0.484802 0.182260 -0.145092
C15   C     C_R   0.256449 0.599441 0.866645 -0.196701
C16   C     C_R   0.220190 0.620823 0.975848 -0.162425
C17   C     C_R   0.316971 0.597231 0.030289 -0.169245
C18   C     C_3   0.723388 0.883604 0.568062 -0.338244
C19   C     C_3   0.818140 0.976010 0.603136 -0.921901
C20   C     C_3   0.937276 0.418101 0.949519 -0.305802
C21   C     C_3   0.002015 0.324079 0.007994 -0.924184
C22   C     C_R   0.496431 0.569686 0.863633 0.059594
C23   C     C_R   0.555221 0.522029 0.023187 -0.147232
C24   C     C_R   0.699639 0.516293 0.963644 0.006770
C25   C     C_R   0.741612 0.560096 0.858431 0.415947
C26   C     C_R   0.639336 0.587821 0.810325 -0.280999
C27   C     C_R   0.515956 0.484745 0.129556 0.400191
C28   C     C_R   0.757720 0.471908 0.124272 -0.305667
H1    H     H_    0.834343 0.457279 0.165649 0.193085
H2    H     H_    0.115550 0.650536 0.018995 0.154057
H3    H     H_    0.672936 0.628633 0.732218 0.156802
H4    H     H_    0.612189 0.128968 0.613403 0.178342
H5    H     H_    0.851976 0.052934 0.544642 0.269479
H6    H     H_    0.763599 0.014949 0.682914 0.263321
H7    H     H_    0.912796 0.926373 0.608234 0.254782
H8    H     H_    0.695682 0.808474 0.628479 0.203435
H9    H     H_    0.786139 0.843166 0.490881 0.226324
H10   H     H_    0.891409 0.612301 0.733101 0.318617
H11   H     H_    0.040429 0.372035 0.068740 0.258687
H12   H     H_    0.454092 0.080937 0.448774 0.147230
H13   H     H_    0.924954 0.250401 0.045850 0.270182
H14   H     H_    0.093052 0.278618 0.950384 0.262995
H15   H     H_    0.924867 0.368784 0.878468 0.231491
H16   H     H_    0.009919 0.496269 0.922861 0.242328
H17   H     H_    0.347782 0.395862 0.128408 0.328570
H18   H     H_    0.388397 0.910280 0.535990 0.153242
H19   H     H_    0.169132 0.364073 0.384550 0.184660
H20   H     H_    0.080883 0.553963 0.554817 0.160817
H21   H     H_    0.915562 0.351410 0.396356 0.159344
H22   H     H_    0.882476 0.570032 0.539702 0.146844
H23   H     H_    0.179921 0.612023 0.824817 0.178163
H24   H     H_    0.284062 0.611602 0.115281 0.186840
N1    N     N_2   0.148270 0.498670 0.498870 -0.188080
N2    N     N_2   0.852610 0.498640 0.498840 -0.193074
O1    O     O_R   0.386950 0.680940 0.500020 -0.612977
O2    O     O_3   0.383766 0.439878 0.181253 -0.779508
O3    O     O_R   0.613110 0.680900 0.499980 -0.634064
O4    O     O_R   0.330780 0.500000 0.653640 -0.606245
O5    O     O_R   0.556930 0.499960 0.653610 -0.622934
O6    O     O_R   0.386890 0.319100 0.500020 -0.605721
O7    O     O_R   0.613050 0.319060 0.499980 -0.606586
O8    O     O_R   0.443070 0.500040 0.346390 -0.543056
O9    O     O_R   0.669220 0.500000 0.346360 -0.628525
O10   O     O_3   0.881145 0.580900 0.805560 -0.819671
Zn1   Zn    Zn3+2 0.349000 0.500030 0.500020 0.974499
Zn2   Zn    Zn3+2 0.651000 0.499970 0.499980 0.922268

loop_
_geom_bond_atom_site_label_1
_geom_bond_atom_site_label_2
_ccdc_geom_bond_type
C8    N1    D    
C2    C22   A    
C3    H4    S    
C10   O6    A    
C23   C24   A    
C19   H6    S    
C13   C28   A    
C6    C7    D    
N2    Zn2   S    
C23   C27   A    
C14   C27   A    
N1    Zn1   S    
O4    Zn1   S    
C2    C4    S    
C21   H11   S    
O3    Zn2   S    
C3    C6    S    
C14   C28   A    
C11   O8    A    
C1    O1    A    
C8    H19   S    
C26   H3    S    
C19   H7    S    
C1    O3    A    
C24   C25   A    
C12   C17   A    
C2    C15   A    
C12   C23   A    
H22   N2    S    
C21   H13   S    
C17   H24   S    
C28   H1    S    
O1    Zn1   S    
C18   H9    S    
O6    Zn1   S    
C15   H23   S    
O5    Zn2   S    
C22   C26   A    
H20   N1    S    
C6    C18   S    
C11   C14   S    
O9    Zn2   S    
C10   O7    A    
C16   H2    S    
C15   C16   A    
C7    H18   S    
C12   C22   A    
C5    C10   S    
C20   H15   S    
C9    H21   S    
C20   C21   S    
C4    O5    A    
C18   C19   S    
C19   H5    S    
C5    H12   S    
C4    O4    A    
H10   O10   S    
H17   O2    S    
C27   O2    S    
C16   C17   A    
C9    N2    D    
O8    Zn1   S    
C20   H16   S    
C25   C26   A    
C1    C7    S    
C11   O9    A    
C18   H8    S    
O7    Zn2   S    
C13   C20   S    
C21   H14   S    
C13   C24   A    
C8    C9    S    
C3    C5    D    
C25   O10   S    
