data_mof_unit_42407.cif
_audit_creation_date              2012-12-11T15:46:50-0500
_audit_creation_method            fapswitch 2.2
_symmetry_space_group_name_H-M    P1
_symmetry_Int_Tables_number       1
_space_group_crystal_system       triclinic
_cell_length_a                    11.538128
_cell_length_b                    11.527909
_cell_length_c                    19.560359
_cell_angle_alpha                 90.46019
_cell_angle_beta                  90.0601
_cell_angle_gamma                 59.949138
_cell_volume                      2251.92520669

loop_
_atom_site_label
_atom_site_type_symbol
_atom_type_description
_atom_site_fract_x
_atom_site_fract_y
_atom_site_fract_z
_atom_type_partial_charge
C1    C     C_R   0.640466 0.117343 0.599284 0.546512
C2    C     C_1   0.652980 0.149642 0.668663 0.003416
C3    C     C_R   0.649527 0.691283 0.187051 0.018151
C4    C     C_R   0.612505 0.745957 0.598658 0.545907
C5    C     C_R   0.530291 0.724054 0.221470 0.029880
C6    C     C_R   0.525166 0.734005 0.291027 0.043612
C7    C     C_R   0.744374 0.710404 0.294013 -0.161405
C8    C     C_R   0.750586 0.700376 0.222715 -0.164994
C9    C     C_3   0.444074 0.659948 0.222065 -0.268689
C10   C     C_3   0.440860 0.670616 0.299005 -0.276458
C11   C     C_R   0.635431 0.714980 0.328795 0.018728
C12   C     C_1   0.641283 0.703901 0.668026 0.003851
C13   C     C_R   0.160621 0.188345 0.187477 0.015830
C14   C     C_R   0.192257 0.273194 0.223884 0.026165
C15   C     C_R   0.216953 0.256116 0.292544 0.044079
C16   C     C_R   0.240980 0.145288 0.598213 0.546530
C17   C     C_R   0.203162 0.054856 0.290178 -0.162539
C18   C     C_R   0.179310 0.071011 0.219577 -0.161762
C19   C     C_3   0.119763 0.422749 0.231113 -0.272388
C20   C     C_3   0.148176 0.403180 0.306929 -0.273032
C21   C     C_R   0.211495 0.154316 0.328165 0.016042
C22   C     C_R   0.667408 0.176585 0.190134 0.016236
C23   C     C_1   0.126707 0.198781 0.859278 0.003893
C24   C     C_R   0.754208 0.053496 0.221111 0.031902
C25   C     C_R   0.746727 0.036199 0.289792 0.037677
C26   C     C_R   0.551440 0.255474 0.298566 -0.156911
C27   C     C_R   0.557669 0.273045 0.228111 -0.165566
C28   C     C_R   0.643135 0.111184 0.401502 0.544045
C29   C     C_3   0.904301 0.970163 0.222172 -0.266548
C30   C     C_3   0.894518 0.951843 0.297958 -0.277880
C31   C     C_R   0.653850 0.140242 0.330730 0.016928
C32   C     C_R   0.081811 0.231133 0.928576 0.546791
C33   C     C_R   0.683919 0.604443 0.929485 0.545288
C34   C     C_1   0.171542 0.170238 0.727725 -0.030779
C35   C     C_R   0.708383 0.206668 0.930111 0.546746
C36   C     C_R   0.085584 0.234600 0.124362 0.545476
C37   C     C_R   0.680649 0.615825 0.124017 0.546373
C38   C     C_R   0.707436 0.209799 0.126206 0.545920
C39   C     C_R   0.614567 0.743632 0.400836 0.542833
C40   C     C_R   0.248649 0.138559 0.399829 0.543779
C41   C     C_1   0.670397 0.646463 0.860113 0.004591
C42   C     C_1   0.654805 0.683684 0.728448 -0.031125
C43   C     C_1   0.663463 0.666667 0.799689 -0.030959
C44   C     C_1   0.150164 0.182263 0.798940 -0.030693
C45   C     C_1   0.195327 0.160862 0.667408 0.003402
C46   C     C_1   0.678597 0.191301 0.860756 0.004034
C47   C     C_1   0.658550 0.167203 0.729040 -0.030804
C48   C     C_1   0.665683 0.180918 0.800330 -0.030566
Cr1   Cr    Cr6+3 0.404720 0.198220 0.499960 1.024539
Cr2   Cr    Cr6+3 0.698290 0.897110 0.500380 1.025821
Cr3   Cr    Cr6+3 0.396970 0.904720 0.499610 1.025545
Cr4   Cr    Cr6+3 0.926290 0.152010 0.028150 1.021918
Cr5   Cr    Cr6+3 0.921440 0.451830 0.027490 1.023821
Cr6   Cr    Cr6+3 0.626370 0.446880 0.028730 1.022252
H1    H     H_    0.826204 0.709126 0.321720 0.127212
H2    H     H_    0.937600 0.000852 0.330149 0.136658
H3    H     H_    0.839741 0.685809 0.196733 0.122632
H4    H     H_    0.496685 0.554035 0.204760 0.165268
H5    H     H_    0.344680 0.724535 0.198220 0.127859
H6    H     H_    0.339797 0.740251 0.319914 0.137110
H7    H     H_    0.494891 0.571682 0.324676 0.134366
H8    H     H_    0.209143 0.968859 0.315191 0.123231
H9    H     H_    0.164866 0.997872 0.191651 0.120761
H10   H     H_    0.011514 0.469189 0.219538 0.157511
H11   H     H_    0.172919 0.468133 0.205052 0.132315
H12   H     H_    0.218730 0.436195 0.324607 0.136549
H13   H     H_    0.056423 0.438991 0.338725 0.136531
H14   H     H_    0.469429 0.333287 0.327891 0.127397
H15   H     H_    0.482856 0.365037 0.204810 0.117219
H16   H     H_    0.953805 0.029297 0.211315 0.159576
H17   H     H_    0.942294 0.875598 0.192185 0.131216
H18   H     H_    0.926282 0.846874 0.311767 0.134966
O1    O     O_R   0.267750 0.231960 0.575440 -0.505164
O2    O     O_R   0.596230 0.579400 0.952760 -0.505045
O3    O     O_R   0.639160 0.321170 0.958690 -0.493291
O4    O     O_R   0.527290 0.186640 0.570530 -0.494224
O5    O     O_R   0.821370 0.124220 0.104400 -0.522258
O6    O     O_R   0.037020 0.167050 0.097880 -0.510169
O7    O     O_R   0.056310 0.349620 0.102920 -0.518627
O8    O     O_R   0.797790 0.564880 0.097980 -0.508859
O9    O     O_R   0.596000 0.584270 0.104310 -0.524832
O10   O     O_R   0.638950 0.325690 0.099180 -0.507891
O11   O     O_3   0.824700 0.350240 0.028120 -0.250777
O12   O     O_R   0.685950 0.784660 0.430010 -0.507679
O13   O     O_R   0.728110 0.003450 0.576380 -0.504880
O14   O     O_R   0.682980 0.789190 0.570500 -0.493820
O15   O     O_R   0.499300 0.771880 0.575540 -0.504802
O16   O     O_R   0.285350 0.030870 0.569740 -0.493413
O17   O     O_R   0.270960 0.227070 0.423890 -0.518276
O18   O     O_R   0.530270 0.182120 0.430040 -0.508158
O19   O     O_R   0.731320 0.998570 0.424830 -0.515823
O20   O     O_R   0.502510 0.767000 0.423980 -0.517995
O21   O     O_R   0.288320 0.026340 0.429250 -0.505549
O22   O     O_3   0.499990 0.000020 0.499980 -0.254263
O23   O     O_R   0.821590 0.119350 0.952850 -0.505002
O24   O     O_R   0.037230 0.162540 0.957390 -0.494245
O25   O     O_R   0.056530 0.344750 0.951370 -0.504508
O26   O     O_R   0.798000 0.560370 0.957490 -0.494246

loop_
_geom_bond_atom_site_label_1
_geom_bond_atom_site_label_2
_ccdc_geom_bond_type
C25   C31   A    
C20   H13   S    
C19   C20   S    
C7    H1    S    
C40   O21   A    
Cr2   O12   S    
C7    C8    A    
C4    O15   A    
C7    C11   A    
C35   O3    A    
C26   C27   A    
C13   C18   A    
C20   H12   S    
Cr5   O7    S    
C39   O12   A    
C9    H4    S    
C5    C6    A    
C17   H8    S    
Cr5   O26   S    
C18   H9    S    
C4    O14   A    
C22   C38   S    
C32   O25   A    
Cr4   O23   S    
C1    C2    S    
C24   C29   S    
C12   C42   T    
Cr2   O13   S    
Cr6   O2    S    
C33   O26   A    
Cr4   O24   S    
Cr1   O22   S    
C4    C12   S    
C9    C10   S    
Cr1   O18   S    
C27   H15   S    
C26   C31   A    
C13   C14   A    
C38   O10   A    
C41   C43   T    
C37   O9    A    
Cr4   O6    S    
Cr6   O11   S    
C1    O13   A    
C15   C20   S    
C37   O8    A    
C46   C48   T    
C16   O1    A    
Cr5   O8    S    
C34   C44   S    
C24   C25   A    
C13   C36   S    
C3    C8    A    
Cr3   O15   S    
C6    C11   A    
Cr2   O22   S    
Cr5   O25   S    
C30   H2    S    
C17   C21   A    
C23   C44   T    
C9    H5    S    
Cr3   O16   S    
Cr4   O11   S    
C10   H6    S    
C5    C9    S    
C29   C30   S    
Cr3   O20   S    
C33   O2    A    
C47   C48   S    
C19   H10   S    
C17   C18   A    
Cr1   O4    S    
C34   C45   T    
C11   C39   S    
Cr3   O21   S    
C32   O24   A    
C22   C27   A    
C40   O17   A    
Cr1   O1    S    
C10   H7    S    
C42   C43   S    
Cr4   O5    S    
C39   O20   A    
Cr6   O10   S    
C29   H16   S    
C25   C30   S    
C1    O4    A    
C14   C19   S    
C28   C31   S    
Cr1   O17   S    
C3    C5    A    
C36   O7    A    
C16   C45   S    
C6    C10   S    
C30   H18   S    
C38   O5    A    
C35   O23   A    
C2    C47   T    
Cr5   O11   S    
C33   C41   S    
C23   C32   S    
C26   H14   S    
C36   O6    A    
C21   C40   S    
C19   H11   S    
C28   O19   A    
C22   C24   A    
Cr6   O9    S    
Cr2   O14   S    
Cr3   O22   S    
Cr6   O3    S    
Cr2   O19   S    
C15   C21   A    
C3    C37   S    
C16   O16   A    
C14   C15   A    
C28   O18   A    
C35   C46   S    
C8    H3    S    
C29   H17   S    
