data_mof_unit_38260.cif
_audit_creation_date              2012-12-11T16:51:03-0500
_audit_creation_method            fapswitch 2.2
_symmetry_space_group_name_H-M    P1
_symmetry_Int_Tables_number       1
_space_group_crystal_system       triclinic
_cell_length_a                    6.920837
_cell_length_b                    28.825311
_cell_length_c                    32.15318
_cell_angle_alpha                 100.853742
_cell_angle_beta                  89.825688
_cell_angle_gamma                 90.367901
_cell_volume                      6299.51981389

loop_
_atom_site_label
_atom_site_type_symbol
_atom_type_description
_atom_site_fract_x
_atom_site_fract_y
_atom_site_fract_z
_atom_type_partial_charge
O1    O     O_R   0.494350 0.453170 0.452520 -0.543821
O2    O     O_R   0.820980 0.455850 0.538220 -0.506960
O3    O     O_R   0.994300 0.546830 0.547480 -0.531643
C1    C     C_R   0.652305 0.446447 0.552405 0.775703
O4    O     O_R   0.823860 0.447590 0.452270 -0.546850
O5    O     O_R   0.997200 0.538510 0.460920 -0.543656
C2    C     C_R   0.654749 0.434699 0.436548 0.675574
O6    O     O_R   0.491440 0.461490 0.539080 -0.531495
O7    O     O_3   0.661790 0.529840 0.502940 -0.377560
V1    V     V_3+5 0.935470 0.494460 0.499450 1.476474
O8    O     O_R   0.327090 0.544150 0.461780 -0.545386
C3    C     C_R   0.158660 0.554274 0.448282 0.686535
O9    O     O_R   0.324210 0.552410 0.547730 -0.544686
C4    C     C_R   0.155271 0.565280 0.563424 0.740074
V2    V     V_3+5 0.435840 0.505540 0.500550 1.439521
O10   O     O_3   0.159650 0.470160 0.497060 -0.357253
C5    C     C_R   0.226045 0.877597 0.883382 -0.153036
H1    H     H_    0.358769 0.890696 0.899247 0.121711
C6    C     C_R   0.237499 0.841846 0.847401 -0.135888
H2    H     H_    0.378331 0.828134 0.836961 0.100788
C7    C     C_R   0.069522 0.823566 0.825588 0.095213
C8    C     C_R   0.889446 0.841839 0.841015 -0.133473
H3    H     H_    0.757242 0.829132 0.824728 0.099968
C9    C     C_R   0.877875 0.877524 0.877147 -0.153940
H4    H     H_    0.736982 0.890970 0.887864 0.118076
C10   C     C_R   0.046158 0.896003 0.898743 -0.054818
C11   C     C_R   0.944006 0.749237 0.778963 -0.146255
H5    H     H_    0.827161 0.747596 0.801113 0.115545
C12   C     C_R   0.956768 0.713723 0.742777 -0.139980
H6    H     H_    0.849267 0.685785 0.738134 0.119145
C13   C     C_R   0.108348 0.713714 0.713479 0.080267
C14   C     C_R   0.246898 0.750221 0.721438 -0.147038
H7    H     H_    0.363719 0.751873 0.699285 0.112855
C15   C     C_R   0.234147 0.785730 0.757625 -0.144297
H8    H     H_    0.341637 0.813672 0.762267 0.113689
C16   C     C_R   0.082546 0.785745 0.786917 0.079423
C17   C     C_R   0.301339 0.657717 0.659280 -0.127268
H9    H     H_    0.433585 0.670399 0.675560 0.101212
C18   C     C_R   0.312862 0.622142 0.623066 -0.142815
H10   H     H_    0.453752 0.608750 0.612287 0.119762
C19   C     C_R   0.144547 0.603718 0.601455 -0.053922
C20   C     C_R   0.964656 0.622019 0.616916 -0.134639
H11   H     H_    0.831897 0.608931 0.601060 0.119992
C21   C     C_R   0.953248 0.657665 0.652976 -0.132219
H12   H     H_    0.812413 0.671323 0.663475 0.099101
C22   C     C_R   0.121278 0.675932 0.674777 0.093311
C23   C     C_R   0.266216 0.675648 0.295984 0.576797
N1    N     N_R   0.122108 0.677077 0.325756 -0.554668
C24   C     C_R   0.968060 0.707095 0.326170 0.583900
C25   C     C_R   0.953411 0.736343 0.295779 -0.026527
C26   C     C_R   0.100996 0.735404 0.265422 -0.020314
C27   C     C_R   0.259487 0.705079 0.265608 -0.030286
C28   C     C_R   0.795172 0.766586 0.295141 -0.142254
C29   C     C_R   0.784398 0.795629 0.264957 -0.144813
C30   C     C_R   0.931532 0.795178 0.234608 -0.033082
C31   C     C_R   0.090028 0.764854 0.234796 -0.020579
C32   C     C_R   0.237607 0.763913 0.204437 -0.024678
C33   C     C_R   0.395854 0.733673 0.205077 -0.144282
C34   C     C_R   0.406629 0.704630 0.235262 -0.149439
C35   C     C_R   0.924780 0.824599 0.204225 0.584214
N2    N     N_R   0.068866 0.823163 0.174448 -0.555090
C36   C     C_R   0.222934 0.793152 0.174040 0.582546
O11   O     O_2   0.414534 0.645354 0.295243 -0.527495
O12   O     O_2   0.830138 0.709180 0.356202 -0.529123
H13   H     H_    0.678706 0.767855 0.317900 0.169938
H14   H     H_    0.660044 0.818353 0.265456 0.173044
O13   O     O_2   0.776453 0.854890 0.204962 -0.521637
O14   O     O_2   0.360844 0.791063 0.144006 -0.529985
H15   H     H_    0.512319 0.732403 0.182319 0.169007
H16   H     H_    0.530983 0.681906 0.234762 0.170864
C37   C     C_R   0.213760 0.884380 0.138794 -0.079620
H17   H     H_    0.340588 0.885606 0.158622 0.159786
C38   C     C_R   0.205712 0.913696 0.108718 -0.194039
H18   H     H_    0.327408 0.936742 0.105948 0.137606
C39   C     C_R   0.041176 0.913954 0.083154 -0.059587
C40   C     C_R   0.885666 0.883775 0.088142 -0.203294
H19   H     H_    0.757195 0.882947 0.068860 0.138622
C41   C     C_R   0.895539 0.853705 0.117627 -0.084258
H20   H     H_    0.775361 0.830190 0.120274 0.163976
C42   C     C_R   0.059313 0.853823 0.143479 0.352843
C43   C     C_R   0.977080 0.615835 0.361360 -0.089571
H21   H     H_    0.850260 0.614642 0.341533 0.156778
C44   C     C_R   0.985073 0.586475 0.391401 -0.205986
H22   H     H_    0.863339 0.563433 0.394147 0.132353
C45   C     C_R   0.149609 0.586165 0.416955 -0.053747
C46   C     C_R   0.305157 0.616347 0.412001 -0.207681
H23   H     H_    0.433623 0.617140 0.431279 0.137934
C47   C     C_R   0.295338 0.646462 0.382552 -0.085565
H24   H     H_    0.415553 0.669975 0.379928 0.164820
C48   C     C_R   0.131579 0.646387 0.356703 0.354616
C49   C     C_R   0.606238 0.223755 0.838494 0.573437
N3    N     N_R   0.571701 0.176343 0.825387 -0.561003
C50   C     C_R   0.541824 0.157532 0.783412 0.572716
C51   C     C_R   0.546529 0.186648 0.752758 -0.029426
C52   C     C_R   0.581120 0.235418 0.765782 -0.015027
C53   C     C_R   0.610991 0.254259 0.808996 -0.029766
C54   C     C_R   0.517784 0.168221 0.709510 -0.139648
C55   C     C_R   0.523998 0.197763 0.679639 -0.137817
C56   C     C_R   0.558201 0.246531 0.692267 -0.030523
C57   C     C_R   0.586073 0.265411 0.735520 -0.017082
C58   C     C_R   0.619274 0.314203 0.748578 -0.036783
C59   C     C_R   0.647702 0.332656 0.791842 -0.135226
C60   C     C_R   0.644137 0.303045 0.821653 -0.139058
C61   C     C_R   0.567098 0.276895 0.662650 0.576545
N4    N     N_R   0.599672 0.324473 0.675749 -0.549161
C62   C     C_R   0.623653 0.343365 0.717977 0.591553
O15   O     O_2   0.634339 0.241420 0.879967 -0.518927
O16   O     O_2   0.508706 0.110770 0.771312 -0.519443
H25   H     H_    0.490923 0.130868 0.698559 0.172268
H26   H     H_    0.501893 0.182221 0.646610 0.173392
O17   O     O_2   0.546217 0.258791 0.621048 -0.521396
O18   O     O_2   0.650460 0.390324 0.730455 -0.507679
H27   H     H_    0.673641 0.370042 0.802827 0.174687
H28   H     H_    0.667231 0.318549 0.854657 0.172442
C63   C     C_R   0.782843 0.381124 0.641602 -0.121860
H29   H     H_    0.903106 0.378317 0.662457 0.165476
C64   C     C_R   0.797906 0.411383 0.612323 0.343471
C65   C     C_R   0.642545 0.415121 0.584441 -0.149963
C66   C     C_R   0.473368 0.388608 0.587787 -0.201330
H30   H     H_    0.351803 0.390518 0.567064 0.182633
C67   C     C_R   0.458778 0.359073 0.617646 -0.054065
H31   H     H_    0.326211 0.339487 0.619770 0.149791
C68   C     C_R   0.613722 0.354906 0.644731 0.296566
C69   C     C_R   0.386443 0.128182 0.867612 -0.088217
H32   H     H_    0.254286 0.137336 0.853207 0.116225
C70   C     C_R   0.378237 0.098756 0.897613 -0.195081
H33   H     H_    0.238658 0.085612 0.905562 0.128333
C71   C     C_R   0.548105 0.086142 0.916739 -0.057705
C72   C     C_R   0.726254 0.103990 0.905131 -0.197320
H34   H     H_    0.859780 0.095122 0.919176 0.130071
C73   C     C_R   0.733912 0.133736 0.875312 -0.087914
H35   H     H_    0.872118 0.147157 0.866833 0.115566
C74   C     C_R   0.564119 0.145906 0.856273 0.384849
C75   C     C_R   0.717139 0.108958 0.126491 -0.189824
H36   H     H_    0.838150 0.085384 0.117984 0.158405
C76   C     C_R   0.730673 0.144073 0.163028 0.408538
C77   C     C_R   0.575136 0.175256 0.175126 -0.003634
C78   C     C_R   0.406034 0.169349 0.150484 -0.146283
H37   H     H_    0.284771 0.192815 0.159009 0.160538
C79   C     C_R   0.392029 0.133597 0.114435 -0.123408
H38   H     H_    0.259645 0.130119 0.096206 0.141323
C80   C     C_R   0.548189 0.103224 0.101775 -0.127740
C81   C     C_R   0.441024 0.218013 0.244481 -0.119832
H39   H     H_    0.321088 0.193284 0.241194 0.178700
C82   C     C_R   0.451801 0.253690 0.280637 -0.149462
H40   H     H_    0.339967 0.255364 0.304479 0.124513
C83   C     C_R   0.607167 0.286071 0.286363 0.076140
C84   C     C_R   0.750152 0.282035 0.254666 -0.152961
H41   H     H_    0.869573 0.306867 0.257483 0.110629
C85   C     C_R   0.738955 0.246422 0.218501 -0.077452
H42   H     H_    0.849862 0.244603 0.194420 0.134099
C86   C     C_R   0.585649 0.213643 0.213263 0.112913
C87   C     C_R   0.798987 0.337438 0.344357 -0.128696
H43   H     H_    0.930550 0.319976 0.331819 0.105120
C88   C     C_R   0.810645 0.373139 0.380504 -0.158594
H44   H     H_    0.951114 0.382503 0.394438 0.119616
C89   C     C_R   0.643226 0.396285 0.398419 -0.051167
C90   C     C_R   0.463951 0.382674 0.379182 -0.151341
H45   H     H_    0.331888 0.399796 0.391842 0.119435
C91   C     C_R   0.452402 0.347070 0.343035 -0.139077
H46   H     H_    0.312270 0.338214 0.328751 0.100725
C92   C     C_R   0.619692 0.323947 0.325064 0.099003
O19   O     O_R   0.699170 0.038480 0.960880 -0.538964
O20   O     O_R   0.366800 0.052460 0.047690 -0.539904
O21   O     O_R   0.193520 0.961530 0.039110 -0.537782
C93   C     C_R   0.535922 0.065223 0.063455 0.720354
O22   O     O_R   0.369630 0.044100 0.961740 -0.542770
O23   O     O_R   0.196370 0.953120 0.952550 -0.539833
C94   C     C_R   0.538729 0.054244 0.948184 0.705721
O24   O     O_R   0.696320 0.046890 0.047450 -0.539145
O25   O     O_3   0.528890 0.970170 0.997080 -0.368715
V3    V     V_3+5 0.255190 0.005530 0.000540 1.414444
O26   O     O_R   0.866460 0.947530 0.952310 -0.543137
C95   C     C_R   0.035412 0.934591 0.936663 0.691743
O27   O     O_R   0.863630 0.955880 0.038270 -0.540844
C96   C     C_R   0.032079 0.945789 0.051780 0.712945
V4    V     V_3+5 0.754830 0.994440 0.999470 1.411507
O28   O     O_3   0.031000 0.029830 0.002920 -0.367511
Cl1   Cl    Cl    0.010583 0.445695 0.614020 -0.654836
Cl2   Cl    Cl    0.940303 0.145598 0.194203 -0.699189

loop_
_geom_bond_atom_site_label_1
_geom_bond_atom_site_label_2
_ccdc_geom_bond_type
O25   V3    S    
C70   H33   S    
C55   H26   S    
C88   C89   A    
C52   C53   A    
C38   H18   S    
N3    C74   S    
C1    O6    A    
C71   C72   A    
C82   H40   S    
C32   C36   A    
O22   C94   A    
C7    C16   S    
C62   O18   S    
C28   C29   A    
O21   C96   A    
O23   C95   A    
C58   C59   A    
C3    C45   S    
C5    C10   A    
C8    C9    A    
C6    C7    A    
C17   H9    S    
C40   C41   A    
C26   C31   A    
C50   O16   S    
C23   O11   S    
C46   C47   A    
C11   C12   A    
C10   C95   S    
N2    C42   S    
V2    O10   S    
C55   C56   A    
C31   C32   A    
N4    C68   S    
C5    H1    S    
C15   H8    S    
C19   C20   A    
C65   C66   A    
C37   C42   A    
C83   C84   A    
C43   C44   A    
C49   C53   A    
O8    V2    S    
C75   C80   A    
C89   C90   A    
C44   H22   S    
C35   O13   S    
C63   C64   A    
C13   C22   S    
O19   V4    S    
C77   C86   S    
O1    V2    S    
O9    C4    A    
C63   H29   S    
C87   C88   A    
C28   H13   S    
O7    V1    S    
C15   C16   A    
N2    C36   A    
O21   V3    S    
C56   C61   A    
C71   C94   S    
C87   H43   S    
C24   O12   S    
N1    C48   S    
C30   C35   A    
C90   C91   A    
C38   C39   A    
C1    C65   S    
C51   C52   A    
C20   C21   A    
O4    V1    S    
C61   N4    A    
C82   C83   A    
C21   C22   A    
C54   C55   A    
C40   H19   S    
C66   C67   A    
C25   C28   A    
C63   C68   A    
O24   V4    S    
C26   C27   A    
C49   O15   S    
C60   H28   S    
C79   H38   S    
O27   V4    S    
C49   N3    A    
O4    C2    A    
C52   C57   A    
C75   C76   A    
C51   C54   A    
C33   C34   A    
O26   C95   A    
C43   H21   S    
C35   N2    A    
C14   C15   A    
C23   C27   A    
O2    C1    A    
C39   C40   A    
C12   H6    S    
O27   C96   A    
C27   C34   A    
C80   C93   S    
C54   H25   S    
C23   N1    A    
O26   V4    S    
C66   H30   S    
C84   C85   A    
C30   C31   A    
C25   C26   A    
C67   H31   S    
C50   C51   A    
C9    H4    S    
C45   C46   A    
C75   H36   S    
O3    C4    A    
C78   C79   A    
C4    C19   S    
C29   H14   S    
C43   C48   A    
C69   C74   A    
N1    C24   A    
C44   C45   A    
C47   C48   A    
V4    O28   S    
O6    V2    S    
O9    V2    S    
C90   H45   S    
C85   C86   A    
O20   V3    S    
C20   H11   S    
C73   H35   S    
O2    V1    S    
C18   H10   S    
C21   H12   S    
C46   H23   S    
C69   C70   A    
C72   H34   S    
C77   C78   A    
V3    O28   S    
C58   C62   A    
C81   C82   A    
C29   C30   A    
C81   C86   A    
C70   C71   A    
C39   C96   S    
O1    C2    A    
C13   C14   A    
C8    H3    S    
C9    C10   A    
C76   C77   A    
C73   C74   A    
C83   C92   S    
O5    V1    S    
C61   O17   S    
O8    C3    A    
C33   H15   S    
C93   O24   A    
O22   V3    S    
C2    C89   S    
C11   C16   A    
N4    C62   A    
C76   Cl2   S    
C56   C57   A    
C36   O14   S    
C87   C92   A    
C91   H46   S    
C6    H2    S    
O20   C93   A    
O7    V2    S    
C37   H17   S    
C12   C13   A    
C59   H27   S    
V1    O10   S    
C64   C65   A    
C14   H7    S    
O5    C3    A    
C41   H20   S    
C32   C33   A    
C72   C73   A    
N3    C50   A    
C5    C6    A    
C41   C42   A    
C84   H41   S    
C59   C60   A    
O19   C94   A    
C67   C68   A    
C78   H37   S    
C34   H16   S    
C64   Cl1   S    
O23   V3    S    
C47   H24   S    
C18   C19   A    
C17   C18   A    
C24   C25   A    
C53   C60   A    
C37   C38   A    
C88   H44   S    
O3    V1    S    
C85   H42   S    
O25   V4    S    
C57   C58   A    
C79   C80   A    
C17   C22   A    
C7    C8    A    
C81   H39   S    
C91   C92   A    
C69   H32   S    
C11   H5    S    
