data_mof_unit_27574.cif
_audit_creation_date              2012-12-11T16:51:16-0500
_audit_creation_method            fapswitch 2.2
_symmetry_space_group_name_H-M    P1
_symmetry_Int_Tables_number       1
_space_group_crystal_system       triclinic
_cell_length_a                    24.586962
_cell_length_b                    17.091152
_cell_length_c                    15.999572
_cell_angle_alpha                 90.228093
_cell_angle_beta                  130.233817
_cell_angle_gamma                 90.204999
_cell_volume                      5132.48504626

loop_
_atom_site_label
_atom_site_type_symbol
_atom_type_description
_atom_site_fract_x
_atom_site_fract_y
_atom_site_fract_z
_atom_type_partial_charge
C1    C     C_R   0.850741 0.855647 0.245869 0.440148
C2    C     C_R   0.154526 0.862795 0.769497 0.515228
C3    C     C_R   0.350699 0.355673 0.245808 0.439094
C4    C     C_R   0.654644 0.362967 0.769669 0.519119
C5    C     C_R   0.907037 0.144548 0.588775 0.446962
C6    C     C_R   0.094598 0.143698 0.413445 0.424025
C7    C     C_R   0.407000 0.644482 0.588828 0.441763
C8    C     C_R   0.595078 0.643414 0.413676 0.422428
C9    C     C_R   0.863431 0.192479 0.497162 -0.220909
C10   C     C_R   0.142041 0.190346 0.508411 -0.204351
C11   C     C_R   0.363488 0.692471 0.497255 -0.221461
C12   C     C_R   0.643106 0.689706 0.508871 -0.196799
C13   C     C_R   0.849295 0.119753 0.132447 -0.221957
C14   C     C_R   0.148891 0.130147 0.862436 -0.218267
C15   C     C_R   0.349155 0.619547 0.132324 -0.227063
C16   C     C_R   0.648761 0.630630 0.862083 -0.218405
C17   C     C_R   0.777517 0.845329 0.598051 -0.181657
C18   C     C_R   0.218736 0.833862 0.396156 -0.262096
C19   C     C_R   0.278024 0.343246 0.597969 -0.204091
C20   C     C_R   0.718701 0.333889 0.396063 -0.258464
C21   C     C_R   0.754564 0.864055 0.495506 -0.022780
C22   C     C_R   0.242226 0.862436 0.496329 0.043629
C23   C     C_R   0.254990 0.361863 0.495336 -0.016124
C24   C     C_R   0.742191 0.362377 0.496282 0.045407
C25   C     C_R   0.680843 0.854446 0.405329 0.569112
C26   C     C_R   0.316838 0.866778 0.582989 0.488635
C27   C     C_R   0.180994 0.353673 0.405424 0.570955
C28   C     C_R   0.816799 0.366736 0.582927 0.488577
C29   C     C_R   0.137541 0.314686 0.422058 0.429393
C30   C     C_R   0.862408 0.321646 0.575546 0.456965
C31   C     C_R   0.637819 0.814209 0.421865 0.431241
C32   C     C_R   0.362450 0.821619 0.575676 0.456594
C33   C     C_R   0.170605 0.269905 0.518122 -0.082301
C34   C     C_R   0.831866 0.270561 0.484388 -0.000399
C35   C     C_R   0.671372 0.769389 0.518121 -0.087596
C36   C     C_R   0.331915 0.770545 0.484506 0.000091
C37   C     C_R   0.240666 0.290638 0.611135 -0.018656
C38   C     C_R   0.760749 0.283876 0.389782 -0.143929
C39   C     C_R   0.741090 0.791166 0.611260 -0.023944
C40   C     C_R   0.260794 0.783844 0.389918 -0.146842
C41   C     C_3   0.769197 0.833203 0.717359 0.523297
C42   C     C_3   0.228073 0.813984 0.276439 0.651273
C43   C     C_3   0.269655 0.332868 0.717518 0.516336
C44   C     C_3   0.728093 0.314127 0.276367 0.649490
C45   C     C_R   0.116185 0.898219 0.412540 -0.088042
C46   C     C_R   0.883237 0.893462 0.584571 -0.161247
C47   C     C_R   0.616177 0.398193 0.412537 -0.086071
C48   C     C_R   0.383553 0.392392 0.584500 -0.160091
C49   C     C_3   0.791951 0.901248 0.682582 0.586410
C50   C     C_3   0.197136 0.881067 0.299102 0.552003
C51   C     C_3   0.293994 0.399500 0.683314 0.635267
C52   C     C_3   0.697205 0.381199 0.299139 0.549731
C53   C     C_2   0.152161 0.749981 0.870922 0.461143
C54   C     C_2   0.854631 0.735307 0.153624 0.512137
C55   C     C_2   0.652133 0.249810 0.870450 0.459428
C56   C     C_2   0.354641 0.235230 0.153749 0.512899
C57   C     C_2   0.186586 0.695904 0.857874 0.280199
C58   C     C_2   0.810109 0.688100 0.153934 0.292086
C59   C     C_2   0.687125 0.196255 0.857791 0.279292
C60   C     C_2   0.310145 0.188049 0.154163 0.293546
C61   C     C_2   0.803963 0.159138 0.024958 0.433103
C62   C     C_2   0.195049 0.168030 0.971944 0.456907
C63   C     C_2   0.303625 0.658682 0.024632 0.444316
C64   C     C_2   0.694949 0.668317 0.971727 0.456576
C65   C     C_2   0.734925 0.139277 0.946961 0.332368
C66   C     C_2   0.258291 0.137297 0.056234 0.292646
C67   C     C_2   0.234466 0.639013 0.947158 0.333273
C68   C     C_2   0.758200 0.637501 0.055849 0.294364
C69   C     C_R   0.189271 0.896330 0.591658 0.570784
C70   C     C_R   0.808486 0.904332 0.405507 0.616629
C71   C     C_R   0.689253 0.396265 0.591646 0.578379
C72   C     C_R   0.308613 0.403748 0.405446 0.616586
C73   C     C_R   0.065158 0.865687 0.772638 0.274239
C74   C     C_R   0.938250 0.858272 0.238551 0.418716
C75   C     C_R   0.565164 0.365635 0.772573 0.272489
C76   C     C_R   0.438245 0.358217 0.238619 0.420297
C77   C     C_R   0.883108 0.810818 0.216658 -0.136935
C78   C     C_R   0.123455 0.821806 0.803897 -0.116180
C79   C     C_R   0.383083 0.310795 0.216683 -0.136029
C80   C     C_R   0.623540 0.321850 0.803901 -0.116643
C81   C     C_R   0.185933 0.882443 0.502680 -0.032422
C82   C     C_R   0.812044 0.883265 0.492036 0.063285
C83   C     C_R   0.685911 0.382379 0.502662 -0.028709
C84   C     C_R   0.312359 0.381852 0.491902 0.068296
C85   C     C_R   0.843617 0.147744 0.410463 0.471950
C86   C     C_R   0.163284 0.143054 0.594273 0.517933
C87   C     C_R   0.343704 0.647794 0.410526 0.473730
C88   C     C_R   0.664238 0.642334 0.594721 0.513121
C89   C     C_R   0.920352 0.101506 0.195535 0.551313
C90   C     C_R   0.078755 0.106996 0.802036 0.561263
C91   C     C_R   0.420246 0.601340 0.195397 0.551930
C92   C     C_R   0.578686 0.607195 0.801879 0.556712
C93   C     C_R   0.168410 0.106961 0.802804 -0.057280
C94   C     C_R   0.830474 0.098328 0.193238 0.013865
C95   C     C_R   0.668287 0.607631 0.802323 -0.057135
C96   C     C_R   0.330436 0.598247 0.193270 0.014200
H1    H     H_    0.098065 0.907820 0.333114 0.236757
H2    H     H_    0.903905 0.888670 0.666431 0.252609
H3    H     H_    0.598071 0.407781 0.333121 0.236059
H4    H     H_    0.404657 0.386474 0.666391 0.250505
H5    H     H_    0.222950 0.100672 0.836812 0.228319
H6    H     H_    0.776700 0.092413 0.163009 0.227671
H7    H     H_    0.722792 0.601932 0.836046 0.227022
H8    H     H_    0.276704 0.592326 0.163198 0.227941
N1    N     N_R   0.888400 0.921830 0.294620 -0.161879
N2    N     N_R   0.111600 0.921830 0.705380 -0.150309
N3    N     N_R   0.388400 0.421830 0.294620 -0.161973
N4    N     N_R   0.611600 0.421830 0.705380 -0.150579
N5    N     N_R   0.079940 0.922160 0.443410 -0.099355
N6    N     N_R   0.920060 0.922160 0.556590 -0.087630
N7    N     N_R   0.579940 0.422160 0.443410 -0.099471
N8    N     N_R   0.420060 0.422160 0.556590 -0.087607
N9    N     N_R   0.125650 0.922400 0.556620 -0.107140
N10   N     N_R   0.874350 0.922400 0.443380 -0.144948
N11   N     N_R   0.625650 0.422400 0.556620 -0.107678
N12   N     N_R   0.374350 0.422400 0.443380 -0.145456
N13   N     N_R   0.054230 0.922730 0.705400 -0.115766
N14   N     N_R   0.945770 0.922730 0.294600 -0.125406
N15   N     N_R   0.554230 0.422730 0.705400 -0.115628
N16   N     N_R   0.445770 0.422730 0.294600 -0.125541
N17   N     N_R   0.873790 0.077030 0.443380 -0.137280
N18   N     N_R   0.126210 0.077030 0.556620 -0.113465
N19   N     N_R   0.373790 0.577030 0.443380 -0.136869
N20   N     N_R   0.626210 0.577030 0.556620 -0.113838
N21   N     N_R   0.945200 0.076700 0.294600 -0.102997
N22   N     N_R   0.054800 0.076700 0.705400 -0.101317
N23   N     N_R   0.445200 0.576700 0.294600 -0.102822
N24   N     N_R   0.554800 0.576700 0.705400 -0.101131
N25   N     N_R   0.111030 0.077600 0.705380 -0.106576
N26   N     N_R   0.888970 0.077600 0.294620 -0.113531
N27   N     N_R   0.611030 0.577600 0.705380 -0.106684
N28   N     N_R   0.388970 0.577600 0.294620 -0.113281
N29   N     N_R   0.919490 0.077280 0.556590 -0.116454
N30   N     N_R   0.080510 0.077280 0.443410 -0.121957
N31   N     N_R   0.419490 0.577280 0.556590 -0.116449
N32   N     N_R   0.580510 0.577280 0.443410 -0.122400
Ni1   Ni    Ni4+2 0.882160 0.999430 0.370180 0.200528
Ni2   Ni    Ni4+2 0.117840 0.999430 0.629820 0.265336
Ni3   Ni    Ni4+2 0.382160 0.499430 0.370180 0.200908
Ni4   Ni    Ni4+2 0.617840 0.499430 0.629820 0.266095
Ni5   Ni    Ni4+2 0.012460 0.999430 0.370180 0.309873
Ni6   Ni    Ni4+2 0.987540 0.999430 0.629820 0.314415
Ni7   Ni    Ni4+2 0.512460 0.499430 0.370180 0.310361
Ni8   Ni    Ni4+2 0.487540 0.499430 0.629820 0.316012
O1    O     O_3   0.781305 0.845694 0.201360 -0.624008
H9    H     H_    0.758301 0.896978 0.170310 0.343328
O2    O     O_3   0.226460 0.861746 0.826676 -0.631303
H10   H     H_    0.241367 0.917228 0.835246 0.362354
O3    O     O_3   0.281200 0.345834 0.201044 -0.624344
H11   H     H_    0.258321 0.397208 0.170250 0.342996
O4    O     O_3   0.726636 0.362289 0.827210 -0.630634
H12   H     H_    0.741301 0.417813 0.835205 0.362328
O5    O     O_3   0.064283 0.318046 0.342434 -0.691141
H13   H     H_    0.042673 0.296166 0.372497 0.336293
O6    O     O_3   0.935343 0.327813 0.657690 -0.697207
H14   H     H_    0.958921 0.300707 0.633816 0.331269
O7    O     O_3   0.564532 0.817010 0.342386 -0.689705
H15   H     H_    0.543159 0.794897 0.372704 0.335841
O8    O     O_3   0.435382 0.827676 0.657936 -0.697374
H16   H     H_    0.458984 0.800541 0.634123 0.331057
S1    S     S_3+6 0.706222 0.858397 0.737924 0.024521
O9    O     O_2   0.725081 0.937241 0.792298 -0.184808
O10   O     O_2   0.631516 0.860186 0.630095 -0.281111
O11   O     O_3   0.707711 0.795204 0.819637 -0.512917
H17   H     H_    0.669351 0.812799 0.819561 0.379295
S2    S     S_3+6 0.283542 0.845665 0.243694 0.070349
O12   O     O_2   0.257451 0.921784 0.183408 -0.195217
O13   O     O_2   0.359823 0.855577 0.346356 -0.289579
O14   O     O_3   0.279819 0.781208 0.160444 -0.456149
H18   H     H_    0.311579 0.803307 0.148469 0.374096
S3    S     S_3+6 0.207322 0.360957 0.738331 0.024478
O15   O     O_2   0.225812 0.441361 0.788466 -0.186081
O16   O     O_2   0.132292 0.360710 0.631052 -0.286039
O17   O     O_3   0.210155 0.300878 0.824051 -0.505506
H19   H     H_    0.173015 0.320481 0.825729 0.380864
S4    S     S_3+6 0.783640 0.345809 0.243772 0.069446
O18   O     O_2   0.757676 0.422017 0.183699 -0.195583
O19   O     O_2   0.859928 0.355547 0.346483 -0.291001
O20   O     O_3   0.779838 0.281449 0.160356 -0.456195
H20   H     H_    0.811574 0.303595 0.148362 0.374468
S5    S     S_3+6 0.845365 0.775312 0.829181 0.087226
O21   O     O_2   0.910852 0.824579 0.907842 -0.174189
O22   O     O_2   0.828795 0.733144 0.892333 -0.181104
O23   O     O_3   0.865259 0.707660 0.775939 -0.476454
H21   H     H_    0.905055 0.677433 0.839535 0.400547
S6    S     S_3+6 0.160924 0.740816 0.179032 0.075114
O24   O     O_2   0.099048 0.778761 0.075406 -0.113445
O25   O     O_2   0.189607 0.679614 0.149659 -0.224400
O26   O     O_3   0.129644 0.695028 0.233678 -0.505406
H22   H     H_    0.165033 0.654037 0.281473 0.379541
S7    S     S_3+6 0.344443 0.273265 0.828745 0.090854
O27   O     O_2   0.410671 0.321145 0.908691 -0.177089
O28   O     O_2   0.326672 0.231420 0.890557 -0.177667
O29   O     O_3   0.363660 0.205232 0.774972 -0.474725
H23   H     H_    0.403575 0.175020 0.838430 0.399663
S8    S     S_3+6 0.660889 0.241059 0.178742 0.076136
O30   O     O_2   0.598915 0.279137 0.075356 -0.113468
O31   O     O_2   0.689447 0.180098 0.148867 -0.222826
O32   O     O_3   0.629796 0.194921 0.233450 -0.503205
H24   H     H_    0.665217 0.153885 0.280983 0.380802
S9    S     S_3+6 0.737176 0.988444 0.618809 0.059345
O33   O     O_2   0.754851 0.028924 0.555634 -0.228140
O34   O     O_2   0.659153 0.968458 0.540541 -0.204467
O35   O     O_3   0.753607 0.051058 0.714186 -0.466011
H25   H     H_    0.799177 0.077263 0.745246 0.369787
S10   S     S_3+6 0.241466 0.976650 0.344742 0.100062
O36   O     O_2   0.226800 0.016574 0.412076 -0.195292
O37   O     O_2   0.320750 0.968641 0.415119 -0.209129
O38   O     O_3   0.211387 0.034673 0.237982 -0.435104
H26   H     H_    0.163910 0.013681 0.175313 0.378024
S11   S     S_3+6 0.241753 0.488362 0.620728 0.040130
O39   O     O_2   0.257749 0.524580 0.553124 -0.243991
O40   O     O_2   0.163150 0.471996 0.547611 -0.227834
O41   O     O_3   0.265088 0.552964 0.718639 -0.488082
H27   H     H_    0.248526 0.604103 0.681212 0.397213
S12   S     S_3+6 0.741637 0.476724 0.345011 0.099648
O42   O     O_2   0.726984 0.516589 0.412395 -0.196051
O43   O     O_2   0.820914 0.468624 0.415399 -0.210084
O44   O     O_3   0.711641 0.534863 0.238390 -0.434403
H28   H     H_    0.664181 0.513899 0.175629 0.378428
O45   O     O_3   0.863631 0.922201 0.759809 -0.658121
H29   H     H_    0.868171 0.953247 0.816619 0.358010
O46   O     O_3   0.123742 0.891127 0.215068 -0.683324
H30   H     H_    0.099047 0.846126 0.216003 0.380352
O47   O     O_3   0.366131 0.418316 0.761085 -0.653440
H31   H     H_    0.371268 0.449924 0.818035 0.377945
O48   O     O_3   0.623834 0.391381 0.215095 -0.683021
H32   H     H_    0.599081 0.346368 0.215864 0.380101
O49   O     O_3   0.708380 0.070925 0.954884 -0.739668
H33   H     H_    0.657444 0.066416 0.888408 0.342224
O50   O     O_3   0.276356 0.062970 0.047820 -0.729339
H34   H     H_    0.323736 0.050851 0.118737 0.352551
O51   O     O_3   0.207914 0.570905 0.955609 -0.742378
H35   H     H_    0.156864 0.566536 0.889488 0.340246
O52   O     O_3   0.776229 0.563254 0.047102 -0.729604
H36   H     H_    0.823601 0.551021 0.117964 0.351808
O53   O     O_3   0.185655 0.701126 0.770833 -0.697665
H37   H     H_    0.215814 0.658666 0.778411 0.366078
O54   O     O_3   0.805605 0.695171 0.235302 -0.651935
H38   H     H_    0.767880 0.658741 0.217463 0.392226
O55   O     O_3   0.686959 0.202329 0.771528 -0.681338
H39   H     H_    0.718342 0.161060 0.780055 0.384456
O56   O     O_3   0.305612 0.195275 0.235486 -0.651642
H40   H     H_    0.267932 0.158821 0.217762 0.392141
O57   O     O_3   0.830437 0.223101 0.007925 -0.709907
H41   H     H_    0.879856 0.233796 0.075948 0.348154
O58   O     O_3   0.174875 0.238649 0.986922 -0.702526
H42   H     H_    0.128043 0.253295 0.916716 0.341211
O59   O     O_3   0.330023 0.722333 0.006948 -0.706368
H43   H     H_    0.379535 0.733041 0.074716 0.347809
O60   O     O_3   0.674753 0.738757 0.987078 -0.701469
H44   H     H_    0.627783 0.753345 0.917072 0.340854
O61   O     O_3   0.143301 0.740449 0.947043 -0.615668
H45   H     H_    0.140032 0.683871 0.956149 0.347463
O62   O     O_3   0.872701 0.716143 0.090488 -0.639842
H46   H     H_    0.868150 0.658954 0.077088 0.334966
O63   O     O_3   0.642662 0.239648 0.945804 -0.616751
H47   H     H_    0.639837 0.182977 0.954977 0.347165
O64   O     O_3   0.372754 0.215955 0.090683 -0.639901
H48   H     H_    0.368187 0.158756 0.077350 0.335214
O65   O     O_3   0.250415 0.900569 0.698286 -0.675742
H49   H     H_    0.278368 0.853680 0.710815 0.368024
O66   O     O_3   0.748489 0.935287 0.310503 -0.649725
H50   H     H_    0.764063 0.975049 0.284775 0.300423
O67   O     O_3   0.750372 0.400269 0.698319 -0.675598
H51   H     H_    0.778300 0.353405 0.710669 0.369614
O68   O     O_3   0.248501 0.434684 0.310594 -0.649014
H52   H     H_    0.263918 0.474809 0.285028 0.300491
S13   S     S_3+6 0.044414 0.876336 0.858455 0.095639
O69   O     O_2   0.113048 0.887363 0.973509 -0.124391
O70   O     O_2   0.000173 0.947061 0.829758 -0.195634
O71   O     O_3   0.001458 0.796044 0.850439 -0.394593
H53   H     H_    0.975682 0.774661 0.775723 0.323496
S14   S     S_3+6 0.952525 0.861345 0.145043 0.052167
O72   O     O_2   0.880262 0.863528 0.033255 -0.156377
O73   O     O_2   0.992591 0.933062 0.158454 -0.233324
O74   O     O_3   0.996052 0.779399 0.161013 -0.478055
H54   H     H_    0.987940 0.772382 0.092413 0.436709
S15   S     S_3+6 0.544482 0.376440 0.858421 0.096402
O75   O     O_2   0.613150 0.387387 0.973462 -0.124762
O76   O     O_2   0.500385 0.447375 0.829463 -0.193626
O77   O     O_3   0.501284 0.296393 0.850467 -0.392523
H55   H     H_    0.477221 0.273522 0.777016 0.322611
S16   S     S_3+6 0.452772 0.360962 0.145422 0.053375
O78   O     O_2   0.380613 0.362622 0.033438 -0.153918
O79   O     O_2   0.492614 0.432762 0.158426 -0.232258
O80   O     O_3   0.496705 0.279081 0.162490 -0.477966
H56   H     H_    0.488934 0.271769 0.094212 0.436466
O81   O     O_3   0.820952 0.181201 0.317208 -0.696026
H57   H     H_    0.863282 0.210477 0.338589 0.344519
O82   O     O_3   0.220425 0.154449 0.700779 -0.680894
H58   H     H_    0.209636 0.204192 0.717583 0.356734
O83   O     O_3   0.321307 0.681370 0.317480 -0.695741
H59   H     H_    0.363752 0.710535 0.339114 0.344288
O84   O     O_3   0.723309 0.651401 0.700598 -0.678354
H60   H     H_    0.715054 0.701538 0.720051 0.358579
O85   O     O_3   0.951598 0.081473 0.152222 -0.641398
H61   H     H_    0.919104 0.095243 0.073559 0.343608
O86   O     O_3   0.047976 0.090011 0.846918 -0.639824
H62   H     H_    0.079226 0.110006 0.923284 0.343899
O87   O     O_3   0.451406 0.581096 0.152011 -0.639785
H63   H     H_    0.418831 0.594683 0.073283 0.349258
O88   O     O_3   0.547825 0.590435 0.846711 -0.637025
H64   H     H_    0.579055 0.610550 0.923014 0.345008
S17   S     S_3+6 0.901694 0.150152 0.693769 0.023690
O89   O     O_2   0.957901 0.204917 0.783181 -0.249933
O90   O     O_2   0.829896 0.180874 0.647334 -0.281197
O91   O     O_3   0.910782 0.061734 0.745171 -0.422004
H65   H     H_    0.923946 0.072211 0.817225 0.385992
S18   S     S_3+6 0.097988 0.144961 0.306060 0.052449
O92   O     O_2   0.042003 0.198149 0.215798 -0.255005
O93   O     O_2   0.169903 0.173998 0.349491 -0.227687
O94   O     O_3   0.086074 0.054260 0.256248 -0.417154
H66   H     H_    0.075854 0.061533 0.185923 0.405418
S19   S     S_3+6 0.401268 0.649949 0.693463 0.039612
O95   O     O_2   0.457330 0.704676 0.783107 -0.245720
O96   O     O_2   0.329378 0.680766 0.646383 -0.293786
O97   O     O_3   0.410063 0.561621 0.744915 -0.396099
H67   H     H_    0.417426 0.572246 0.812538 0.401337
S20   S     S_3+6 0.597940 0.644554 0.305732 0.053260
O98   O     O_2   0.541695 0.697542 0.215444 -0.253277
O99   O     O_2   0.669663 0.673743 0.348469 -0.226951
O100  O     O_3   0.586033 0.553782 0.256147 -0.417614
H68   H     H_    0.575706 0.560938 0.185724 0.406651
O101  O     O_3   0.651678 0.884962 0.304687 -0.624493
H69   H     H_    0.601348 0.867936 0.249271 0.390315
O102  O     O_3   0.343649 0.918722 0.668163 -0.671596
H70   H     H_    0.396188 0.914912 0.722504 0.388272
O103  O     O_3   0.152034 0.384059 0.304811 -0.625209
H71   H     H_    0.101368 0.368178 0.249579 0.390241
O104  O     O_3   0.843606 0.418629 0.668150 -0.671933
H72   H     H_    0.896142 0.414796 0.722508 0.388273

loop_
_geom_bond_atom_site_label_1
_geom_bond_atom_site_label_2
_ccdc_geom_bond_type
O7    H15   S    
C55   C59   D    
C1    C77   A    
O46   H30   S    
C76   C79   A    
C3    C79   A    
O1    H9    S    
C89   O85   S    
C39   C41   S    
C89   N21   A    
O87   H63   S    
S3    O16   D    
O77   H55   S    
C87   O83   S    
C56   C79   S    
C91   N23   A    
S16   O78   D    
C45   N5    A    
C29   C33   A    
S14   O72   D    
C17   C39   A    
N10   Ni1   S    
C18   C40   A    
C14   C90   A    
N27   Ni4   S    
C19   C37   A    
S4    O20   S    
O82   H58   S    
O71   H53   S    
S12   O44   S    
C85   N17   A    
C47   C83   A    
O103  H71   S    
C46   H2    S    
O32   H24   S    
O57   H41   S    
C41   C49   S    
S1    O10   D    
S5    O22   D    
C48   H4    S    
S18   O93   D    
C44   S8    S    
C23   C84   S    
O100  H68   S    
S20   O100  S    
O66   H50   S    
C93   H5    S    
C15   C96   A    
C62   C66   D    
S10   O36   D    
C69   O65   S    
N22   N25   A    
C74   S14   S    
C17   C21   A    
C19   C23   A    
O49   H33   S    
C2    C78   A    
C52   O48   S    
O48   H32   S    
C90   N22   A    
N23   Ni7   S    
N24   Ni8   S    
C72   C84   A    
C46   N6    A    
C9    C34   S    
N1    N14   A    
N3    N16   A    
C96   H8    S    
C60   O56   S    
C76   S16   S    
S16   O80   S    
C45   C81   A    
S8    O30   D    
C13   C94   A    
C53   C78   S    
S7    O29   S    
N30   Ni5   S    
C55   C80   S    
C47   N7    A    
N13   Ni6   S    
S15   O76   D    
C70   C82   A    
C15   C91   A    
C61   C65   D    
C94   H6    S    
O6    H14   S    
S6    O24   D    
C57   O53   S    
C1    N1    A    
C25   C31   A    
C26   C32   A    
C27   C29   A    
C1    O1    S    
O2    H10   S    
C88   N20   A    
C43   C51   S    
N28   Ni3   S    
C5    N29   A    
C69   N9    A    
O59   H43   S    
C76   N16   A    
C64   C68   D    
S12   O43   D    
C4    C80   A    
N32   Ni7   S    
O61   H45   S    
C14   C62   S    
N19   Ni3   S    
C47   H3    S    
O23   H21   S    
O55   H39   S    
N17   Ni1   S    
O17   H19   S    
N18   N30   A    
C9    C85   A    
C46   C82   A    
C11   C87   A    
S17   O90   D    
C74   C77   A    
O51   H35   S    
N6    N10   A    
C14   C93   A    
N7    Ni7   S    
C54   C77   S    
C44   C52   S    
C40   C42   S    
O53   H37   S    
S2    O13   D    
S9    O34   D    
O26   H22   S    
S8    O32   S    
C95   H7    S    
O81   H57   S    
C71   C83   A    
C74   N14   A    
C49   S9    S    
C30   C34   A    
C17   C49   S    
C43   S3    S    
C2    O2    S    
C66   O50   S    
C2    N2    A    
N19   N31   A    
S20   O99   D    
C5    C9    A    
O83   H59   S    
C68   O52   S    
O4    H12   S    
C12   C88   A    
O38   H26   S    
O14   H18   S    
C12   C35   S    
C42   C50   S    
C50   S10   S    
C48   N8    A    
C58   O54   S    
N24   N27   A    
N8    N12   A    
S7    O27   D    
C21   C25   A    
S4    O18   D    
S19   O97   S    
C86   O82   S    
C49   O45   S    
C18   C22   A    
C44   S4    S    
O68   H52   S    
S9    O33   D    
C65   O49   S    
C88   O84   S    
C32   O8    S    
S16   O79   D    
C59   C65   S    
C87   N19   A    
C26   O102  S    
C10   C33   S    
S14   O73   D    
N3    Ni3   S    
N1    Ni1   S    
S11   O41   S    
C21   C82   S    
C91   O87   S    
N5    Ni5   S    
O64   H48   S    
C41   S1    S    
C8    N32   A    
S14   O74   S    
O54   H38   S    
N14   Ni5   S    
S1    O9    D    
O60   H44   S    
S5    O21   D    
C4    N4    A    
O11   H17   S    
C24   C83   S    
S10   O37   D    
C25   O101  S    
O56   H40   S    
C52   S12   S    
C54   O62   S    
O45   H29   S    
C10   C86   A    
C86   N18   A    
O52   H36   S    
C8    C12   A    
N12   Ni3   S    
O29   H23   S    
C60   C66   S    
S19   O95   D    
S13   O69   D    
C95   N27   A    
N15   Ni8   S    
N4    N15   A    
C41   S5    S    
N16   Ni7   S    
C53   O61   S    
C93   N25   A    
S3    O17   S    
C50   O46   S    
C3    O3    S    
N20   N32   A    
C22   C81   S    
C24   C28   A    
N18   Ni2   S    
S8    O31   D    
O84   H60   S    
S13   O70   D    
C53   C57   D    
C27   O103  S    
C28   O104  S    
N22   Ni6   S    
C33   C37   A    
C56   C60   D    
C55   O63   S    
C37   C43   S    
C35   C39   A    
O86   H62   S    
S7    O28   D    
C38   C44   S    
O8    H16   S    
N29   Ni6   S    
C94   N26   A    
C58   C68   S    
C30   O6    S    
C63   O59   S    
C16   C92   A    
N2    N13   A    
C31   C35   A    
C56   O64   S    
S6    O25   D    
C32   C36   A    
O44   H28   S    
S1    O11   S    
C18   C50   S    
S5    O23   S    
S18   O92   D    
N20   Ni4   S    
C6    C10   A    
C85   O81   S    
C72   N12   A    
S6    O26   S    
S15   O75   D    
O102  H70   S    
O3    H11   S    
C5    S17   S    
O94   H66   S    
O65   H49   S    
C6    S18   S    
C7    S19   S    
O101  H69   S    
C69   C81   A    
O20   H20   S    
C75   C80   A    
N11   Ni4   S    
C20   C52   S    
S17   O89   D    
C22   C26   A    
S13   O71   S    
N9    Ni2   S    
C45   H1    S    
N26   Ni1   S    
C42   S2    S    
S18   O94   S    
C90   O86   S    
S3    O15   D    
O85   H61   S    
O104  H72   S    
C70   N10   A    
C7    C11   A    
C8    S20   S    
C11   C36   S    
O63   H47   S    
N2    Ni2   S    
C61   O57   S    
S15   O77   S    
N6    Ni6   S    
N23   N28   A    
N21   N26   A    
N25   Ni2   S    
O80   H56   S    
C51   O47   S    
C73   C78   A    
C23   C27   A    
O67   H51   S    
N5    N9    A    
C96   N28   A    
C42   S6    S    
C43   S7    S    
C71   O67   S    
O88   H64   S    
C57   C67   S    
C92   N24   A    
C70   O66   S    
C63   C67   D    
S19   O96   D    
C73   N13   A    
C20   C24   A    
C36   C40   A    
C75   N15   A    
S12   O42   D    
N21   Ni5   S    
N4    Ni4   S    
O41   H27   S    
C3    N3    A    
C72   O68   S    
C48   C84   A    
C75   S15   S    
S11   O39   D    
C7    N31   A    
O97   H67   S    
C51   S11   S    
C64   O60   S    
C20   C38   A    
S17   O91   S    
O47   H31   S    
C71   N11   A    
C31   O7    S    
O35   H25   S    
N31   Ni8   S    
S11   O40   D    
S2    O12   D    
S9    O35   S    
O62   H46   S    
O91   H65   S    
C29   O5    S    
C54   C58   D    
C4    O4    S    
C67   O51   S    
C16   C95   A    
C13   C89   A    
C34   C38   A    
O58   H42   S    
C59   O55   S    
S20   O98   D    
N8    Ni8   S    
C28   C30   A    
C92   O88   S    
C73   S13   S    
S10   O38   S    
C62   O58   S    
S4    O19   D    
C19   C51   S    
C6    N30   A    
C13   C61   S    
S2    O14   S    
O50   H34   S    
C15   C63   S    
N7    N11   A    
C16   C64   S    
N17   N29   A    
O5    H13   S    
O74   H54   S    
