data_mof_unit_27287.cif
_audit_creation_date              2013-03-05T16:10:14-0500
_audit_creation_method            fapswitch 2.2
_symmetry_space_group_name_H-M    P1
_symmetry_Int_Tables_number       1
_space_group_crystal_system       triclinic
_cell_length_a                    9.867409
_cell_length_b                    10.688268
_cell_length_c                    13.179389
_cell_angle_alpha                 91.732254
_cell_angle_beta                  73.404264
_cell_angle_gamma                 89.576162
_cell_volume                      1331.27491561

loop_
_atom_site_label
_atom_site_type_symbol
_atom_site_description
_atom_site_fract_x
_atom_site_fract_y
_atom_site_fract_z
_atom_type_partial_charge
O1    O     O_R   0.385370 0.683250 0.500010 -0.589205
O2    O     O_R   0.614700 0.683220 0.500010 -0.642399
C1    C     C_R   0.500728 0.740988 0.497013 0.900711
O3    O     O_R   0.328400 0.499990 0.653620 -0.610083
O4    O     O_R   0.557730 0.499960 0.653620 -0.602324
C2    C     C_R   0.424845 0.498226 0.704123 0.899562
Zn1   Zn    Zn3+2 0.346870 0.500020 0.500000 1.015073
Zn2   Zn    Zn3+2 0.653130 0.499980 0.500000 0.953837
O5    O     O_R   0.385300 0.316780 0.499990 -0.632977
O6    O     O_R   0.614630 0.316750 0.499990 -0.654508
O7    O     O_R   0.442270 0.500040 0.346380 -0.586241
O8    O     O_R   0.671600 0.500010 0.346380 -0.672203
C3    C     C_R   0.493728 0.262217 0.516549 0.889724
C4    C     C_R   0.574199 0.518219 0.299621 0.886300
C5    C     C_R   0.728119 0.711263 0.056018 -0.089909
H1    H     H_    0.814606 0.772996 0.024780 0.236869
C6    C     C_R   0.605424 0.574165 0.195243 -0.137563
C7    C     C_R   0.251753 0.449598 0.878407 -0.043542
C8    C     C_R   0.191503 0.483043 0.986676 -0.102379
C9    C     C_R   0.270823 0.555198 0.040324 -0.112026
C10   C     C_R   0.415529 0.577263 0.989115 0.006339
C11   C     C_R   0.469656 0.558369 0.878811 0.086280
C12   C     C_R   0.514245 0.607856 0.045277 0.115895
C13   C     C_R   0.637262 0.673864 0.995800 0.044449
C14   C     C_R   0.669899 0.685106 0.885321 -0.162226
C15   C     C_R   0.612926 0.592429 0.832187 -0.081369
C16   C     C_R   0.505293 0.553108 0.140570 -0.146546
C17   C     C_R   0.711971 0.663739 0.157221 -0.073262
C18   C     C_R   0.383464 0.499608 0.821748 -0.152206
H2    H     H_    0.422979 0.486984 0.169362 0.206073
C19   C     C_R   0.605470 0.935203 0.535202 -0.111230
H3    H     H_    0.693523 0.881674 0.546288 0.216878
C20   C     C_R   0.601715 0.063523 0.551986 -0.018519
C21   C     C_R   0.482890 0.130649 0.541792 -0.219299
C22   C     C_R   0.359945 0.065996 0.538087 -0.092389
C23   C     C_R   0.378566 0.944147 0.495068 -0.041383
C24   C     C_R   0.497670 0.875907 0.503384 -0.170799
C25   C     C_R   0.951237 0.412133 0.440021 0.000391
C26   C     C_R   0.096764 0.415178 0.437320 0.016429
N1    N     N_R   0.142790 0.500030 0.500030 -0.181809
C27   C     C_R   0.045989 0.582753 0.563428 0.013677
C28   C     C_R   0.904488 0.586369 0.558922 -0.152440
H4    H     H_    0.830063 0.654090 0.606604 0.170052
N2    N     N_R   0.857180 0.499940 0.500010 -0.134509
C29   C     C_2   0.803429 0.712804 0.221236 0.414487
H5    H     H_    0.782679 0.692972 0.304019 0.123692
O9    O     O_2   0.903193 0.779889 0.182165 -0.540022
C30   C     C_2   0.716556 0.123112 0.587699 0.515828
H6    H     H_    0.698400 0.212371 0.630860 0.125964
O10   O     O_2   0.832542 0.072322 0.570361 -0.488913
C31   C     C_2   0.215440 0.118864 0.591822 0.680410
H7    H     H_    0.196256 0.217939 0.608641 0.089809
O11   O     O_2   0.115012 0.050765 0.625176 -0.484077
C32   C     C_2   0.292353 0.899532 0.424633 0.998301
O12   O     O_2   0.344735 0.825606 0.350934 -0.632695
O13   O     O_R   0.155957 0.947128 0.437273 -0.667562
H8    H     H_    0.109830 0.910214 0.383960 0.358684
C33   C     C_2   0.901680 0.314309 0.377168 0.482516
H9    H     H_    0.824075 0.334973 0.337032 0.131151
O14   O     O_2   0.947270 0.206930 0.369912 -0.504156
C34   C     C_2   0.198504 0.331405 0.360958 1.044652
O15   O     O_2   0.242955 0.360596 0.268897 -0.626445
O16   O     O_R   0.228059 0.212219 0.389650 -0.771082
H10   H     H_    0.295181 0.162383 0.328978 0.350405
C35   C     C_2   0.084051 0.661971 0.643240 0.951457
O17   O     O_2   0.083193 0.618621 0.728074 -0.599003
O18   O     O_R   0.113564 0.787688 0.624788 -0.749288
H11   H     H_    0.141163 0.830644 0.685431 0.382989
C36   C     C_2   0.772775 0.773989 0.822491 0.919603
O19   O     O_2   0.880331 0.801450 0.845643 -0.587054
O20   O     O_R   0.744029 0.828276 0.735719 -0.813660
H12   H     H_    0.821528 0.886318 0.697872 0.397684
C37   C     C_2   0.180936 0.357864 0.825012 1.024354
O21   O     O_2   0.245670 0.263182 0.783122 -0.663941
O22   O     O_R   0.041256 0.378187 0.823870 -0.754364
H13   H     H_    0.005740 0.308450 0.784767 0.356665
C38   C     C_2   0.202222 0.618655 0.144865 0.958418
O23   O     O_2   0.112505 0.566290 0.213378 -0.645809
O24   O     O_R   0.239919 0.741018 0.163573 -0.720954
H14   H     H_    0.179877 0.777482 0.233906 0.375205
C39   C     C_2   0.046025 0.443871 0.043421 0.550150
H15   H     H_    0.969807 0.511762 0.090170 0.074142
O25   O     O_2   0.011386 0.334692 0.040531 -0.510490
C40   C     C_2   0.717431 0.490193 0.785230 0.481218
H16   H     H_    0.829119 0.510269 0.758577 0.087925
O26   O     O_2   0.681299 0.381330 0.782827 -0.561387

loop_
_geom_bond_atom_site_label_1
_geom_bond_atom_site_label_2
_geom_bond_distance
_ccdc_geom_bond_type
C11   C18   1.424107 A    
C27   C28   1.414651 A    
C8    C9    1.413979 A    
C39   H15   1.082581 S    
C38   O23   1.222114 D    
Zn1   O7    1.973967 S    
C9    C38   1.490125 S    
C23   C24   1.411006 A    
C40   O26   1.221607 D    
C7    C8    1.413777 A    
O4    C2    1.290446 A    
O7    C4    1.290316 A    
C33   O14   1.220607 D    
C5    H1    1.075743 S    
O13   H8    1.012483 S    
C36   O20   1.395679 S    
C21   C22   1.412743 A    
C37   O21   1.221528 D    
C29   O9    1.221287 D    
C34   O16   1.391934 S    
O5    C3    1.290070 A    
C25   C33   1.484962 S    
C22   C23   1.394144 A    
C35   O18   1.390884 S    
Zn1   N1    2.013627 S    
C19   C20   1.381152 A    
C12   C16   1.381788 A    
C30   O10   1.220930 D    
C10   C11   1.405888 A    
C16   H2    1.073240 S    
C37   O22   1.398096 S    
C4    C6    1.468066 S    
C36   O19   1.220575 D    
C28   N2    1.358002 A    
O3    Zn1   1.980290 S    
C39   O25   1.220927 D    
C38   O24   1.396320 S    
C26   C34   1.475628 S    
C32   O13   1.398066 S    
C17   C29   1.488757 S    
O18   H11   1.013764 S    
C6    C16   1.395074 A    
C13   C14   1.407658 A    
O3    C2    1.308195 A    
C26   N1    1.373686 A    
C27   C35   1.463197 S    
C33   H9    1.072809 S    
C29   H5    1.078996 S    
C19   C24   1.399172 A    
C31   O11   1.219102 D    
O22   H13   1.013800 S    
C25   N2    1.374889 A    
C19   H3    1.083431 S    
Zn2   O8    1.980291 S    
C20   C21   1.410997 A    
C7    C18   1.418608 A    
C5    C13   1.409245 A    
C40   H16   1.082086 S    
C30   H6    1.082716 S    
O8    C4    1.297755 A    
C7    C37   1.481267 S    
C10   C12   1.416172 A    
C22   C31   1.497014 S    
C14   C36   1.483350 S    
C28   H4    1.076640 S    
Zn1   O5    1.992124 S    
C32   O12   1.222987 D    
N1    C27   1.370829 A    
C15   C40   1.489399 S    
O1    Zn1   1.997676 S    
C6    C17   1.419861 A    
O2    Zn2   1.992124 S    
Zn2   N2    2.013479 S    
O16   H10   1.014050 S    
O6    C3    1.296081 A    
O4    Zn2   1.973966 S    
O2    C1    1.290012 A    
C14   C15   1.406707 A    
C31   H7    1.079442 S    
C5    C17   1.408239 A    
C25   C26   1.426859 A    
C34   O15   1.217685 D    
C23   C32   1.497716 S    
C12   C13   1.408808 A    
O24   H14   1.011511 S    
C3    C21   1.452514 S    
C2    C18   1.485621 S    
O20   H12   1.013049 S    
C9    C10   1.419176 A    
C1    C24   1.441544 S    
Zn2   O6    1.997679 S    
C35   O17   1.220975 D    
C11   C15   1.426035 A    
C20   C30   1.486101 S    
O1    C1    1.290066 A    
C8    C39   1.486541 S    
