data_mof_unit_15605.cif
_audit_creation_date              2013-03-05T16:23:18-0500
_audit_creation_method            fapswitch 2.2
_symmetry_space_group_name_H-M    P1
_symmetry_Int_Tables_number       1
_space_group_crystal_system       triclinic
_cell_length_a                    27.713826
_cell_length_b                    10.535762
_cell_length_c                    9.750757
_cell_angle_alpha                 90.702279
_cell_angle_beta                  89.776176
_cell_angle_gamma                 89.921563
_cell_volume                      2846.84876819

loop_
_atom_site_label
_atom_site_type_symbol
_atom_site_description
_atom_site_fract_x
_atom_site_fract_y
_atom_site_fract_z
_atom_type_partial_charge
O1    O     O_R   0.500000 0.313960 0.616610 -0.604241
O2    O     O_R   0.500000 0.686040 0.383390 -0.607321
O3    O     O_R   0.500020 0.313950 0.383350 -0.590189
O4    O     O_R   0.499980 0.686050 0.616650 -0.581455
C1    C     C_R   0.500021 0.257765 0.499089 1.004773
C2    C     C_R   0.499879 0.742193 0.500884 1.016562
O5    O     O_R   0.428750 0.500030 0.616610 -0.593569
O6    O     O_R   0.571250 0.499970 0.383390 -0.632206
O7    O     O_R   0.428770 0.500020 0.383360 -0.598934
O8    O     O_R   0.571230 0.499980 0.616640 -0.559139
C3    C     C_R   0.406034 0.503163 0.500085 0.975354
C4    C     C_R   0.594054 0.497864 0.499914 0.961353
Zn1   Zn    Zn3+2 0.499990 0.500010 0.655740 1.092182
Zn2   Zn    Zn3+2 0.500010 0.499990 0.344260 1.050508
C5    C     C_R   0.177141 0.388803 0.456826 0.643856
C6    C     C_R   0.822939 0.604979 0.443288 0.639459
O9    O     O_2   0.202311 0.279334 0.445516 -0.453014
O10   O     O_2   0.797667 0.712337 0.420803 -0.456879
N1    N     N_R   0.200764 0.501020 0.477422 -0.346304
N2    N     N_R   0.799312 0.495081 0.472548 -0.346760
C7    C     C_R   0.176490 0.613227 0.494897 0.623381
C8    C     C_R   0.823305 0.384479 0.497829 0.628815
C9    C     C_R   0.274939 0.536520 0.605698 -0.150564
C10   C     C_R   0.725442 0.490237 0.607785 -0.164741
C11   C     C_R   0.325128 0.544498 0.613226 0.319823
C12   C     C_R   0.675269 0.486812 0.618542 0.329444
C13   C     C_R   0.329848 0.472195 0.374933 -0.205048
C14   C     C_R   0.670465 0.500002 0.369202 -0.217162
C15   C     C_R   0.279892 0.471615 0.366404 0.477535
C16   C     C_R   0.720431 0.499898 0.359840 0.479092
C17   C     C_R   0.252288 0.501239 0.483189 0.104968
C18   C     C_R   0.747918 0.496105 0.479663 0.115074
C19   C     C_R   0.101078 0.500812 0.468902 -0.084528
C20   C     C_R   0.898937 0.494521 0.465375 -0.082656
C21   C     C_R   0.126934 0.387179 0.447203 -0.072166
C22   C     C_R   0.873217 0.606383 0.436625 -0.070891
C23   C     C_R   0.102395 0.275665 0.411151 -0.113837
C24   C     C_R   0.898012 0.715835 0.397366 -0.118624
C25   C     C_R   0.125713 0.614979 0.498447 -0.190626
C26   C     C_R   0.874113 0.382251 0.499941 -0.192816
C27   C     C_R   0.353088 0.507205 0.497650 -0.213053
C28   C     C_R   0.647132 0.494033 0.497518 -0.211800
H1    H     H_    0.350472 0.445757 0.284360 0.240335
H2    H     H_    0.649992 0.504530 0.274999 0.217922
H3    H     H_    0.122494 0.191153 0.382375 0.247296
H4    H     H_    0.878139 0.798523 0.364285 0.244753
C29   C     C_R   0.975634 0.381674 0.475799 -0.046919
C30   C     C_R   0.024381 0.614383 0.472162 -0.047922
C31   C     C_R   0.974443 0.611543 0.441993 0.006313
C32   C     C_R   0.025743 0.382928 0.447285 0.005989
C33   C     C_R   0.949625 0.495690 0.460365 0.022446
C34   C     C_R   0.050447 0.499565 0.462124 0.021681
C35   C     C_R   0.951415 0.274819 0.529015 0.336572
C36   C     C_R   0.048314 0.723876 0.522478 0.338379
C37   C     C_R   0.900832 0.273584 0.538177 0.269866
C38   C     C_R   0.098873 0.725424 0.532966 0.270889
O11   O     O_2   0.797743 0.277440 0.518140 -0.432257
O12   O     O_2   0.201685 0.722363 0.505425 -0.433542
C39   C     C_R   0.052034 0.273867 0.404140 0.301798
C40   C     C_R   0.948420 0.718105 0.393960 0.302026
H5    H     H_    0.747346 0.485120 0.699379 0.212407
H6    H     H_    0.253052 0.563320 0.693730 0.219654
C41   C     C_3   0.537841 0.042331 0.566891 0.224589
C42   C     C_3   0.461908 0.957457 0.432812 0.239057
C43   C     C_3   0.540278 0.956714 0.439310 0.349477
C44   C     C_3   0.459448 0.043107 0.560419 0.360286
C45   C     C_3   0.499993 0.876673 0.502692 -0.303391
C46   C     C_3   0.499763 0.123205 0.497104 -0.308731
C47   C     C_3   0.498007 0.961437 0.632962 -0.256317
C48   C     C_3   0.501742 0.038429 0.366812 -0.268439
H7    H     H_    0.496843 0.927904 0.740462 0.251529
H8    H     H_    0.502908 0.071953 0.259309 0.250330
C49   C     C_3   0.543281 0.483338 0.048016 -0.137211
C50   C     C_3   0.456792 0.516588 0.952098 -0.144627
C51   C     C_3   0.526668 0.589055 0.953194 0.486374
C52   C     C_3   0.473381 0.410903 0.046819 0.451200
H9    H     H_    0.579650 0.470214 0.092997 0.200330
H10   H     H_    0.420454 0.528415 0.907444 0.236452
N3    N     N_3   0.499960 0.500030 0.863290 -0.145111
N4    N     N_3   0.500040 0.499970 0.136710 -0.146854
C53   C     C_3   0.516258 0.393209 0.949435 -0.143277
C54   C     C_3   0.483775 0.606753 0.050561 -0.171314
H11   H     H_    0.529554 0.303342 0.902042 0.220026
H12   H     H_    0.470425 0.696585 0.097911 0.215840
N5    N     N_R   0.579802 0.093689 0.637784 0.261043
O13   O     O_R   0.585986 0.072604 0.767694 -0.278071
O14   O     O_R   0.611324 0.160579 0.571059 -0.310992
N6    N     N_R   0.420096 0.905845 0.361304 0.251105
O15   O     O_R   0.413870 0.928096 0.231655 -0.290444
O16   O     O_R   0.389134 0.836016 0.426581 -0.309657
Cl1   Cl    Cl    0.563388 0.711769 0.885169 -0.443463
Cl2   Cl    Cl    0.436275 0.288959 0.114842 -0.480103
Cl3   Cl    Cl    0.252920 0.437618 0.206945 -0.422866
Cl4   Cl    Cl    0.747843 0.502294 0.196758 -0.431203
N7    N     N_R   0.654200 0.472635 0.752077 0.238961
O17   O     O_R   0.668912 0.544335 0.853110 -0.287024
O18   O     O_R   0.629687 0.370776 0.779589 -0.302256
N8    N     N_R   0.346377 0.598504 0.734602 0.217894
O19   O     O_R   0.327772 0.574377 0.854229 -0.318615
O20   O     O_R   0.376702 0.692138 0.723993 -0.317490
N9    N     N_R   0.877492 0.165103 0.596047 0.283772
O21   O     O_R   0.882515 0.053809 0.538445 -0.245635
O22   O     O_R   0.856547 0.174672 0.715395 -0.253599
N10   N     N_R   0.122004 0.835466 0.590570 0.284163
O23   O     O_R   0.117005 0.945498 0.533236 -0.246440
O24   O     O_R   0.143864 0.828110 0.708072 -0.258510
Cl5   Cl    Cl    0.983669 0.155663 0.616397 -0.362010
Cl6   Cl    Cl    0.015511 0.847019 0.605390 -0.359582
N11   N     N_R   0.028721 0.167953 0.337395 0.255145
O25   O     O_R   0.049727 0.057474 0.332307 -0.228440
O26   O     O_R   0.990677 0.186378 0.262326 -0.292395
N12   N     N_R   0.972171 0.821679 0.326516 0.253893
O27   O     O_R   0.951194 0.931972 0.319585 -0.229183
O28   O     O_R   0.010799 0.800914 0.253232 -0.295064
Cl7   Cl    Cl    0.594067 0.895102 0.362706 -0.430685
Cl8   Cl    Cl    0.405614 0.104444 0.636946 -0.413809

loop_
_geom_bond_atom_site_label_1
_geom_bond_atom_site_label_2
_geom_bond_distance
_ccdc_geom_bond_type
C44   C46   1.533476 S    
Zn1   N3    2.023763 S    
N9    O21   1.300989 A    
C13   C15   1.387292 A    
C49   C51   1.527925 S    
N7    O17   1.301197 A    
N1    C17   1.429254 S    
C41   C43   1.528885 S    
C8    O11   1.348877 S    
N12   O28   1.301570 A    
N5    O13   1.300685 A    
C19   C34   1.405072 A    
C30   C36   1.414989 A    
C20   C33   1.405493 A    
C10   H5    1.083697 S    
C31   C40   1.418895 A    
C44   Cl8   1.782482 S    
O1    C1    1.283369 A    
C32   C39   1.418319 A    
C21   C23   1.400135 A    
C10   C12   1.394583 A    
N11   O26   1.301575 A    
C44   C47   1.549494 S    
C43   C48   1.549133 S    
C47   H7    1.110604 S    
C49   C53   1.540045 S    
O4    Zn1   2.001369 S    
C5    C21   1.395054 A    
C13   C27   1.406617 A    
N10   O23   1.300652 A    
C54   H12   1.110322 S    
C4    C28   1.471582 S    
C39   N11   1.440018 S    
C5    N1    1.365319 A    
C9    H6    1.083507 S    
C41   C47   1.539691 S    
C31   C33   1.414824 A    
C32   C34   1.413686 A    
C42   C48   1.539854 S    
C16   C18   1.398209 A    
O6    C4    1.302699 A    
C29   C35   1.414507 A    
N5    O14   1.300621 A    
N9    O22   1.301182 A    
C41   N5    1.456628 S    
C43   Cl7   1.782756 S    
O2    C2    1.282926 A    
C50   C54   1.539018 S    
C1    C46   1.417614 S    
N10   O24   1.301229 A    
N12   O27   1.301225 A    
C53   H11   1.110311 S    
C29   C32   1.415315 A    
C35   C37   1.404443 A    
C36   C38   1.405397 A    
C42   C45   1.523185 S    
C38   N10   1.435091 S    
N4    C54   1.482994 S    
C11   C27   1.416446 A    
N3    C53   1.483559 S    
C16   Cl4   1.760118 S    
C29   C33   1.409990 A    
C43   C45   1.532820 S    
C14   H2    1.083051 S    
C45   C47   1.544535 S    
C9    C17   1.398142 A    
O5    C3    1.301857 A    
O7    Zn2   2.009340 S    
C10   C18   1.395866 A    
C40   N12   1.439685 S    
C35   Cl5   1.769228 S    
C25   C38   1.416570 A    
C7    C25   1.407622 A    
C30   C34   1.410283 A    
C6    N2    1.363643 A    
C26   C37   1.417178 A    
C8    C26   1.408469 A    
C6    O10   1.350227 S    
C19   C25   1.411106 A    
O7    C3    1.298829 A    
C23   C39   1.397779 A    
O3    Zn2   2.001371 S    
O8    C4    1.299907 A    
C52   Cl2   1.779680 S    
C24   C40   1.397530 A    
O4    C2    1.280815 A    
C30   C31   1.416297 A    
N6    O16   1.300622 A    
Zn2   N4    2.023764 S    
C50   N3    1.482963 S    
C20   C26   1.412889 A    
O1    Zn1   1.992372 S    
C50   C52   1.526878 S    
C23   H3    1.083105 S    
C12   C28   1.419733 A    
N2    C18   1.425751 S    
C12   N7    1.434472 S    
C5    O9    1.350200 S    
C41   C46   1.523178 S    
C2    C45   1.416747 S    
O6    Zn2   2.012329 S    
C14   C28   1.408281 A    
N1    C7    1.367900 A    
C52   N4    1.476978 S    
N2    C8    1.366375 A    
O3    C1    1.280777 A    
O8    Zn1   2.009343 S    
C52   C53   1.527957 S    
N7    O18   1.301070 A    
C51   C54   1.528222 S    
C51   Cl1   1.779459 S    
C37   N9    1.434598 S    
N8    O20   1.301655 A    
C36   Cl6   1.768791 S    
C14   C16   1.387405 A    
C7    O12   1.349096 S    
C15   C17   1.401147 A    
N11   O25   1.301038 A    
C6    C22   1.394752 A    
C15   Cl3   1.760900 S    
C22   C24   1.399804 A    
C19   C21   1.407770 A    
C49   N4    1.484029 S    
C3    C27   1.468178 S    
C20   C22   1.408200 A    
C9    C11   1.395762 A    
O2    Zn2   1.992370 S    
C24   H4    1.083185 S    
C13   H1    1.083448 S    
C11   N8    1.435651 S    
O5    Zn1   2.012323 S    
N6    O15   1.300654 A    
C46   C48   1.544767 S    
N8    O19   1.301550 A    
C50   H10   1.106218 S    
C49   H9    1.109932 S    
C48   H8    1.110602 S    
C51   N3    1.477468 S    
C42   N6    1.457178 S    
C42   C44   1.529310 S    
