data_mof_unit_43395.cif
_audit_creation_date              2012-12-10T17:47:12-0500
_audit_creation_method            fapswitch 2.2
_symmetry_space_group_name_H-M    P1
_symmetry_Int_Tables_number       1
_space_group_crystal_system       triclinic
_cell_length_a                    11.704354
_cell_length_b                    14.640465
_cell_length_c                    14.84124
_cell_angle_alpha                 63.396086
_cell_angle_beta                  103.86974
_cell_angle_gamma                 102.842037
_cell_volume                      2188.16445009

loop_
_atom_site_label
_atom_site_type_symbol
_atom_type_description
_atom_site_fract_x
_atom_site_fract_y
_atom_site_fract_z
_atom_type_partial_charge
C1    C     C_R   0.482899 0.121465 0.311284 0.844988
C2    C     C_R   0.513680 0.878977 0.688580 0.852945
C3    C     C_R   0.426917 0.319370 0.987881 -0.212879
C4    C     C_R   0.382825 0.666962 0.966054 -0.217552
C5    C     C_R   0.383938 0.455016 0.023978 -0.097532
C6    C     C_R   0.403010 0.526835 0.925839 -0.083658
C7    C     C_R   0.396623 0.489634 0.851132 0.375958
C8    C     C_R   0.330637 0.486270 0.080345 0.380235
C9    C     C_R   0.407407 0.385188 0.882255 0.421255
C10   C     C_R   0.332281 0.592582 0.052648 0.413731
C11   C     C_R   0.745823 0.327335 0.574132 0.390586
C12   C     C_R   0.259716 0.698542 0.373276 0.410667
C13   C     C_R   0.694163 0.226707 0.589582 -0.201702
C14   C     C_R   0.310289 0.785957 0.391468 -0.141404
C15   C     C_R   0.501638 0.275853 0.532587 0.740280
C16   C     C_R   0.497126 0.724843 0.460862 0.713631
C17   C     C_R   0.548086 0.382557 0.503386 -0.223701
C18   C     C_R   0.453979 0.637953 0.435440 -0.201438
C19   C     C_R   0.673597 0.407586 0.524119 -0.079537
C20   C     C_R   0.330809 0.620978 0.399704 -0.028544
C21   C     C_R   0.475132 0.464158 0.459001 -0.052332
C22   C     C_R   0.527366 0.564084 0.451619 -0.059115
C23   C     C_R   0.284174 0.000129 0.499989 0.820670
C24   C     C_R   0.715853 0.999756 0.500212 0.795862
C25   C     C_R   0.650148 0.590367 0.448603 0.326501
C26   C     C_R   0.355518 0.453219 0.412151 0.346066
C27   C     C_R   0.724479 0.512070 0.492961 0.330659
C28   C     C_R   0.281669 0.528062 0.389342 0.331826
C29   C     C_1   0.162548 0.000169 0.500267 -0.150451
C30   C     C_1   0.837552 0.999539 0.500301 -0.155032
C31   C     C_1   0.060033 0.999975 0.500394 0.004352
C32   C     C_1   0.940113 0.999658 0.500386 0.007044
C33   C     C_R   0.471829 0.191626 0.200372 -0.350676
C34   C     C_R   0.492045 0.810236 0.794982 -0.336861
C35   C     C_R   0.458232 0.219446 0.022994 0.523528
C36   C     C_R   0.394676 0.774539 0.938391 0.517312
C37   C     C_R   0.478589 0.155837 0.127734 0.231054
C38   C     C_R   0.450998 0.845445 0.854787 0.212680
C39   C     C_R   0.450236 0.294114 0.165935 0.419791
C40   C     C_R   0.491378 0.704208 0.829748 0.462941
C41   C     C_R   0.416743 0.354984 0.060073 -0.164936
C42   C     C_R   0.422905 0.632923 0.904981 -0.168301
Cu1   Cu    Cu3+1 0.469550 0.918260 0.475690 1.005209
Cu2   Cu    Cu3+1 0.530450 0.081740 0.524310 0.993446
H1    H     H_    0.256704 0.846169 0.368915 0.164706
H2    H     H_    0.750121 0.166574 0.620362 0.164664
N1    N     N_R   0.576230 0.204580 0.560790 -0.252384
N2    N     N_R   0.423770 0.795420 0.439210 -0.235041
O1    O     O_R   0.459870 0.022090 0.338120 -0.559711
O2    O     O_R   0.540130 0.977910 0.661880 -0.588575
O3    O     O_R   0.511290 0.160150 0.379180 -0.519667
O4    O     O_R   0.488710 0.839850 0.620820 -0.539334
O5    O     O_R   0.311490 0.930960 0.479480 -0.606600
O6    O     O_R   0.688510 0.069040 0.520520 -0.602505
O7    O     O_R   0.362910 0.069020 0.520540 -0.507953
O8    O     O_R   0.637090 0.930980 0.479460 -0.512953
O9    O     O_3   0.399637 0.346060 0.811278 -0.702760
H3    H     H_    0.394806 0.401789 0.741397 0.351090
O10   O     O_3   0.286187 0.625156 0.109263 -0.668740
H4    H     H_    0.261929 0.565696 0.170961 0.374416
O11   O     O_3   0.693336 0.692090 0.393665 -0.675109
H5    H     H_    0.766289 0.694847 0.369294 0.334715
O12   O     O_3   0.318387 0.378295 0.374914 -0.631944
H6    H     H_    0.242316 0.390862 0.327713 0.360747
O13   O     O_3   0.565155 0.670272 0.794644 -0.569458
C43   C     C_3   0.671345 0.651945 0.865696 -0.358426
H7    H     H_    0.654656 0.593418 0.942946 0.174120
H8    H     H_    0.720201 0.724786 0.869851 0.165245
H9    H     H_    0.729409 0.620755 0.840218 0.176038
O14   O     O_3   0.463715 0.335222 0.236277 -0.499256
C44   C     C_3   0.578756 0.390342 0.241312 -0.181930
H10   H     H_    0.592265 0.456271 0.166876 0.129469
H11   H     H_    0.648289 0.339035 0.266846 0.138107
H12   H     H_    0.589679 0.422485 0.298249 0.189788
O15   O     O_3   0.464536 0.948309 0.834621 -0.702978
H13   H     H_    0.546615 0.977693 0.820946 0.339860
O16   O     O_3   0.509787 0.060051 0.156033 -0.652053
H14   H     H_    0.575405 0.047808 0.214765 0.328986
O17   O     O_3   0.467270 0.181328 0.955133 -0.484403
C45   C     C_3   0.586786 0.201579 0.940698 -0.176547
H15   H     H_    0.645038 0.158046 0.012146 0.158760
H16   H     H_    0.620014 0.285485 0.912008 0.129862
H17   H     H_    0.592570 0.175810 0.882275 0.178940
O18   O     O_3   0.357613 0.811543 0.996136 -0.481783
C46   C     C_3   0.244607 0.842983 0.948395 -0.109789
H18   H     H_    0.179114 0.778831 0.938518 0.128703
H19   H     H_    0.248930 0.910520 0.873466 0.157956
H20   H     H_    0.211860 0.866728 0.997896 0.190490
O19   O     O_3   0.369078 0.550470 0.747932 -0.747370
H21   H     H_    0.327370 0.606776 0.738644 0.337416
O20   O     O_3   0.264785 0.415682 0.154482 -0.714452
H22   H     H_    0.241077 0.351192 0.144313 0.343460
O21   O     O_3   0.846585 0.536702 0.505540 -0.639589
H23   H     H_    0.867668 0.602580 0.513177 0.328278
O22   O     O_3   0.160778 0.510046 0.359123 -0.646699
H24   H     H_    0.134071 0.435336 0.394871 0.327828
O23   O     O_3   0.611762 0.738955 0.509239 -0.528632
C47   C     C_3   0.624567 0.667258 0.612273 -0.215767
H25   H     H_    0.685895 0.706505 0.657399 0.207972
H26   H     H_    0.539684 0.636619 0.643267 0.217627
H27   H     H_    0.666738 0.601733 0.622934 0.132622
O24   O     O_3   0.383337 0.241732 0.540757 -0.527616
C48   C     C_3   0.371429 0.204186 0.644038 -0.255744
H28   H     H_    0.402456 0.265573 0.672478 0.166253
H29   H     H_    0.419805 0.136514 0.692704 0.199526
H30   H     H_    0.276060 0.178528 0.650738 0.197547
O25   O     O_3   0.866484 0.348341 0.603766 -0.641422
H31   H     H_    0.902508 0.283370 0.637538 0.311325
O26   O     O_3   0.142052 0.689125 0.328728 -0.627732
H32   H     H_    0.105932 0.749880 0.315962 0.310839

loop_
_geom_bond_atom_site_label_1
_geom_bond_atom_site_label_2
_ccdc_geom_bond_type
C43   H8    S    
C21   C26   A    
C4    C36   A    
O21   H23   S    
O22   H24   S    
C15   N1    A    
C26   O12   S    
C16   N2    A    
O23   C47   S    
C1    C33   S    
C39   C41   A    
C46   H18   S    
C11   C19   A    
C33   C39   A    
C28   O22   S    
C34   C40   A    
C23   C29   S    
C35   C37   A    
C13   H2    S    
Cu1   O4    S    
C43   H9    S    
C24   O6    A    
C7    O19   S    
C7    C9    A    
C2    O2    A    
Cu1   O5    S    
C22   C25   A    
O25   H31   S    
O14   C44   S    
C19   C27   A    
Cu1   N2    S    
C18   C20   A    
Cu2   N1    S    
C2    C34   S    
C40   C42   A    
C43   H7    S    
O10   H4    S    
C34   C38   A    
C21   C22   A    
O11   H5    S    
C45   H17   S    
C12   O26   S    
C23   O5    A    
C14   H1    S    
C24   C30   S    
C38   O15   S    
C46   H19   S    
O18   C46   S    
C45   H16   S    
O20   H22   S    
C13   N1    A    
Cu1   O1    S    
C14   N2    A    
C20   C28   A    
O16   H14   S    
C37   O16   S    
C33   C37   A    
O17   C45   S    
O15   H13   S    
C3    C9    A    
C5    C8    A    
C31   C32   S    
C3    C35   A    
C12   C20   A    
C48   H29   S    
C8    O20   S    
C25   O11   S    
C1    O3    A    
C2    O4    A    
Cu2   O3    S    
C16   C18   A    
C12   C14   A    
O13   C43   S    
C47   H26   S    
C40   O13   S    
Cu1   Cu2   S    
C11   O25   S    
C27   O21   S    
C24   O8    A    
C4    C10   A    
C44   H11   S    
C46   H20   S    
Cu2   O2    S    
C15   C17   A    
C5    C41   A    
C3    C41   A    
C18   C22   A    
C45   H15   S    
C44   H12   S    
C23   O7    A    
C6    C7    A    
C25   C27   A    
C47   H27   S    
C26   C28   A    
C36   C38   A    
C10   O10   S    
C44   H10   S    
C29   C31   T    
O26   H32   S    
C30   C32   T    
C11   C13   A    
Cu2   O7    S    
O9    H3    S    
C5    C6    A    
C4    C42   A    
C36   O18   S    
C35   O17   S    
C17   C19   A    
C39   O14   S    
C48   H30   S    
C9    O9    S    
C15   O24   S    
O24   C48   S    
C16   O23   S    
C17   C21   A    
O12   H6    S    
Cu2   O6    S    
Cu1   O8    S    
C8    C10   A    
C47   H25   S    
C6    C42   A    
C48   H28   S    
O19   H21   S    
C1    O1    A    
