data_mof_unit_9058.cif
_audit_creation_date              2012-12-10T16:54:57-0500
_audit_creation_method            fapswitch 2.2
_symmetry_space_group_name_H-M    P1
_symmetry_Int_Tables_number       1
_space_group_crystal_system       triclinic
_cell_length_a                    7.871766
_cell_length_b                    8.632128
_cell_length_c                    15.733372
_cell_angle_alpha                 92.590144
_cell_angle_beta                  85.606496
_cell_angle_gamma                 93.06752
_cell_volume                      1063.50825162

loop_
_atom_site_label
_atom_site_type_symbol
_atom_type_description
_atom_site_fract_x
_atom_site_fract_y
_atom_site_fract_z
_atom_type_partial_charge
C1    C     C_R   0.545085 0.793343 0.495107 0.885516
C2    C     C_3   0.407496 0.660180 0.056981 0.272421
C3    C     C_3   0.503701 0.514076 0.082870 0.102743
C4    C     C_3   0.417480 0.361992 0.047621 -0.445622
C5    C     C_3   0.446838 0.346191 0.948406 0.302117
C6    C     C_1   0.497744 0.508367 0.175032 -0.092608
C7    C     C_1   0.516529 0.510397 0.824516 -0.048578
C8    C     C_1   0.507801 0.505921 0.749591 -0.234896
C9    C     C_2   0.571215 0.954102 0.483115 -0.071018
C10   C     C_2   0.436237 0.042672 0.498979 -0.399068
C11   C     C_R   0.501722 0.501014 0.661178 0.888307
C12   C     C_R   0.455933 0.205917 0.499444 0.962739
C13   C     C_R   0.498576 0.499792 0.338747 0.897322
C14   C     C_3   0.393339 0.644196 0.955708 0.171142
C15   C     C_3   0.712229 0.547033 0.945841 0.399046
C16   C     C_3   0.695967 0.523769 0.047073 -0.175161
C17   C     C_1   0.496323 0.503868 0.250213 -0.200423
C18   C     C_3   0.519926 0.513732 0.916196 0.103614
H1    H     H_    0.465493 0.260249 0.077804 0.188011
H2    H     H_    0.309392 0.995158 0.517126 0.149834
H3    H     H_    0.012833 0.390504 0.430576 0.172795
H4    H     H_    0.755306 0.626203 0.081111 0.145826
H5    H     H_    0.279139 0.361608 0.068043 0.169005
N1    N     N_2   0.950340 0.457950 0.477370 -0.150408
N2    N     N_2   0.049660 0.542050 0.522630 0.011359
O1    O     O_R   0.389240 0.738570 0.505550 -0.623898
O2    O     O_R   0.678400 0.711630 0.491050 -0.660404
O3    O     O_R   0.355360 0.513470 0.630110 -0.608263
O4    O     O_R   0.644510 0.486530 0.615610 -0.640054
O5    O     O_R   0.321600 0.288370 0.508950 -0.635500
O6    O     O_R   0.610760 0.261430 0.494450 -0.575167
O7    O     O_R   0.355490 0.513470 0.384390 -0.625627
O8    O     O_R   0.644640 0.486530 0.369890 -0.617087
Zn1   Zn    Zn3+2 0.306930 0.517990 0.509680 0.951460
Zn2   Zn    Zn3+2 0.693070 0.482010 0.490320 0.943008
N3    N     N_3   0.510460 0.801383 0.081980 -0.481183
H6    H     H_    0.454029 0.902523 0.067074 0.199252
H7    H     H_    0.516039 0.808267 0.148246 0.188346
N4    N     N_3   0.217733 0.595040 0.934789 -0.434339
H8    H     H_    0.154664 0.521632 0.978957 0.224252
H9    H     H_    0.143121 0.690892 0.932924 0.216897
N5    N     N_2   0.236099 0.664509 0.102439 -0.321850
H10   H     H_    0.210893 0.600798 0.156137 0.237639
C19   C     C_3   0.145278 0.806781 0.107156 -0.864783
H11   H     H_    0.007668 0.779640 0.123540 0.238253
H12   H     H_    0.158706 0.864481 0.045417 0.258258
H13   H     H_    0.193935 0.887219 0.157845 0.246949
N6    N     N_3   0.738352 0.013103 0.452059 -0.408006
H14   H     H_    0.772441 0.954830 0.394038 0.182007
H15   H     H_    0.825768 0.988624 0.495839 0.193501
N7    N     N_2   0.975916 0.625418 0.591676 -0.212629
H16   H     H_    0.855348 0.654886 0.585632 0.287694
C20   C     C_3   0.072481 0.763472 0.618109 -0.729197
H17   H     H_    0.001086 0.822886 0.672711 0.192780
H18   H     H_    0.088400 0.844365 0.565113 0.221603
H19   H     H_    0.196525 0.736491 0.640126 0.280378
N8    N     N_3   0.428381 0.796349 0.916423 -0.496716
H20   H     H_    0.422225 0.787925 0.850268 0.191534
H21   H     H_    0.540691 0.855907 0.930979 0.226321
N9    N     N_2   0.838713 0.441345 0.902684 -0.288662
H22   H     H_    0.862705 0.340792 0.930924 0.260136
C21   C     C_3   0.876953 0.421418 0.811014 -0.720596
H23   H     H_    0.810325 0.313994 0.786492 0.221301
H24   H     H_    0.016082 0.408533 0.797830 0.242625
H25   H     H_    0.842123 0.517884 0.773965 0.270078
N10   N     N_2   0.778132 0.709062 0.934716 -0.309466
H26   H     H_    0.865958 0.749095 0.976889 0.222977
C22   C     C_3   0.823948 0.775814 0.852542 -0.854434
H27   H     H_    0.951424 0.739685 0.826598 0.261716
H28   H     H_    0.833852 0.904299 0.861378 0.231141
H29   H     H_    0.726242 0.748525 0.806687 0.251217
N11   N     N_3   0.787055 0.389717 0.072096 -0.462419
H30   H     H_    0.766078 0.373005 0.137413 0.207144
H31   H     H_    0.918024 0.417830 0.063978 0.177072
N12   N     N_2   0.285092 0.294938 0.911697 -0.300503
H32   H     H_    0.281216 0.309519 0.847310 0.243655
C23   C     C_3   0.203675 0.146338 0.934801 -0.869130
H33   H     H_    0.069320 0.140953 0.917664 0.248436
H34   H     H_    0.203190 0.128837 0.004117 0.249887
H35   H     H_    0.269230 0.050884 0.898627 0.253603
N13   N     N_3   0.571951 0.227965 0.924704 -0.456960
H36   H     H_    0.569269 0.198139 0.859638 0.180035
H37   H     H_    0.539581 0.126239 0.956984 0.191699

loop_
_geom_bond_atom_site_label_1
_geom_bond_atom_site_label_2
_ccdc_geom_bond_type
C15   C18   S    
N10   C22   S    
C15   N9    S    
C14   C18   S    
C13   O7    A    
C16   N11   S    
C3    C6    S    
N13   H36   S    
C7    C8    T    
N4    H9    S    
C23   H33   S    
N3    H6    S    
C22   H29   S    
C20   H19   S    
C15   C16   S    
N9    C21   S    
C6    C17   T    
C21   H24   S    
C14   N4    S    
C4    H1    S    
O1    Zn1   S    
C10   H2    S    
C22   H27   S    
C9    C10   D    
C19   H13   S    
N2    Zn1   S    
N6    H15   S    
N10   H26   S    
O3    Zn1   S    
N5    C19   S    
N13   H37   S    
C19   H12   S    
C23   H34   S    
N1    Zn2   S    
O5    Zn1   S    
N7    H16   S    
C1    C9    S    
N1    N2    D    
N11   H31   S    
N4    H8    S    
C4    H5    S    
C4    C5    S    
C5    C18   S    
O2    Zn2   S    
C20   H17   S    
C15   N10   S    
N9    H22   S    
N7    C20   S    
O7    Zn1   S    
C5    N12   S    
N12   H32   S    
N2    N7    S    
C13   O8    A    
C21   H23   S    
C5    N13   S    
C7    C18   S    
N12   C23   S    
C10   C12   S    
N6    H14   S    
C12   O6    A    
C1    O1    A    
O6    Zn2   S    
N5    H10   S    
C20   H18   S    
C3    C4    S    
C19   H11   S    
C23   H35   S    
C2    N3    S    
C14   N8    S    
C16   H4    S    
C21   H25   S    
C12   O5    A    
N11   H30   S    
O4    Zn2   S    
C13   C17   S    
N3    H7    S    
C2    C3    S    
N8    H20   S    
C11   O3    A    
C2    N5    S    
C8    C11   S    
O8    Zn2   S    
C2    C14   S    
N8    H21   S    
C11   O4    A    
C9    N6    S    
C22   H28   S    
H3    N1    S    
C1    O2    A    
C3    C16   S    
