data_mof_unit_67825.cif
_audit_creation_date              2012-12-10T16:55:42-0500
_audit_creation_method            fapswitch 2.2
_symmetry_space_group_name_H-M    P1
_symmetry_Int_Tables_number       1
_space_group_crystal_system       triclinic
_cell_length_a                    7.837705
_cell_length_b                    8.568758
_cell_length_c                    10.510827
_cell_angle_alpha                 91.594682
_cell_angle_beta                  85.883611
_cell_angle_gamma                 93.734575
_cell_volume                      702.394544602

loop_
_atom_site_label
_atom_site_type_symbol
_atom_type_description
_atom_site_fract_x
_atom_site_fract_y
_atom_site_fract_z
_atom_type_partial_charge
C1    C     C_R   0.545532 0.794402 0.496822 0.945256
C2    C     C_3   0.505514 0.502679 0.876478 -0.231436
C3    C     C_3   0.336637 0.496986 0.045686 0.479361
C4    C     C_3   0.663361 0.503010 0.954314 0.479362
C5    C     C_2   0.569267 0.958116 0.495276 -0.335349
C6    C     C_2   0.430734 0.041884 0.504719 -0.335354
C7    C     C_3   0.308211 0.860319 0.022453 -0.292679
C8    C     C_3   0.691782 0.139675 0.977548 -0.292694
C9    C     C_3   0.081218 0.358059 0.099279 -0.133170
C10   C     C_3   0.918767 0.641941 0.900691 -0.133200
C11   C     C_2   0.977774 0.296572 0.471584 1.116177
C12   C     C_R   0.454468 0.205598 0.503177 0.945263
C13   C     C_2   0.022231 0.703429 0.528413 1.116154
C14   C     C_R   0.502718 0.503675 0.741967 0.954466
C15   C     C_R   0.497281 0.496324 0.258033 0.954473
C16   C     C_3   0.429427 0.628042 0.966874 0.500061
C17   C     C_3   0.570572 0.371955 0.033126 0.500078
C18   C     C_3   0.588895 0.630551 0.045250 -0.529829
C19   C     C_3   0.411103 0.369445 0.954750 -0.529834
C20   C     C_3   0.494485 0.497318 0.123522 -0.231429
H1    H     H_    0.657004 0.734998 0.087501 0.176515
H2    H     H_    0.747567 0.036726 0.016262 0.176420
H3    H     H_    0.153340 0.269803 0.145099 0.169950
H4    H     H_    0.057299 0.319934 0.999927 0.176473
H5    H     H_    0.954919 0.365906 0.152870 0.255510
H6    H     H_    0.942687 0.680102 0.000035 0.176456
H7    H     H_    0.846634 0.730171 0.854851 0.169955
H8    H     H_    0.045066 0.634085 0.847103 0.255513
H9    H     H_    0.008664 0.092238 0.375990 0.338128
H10   H     H_    0.991404 0.907775 0.624001 0.338131
H11   H     H_    0.342996 0.264998 0.912498 0.176509
H12   H     H_    0.700140 0.009104 0.486549 0.200565
H13   H     H_    0.299860 0.990896 0.513445 0.200557
H14   H     H_    0.420791 0.904091 0.074585 0.177647
H15   H     H_    0.208872 0.803464 0.089596 0.214269
H16   H     H_    0.252431 0.963271 0.983737 0.176418
H17   H     H_    0.791113 0.196529 0.910398 0.214267
H18   H     H_    0.579197 0.095900 0.925422 0.177654
N1    N     N_2   0.950320 0.457950 0.465730 -0.180275
N2    N     N_2   0.049680 0.542050 0.534270 -0.180288
O1    O     O_R   0.389250 0.738570 0.508410 -0.624367
O2    O     O_3   0.644471 0.241106 0.080070 -0.610031
O3    O     O_3   0.168284 0.506682 0.101409 -0.614883
O4    O     O_3   0.831715 0.493311 0.898594 -0.614908
O5    O     O_2   0.977666 0.234821 0.575259 -0.656516
O6    O     O_R   0.991976 0.206053 0.359504 -0.855111
O7    O     O_2   0.022297 0.765168 0.424736 -0.656498
O8    O     O_R   0.008097 0.793961 0.640489 -0.855118
O9    O     O_R   0.610750 0.261430 0.491590 -0.624374
O10   O     O_R   0.678390 0.711620 0.486450 -0.627755
O11   O     O_R   0.321610 0.288380 0.513550 -0.627760
O12   O     O_R   0.355460 0.513510 0.697030 -0.602845
O13   O     O_R   0.644540 0.486490 0.302970 -0.602849
O14   O     O_R   0.644600 0.486560 0.675070 -0.607051
O15   O     O_R   0.355400 0.513440 0.324930 -0.607036
O16   O     O_3   0.355528 0.758891 0.919930 -0.610020
Zn1   Zn    Zn3+2 0.306940 0.517990 0.514670 1.020540
Zn2   Zn    Zn3+2 0.693060 0.482010 0.485330 1.020533

loop_
_geom_bond_atom_site_label_1
_geom_bond_atom_site_label_2
_ccdc_geom_bond_type
C10   H7    S    
C13   O8    S    
C2    C4    S    
O13   Zn2   S    
C16   O16   S    
C9    H4    S    
C3    C19   S    
O11   Zn1   S    
C18   H1    S    
C2    C16   S    
C1    O10   A    
C8    H2    S    
C6    H13   S    
H9    O6    S    
C5    H12   S    
C19   H11   S    
C12   O11   A    
C10   H6    S    
C12   O9    A    
C9    H5    S    
C3    C20   S    
C11   N1    S    
C3    O3    S    
C15   C20   S    
C8    H18   S    
C7    O16   S    
C1    C5    S    
C4    C17   S    
C15   O13   A    
H10   O8    S    
C17   C19   S    
C8    O2    S    
C18   C20   S    
O15   Zn1   S    
C7    H16   S    
C6    C12   S    
C5    C6    D    
C2    C14   S    
C7    H14   S    
C9    O3    S    
C11   O5    D    
C8    H17   S    
C3    C16   S    
O1    Zn1   S    
O12   Zn1   S    
O10   Zn2   S    
C7    H15   S    
C17   C20   S    
C16   C18   S    
O14   Zn2   S    
C10   H8    S    
N1    N2    D    
C13   O7    D    
C17   O2    S    
C9    H3    S    
C11   O6    S    
N2    Zn1   S    
C4    O4    S    
C14   O14   A    
C2    C19   S    
N1    Zn2   S    
C10   O4    S    
C4    C18   S    
C14   O12   A    
O9    Zn2   S    
C1    O1    A    
C13   N2    S    
C15   O15   A    
