data_mof_unit_18061.cif
_audit_creation_date              2013-03-05T16:09:57-0500
_audit_creation_method            fapswitch 2.2
_symmetry_space_group_name_H-M    P1
_symmetry_Int_Tables_number       1
_space_group_crystal_system       triclinic
_cell_length_a                    10.812465
_cell_length_b                    9.892558
_cell_length_c                    10.85057
_cell_angle_alpha                 89.138111
_cell_angle_beta                  91.966615
_cell_angle_gamma                 89.886753
_cell_volume                      1159.79038626

loop_
_atom_site_label
_atom_site_type_symbol
_atom_site_description
_atom_site_fract_x
_atom_site_fract_y
_atom_site_fract_z
_atom_type_partial_charge
O1    O     O_R   0.316770 0.614620 0.499990 -0.509775
O2    O     O_R   0.683230 0.614620 0.500010 -0.532696
O3    O     O_R   0.316800 0.385290 0.500000 -0.596118
O4    O     O_R   0.683200 0.385290 0.500000 -0.590746
C1    C     C_R   0.260388 0.500746 0.510973 0.979687
C2    C     C_R   0.739997 0.500129 0.489992 0.958370
O5    O     O_R   0.500010 0.614690 0.316770 -0.598408
O6    O     O_R   0.499990 0.614690 0.683230 -0.599694
O7    O     O_R   0.500040 0.385360 0.316770 -0.543607
O8    O     O_R   0.499960 0.385360 0.683230 -0.541277
C3    C     C_R   0.510036 0.500999 0.259936 0.918874
C4    C     C_R   0.489874 0.498135 0.739420 0.937797
Zn1   Zn    Zn3+2 0.500000 0.653120 0.500000 1.086357
Zn2   Zn    Zn3+2 0.500000 0.346880 0.500000 1.123071
C5    C     C_R   0.548026 0.753379 0.094018 0.545582
C6    C     C_R   0.388989 0.722823 0.885372 0.568689
C7    C     C_R   0.502804 0.867089 0.024369 -0.389789
C8    C     C_R   0.414430 0.851191 0.929387 -0.284466
H1    H     H_    0.532821 0.968338 0.043460 0.268388
H2    H     H_    0.370800 0.938599 0.885424 0.247082
C9    C     C_R   0.456518 0.611837 0.936401 -0.166945
C10   C     C_R   0.510067 0.622792 0.054855 -0.097403
C11   C     C_R   0.521877 0.501205 0.125919 -0.236928
C12   C     C_R   0.476114 0.492032 0.872210 -0.252007
C13   C     C_R   0.518625 0.375559 0.064967 0.242965
C14   C     C_R   0.504734 0.371953 0.938265 0.233982
C15   C     C_R   0.061960 0.382976 0.539797 0.124381
C16   C     C_R   0.940684 0.378518 0.489906 0.133299
C17   C     C_R   0.874138 0.500823 0.481011 -0.335709
C18   C     C_R   0.127087 0.504589 0.525599 -0.352729
C19   C     C_R   0.937385 0.624194 0.476049 0.389702
C20   C     C_R   0.062800 0.627929 0.509736 0.353075
C21   C     C_R   0.582575 0.071740 0.573965 0.379559
C22   C     C_R   0.414743 0.074163 0.429299 0.363676
C23   C     C_R   0.584563 0.925803 0.572244 0.345213
C24   C     C_R   0.411933 0.928607 0.432118 0.346219
N1    N     N_R   0.500000 0.857200 0.500000 -0.176224
N2    N     N_R   0.500000 0.142810 0.500000 -0.159848
N3    N     N_R   0.522983 0.248680 0.129733 0.246924
O9    O     O_R   0.428103 0.168551 0.121273 -0.401046
O10   O     O_R   0.626951 0.204440 0.178642 -0.361589
N4    N     N_R   0.516839 0.243704 0.879845 0.258516
O11   O     O_R   0.615313 0.170814 0.903608 -0.394881
O12   O     O_R   0.420048 0.187683 0.827828 -0.343616
O13   O     O_3   0.637228 0.762073 0.189813 -0.615823
C25   C     C_3   0.653885 0.893857 0.235554 -0.189679
H3    H     H_    0.565580 0.947478 0.247860 0.153396
H4    H     H_    0.714922 0.952805 0.174584 0.201555
H5    H     H_    0.698379 0.887134 0.328756 0.217686
O14   O     O_3   0.299871 0.707450 0.792103 -0.586429
C26   C     C_3   0.197948 0.638777 0.841508 -0.290808
H6    H     H_    0.223636 0.536759 0.878695 0.192874
H7    H     H_    0.127334 0.622604 0.767194 0.192013
H8    H     H_    0.154685 0.699794 0.913969 0.146504
N5    N     N_R   0.110653 0.278076 0.622718 0.222490
O15   O     O_R   0.201632 0.305531 0.699893 -0.364809
O16   O     O_R   0.047684 0.169163 0.644294 -0.453209
N6    N     N_R   0.897895 0.264401 0.418375 0.215268
O17   O     O_R   0.821940 0.285252 0.324460 -0.343339
O18   O     O_R   0.954448 0.148568 0.425475 -0.463892
O19   O     O_3   0.880370 0.738779 0.426356 -0.570052
C27   C     C_3   0.922168 0.759234 0.305076 -0.226150
H9    H     H_    0.906587 0.866271 0.277338 0.192684
H10   H     H_    0.870050 0.693050 0.239959 0.199650
H11   H     H_    0.023013 0.741405 0.295483 0.157636
O20   O     O_3   0.125782 0.750184 0.514676 -0.545321
C28   C     C_3   0.069018 0.842517 0.593556 -0.038327
H12   H     H_    0.142691 0.901389 0.641832 0.203699
H13   H     H_    0.012056 0.794007 0.665499 0.097890
H14   H     H_    0.010944 0.914786 0.538071 0.224493
O21   O     O_3   0.649834 0.144211 0.660902 -0.563818
C29   C     C_3   0.778026 0.125032 0.652617 -0.014338
H15   H     H_    0.806018 0.062389 0.573966 0.184985
H16   H     H_    0.816108 0.080060 0.739854 0.169667
H17   H     H_    0.820584 0.225907 0.646103 0.193263
O22   O     O_3   0.338751 0.149037 0.349207 -0.570541
C30   C     C_3   0.213626 0.134362 0.377821 0.002645
H18   H     H_    0.198862 0.096946 0.473456 0.179174
H19   H     H_    0.165879 0.067279 0.311052 0.171634
H20   H     H_    0.168824 0.234419 0.365036 0.179132
O23   O     O_3   0.678251 0.852062 0.632587 -0.576373
C31   C     C_3   0.669077 0.856677 0.762042 -0.195192
H21   H     H_    0.607126 0.937040 0.795083 0.215049
H22   H     H_    0.762657 0.871763 0.804346 0.151232
H23   H     H_    0.638432 0.757848 0.797886 0.181406
O24   O     O_3   0.310495 0.859093 0.384499 -0.536738
C32   C     C_3   0.306412 0.858626 0.254543 -0.217651
H24   H     H_    0.353919 0.944984 0.210826 0.203284
H25   H     H_    0.208317 0.862265 0.221532 0.149502
H26   H     H_    0.342940 0.761986 0.221958 0.177766

loop_
_geom_bond_atom_site_label_1
_geom_bond_atom_site_label_2
_geom_bond_distance
_ccdc_geom_bond_type
C32   H24   1.106777 S    
C6    C9    1.412785 A    
C19   O19   1.382647 S    
N5    O15   1.301555 A    
O23   C31   1.412966 S    
C23   O23   1.387152 S    
N3    O10   1.298854 A    
C30   H18   1.113260 S    
O5    C3    1.296904 A    
C25   H5    1.105921 S    
O6    Zn1   2.018551 S    
O1    C1    1.287841 A    
C16   C17   1.406839 A    
C23   N1    1.371254 A    
C12   C14   1.406508 A    
C15   N5    1.449427 S    
N6    O18   1.297785 A    
C8    H2    1.080879 S    
O2    Zn1   2.016700 S    
C27   H10   1.110629 S    
C7    H1    1.074422 S    
C5    C10   1.422857 A    
Zn1   N1    2.018873 S    
O20   C28   1.414538 S    
C9    C10   1.397250 A    
C15   C18   1.404349 A    
O2    C2    1.294953 A    
N4    O12   1.300813 A    
C29   H17   1.102042 S    
O14   C26   1.412779 S    
C30   H19   1.105413 S    
C25   H4    1.110474 S    
C28   H12   1.109271 S    
O22   C30   1.405739 S    
C29   H16   1.106039 S    
O8    Zn2   2.029895 S    
N3    O9    1.299296 A    
O24   C32   1.409349 S    
C24   O24   1.384780 S    
C13   C14   1.378841 A    
O13   C25   1.411593 S    
C26   H6    1.112408 S    
C28   H13   1.114411 S    
O7    Zn2   2.018649 S    
C27   H9    1.107432 S    
Zn2   N2    2.018775 S    
C19   C20   1.392985 A    
O6    C4    1.302720 A    
C7    C8    1.392064 A    
O7    C3    1.297871 A    
O3    Zn2   2.016221 S    
O8    C4    1.285613 A    
O4    C2    1.297370 A    
C31   H22   1.107944 S    
N5    O16   1.298253 A    
C9    C12   1.403080 A    
O1    Zn1   2.018181 S    
N4    O11   1.301015 A    
C5    O13   1.397241 S    
C14   N4    1.434510 S    
C20   O20   1.389962 S    
C1    C18   1.455906 S    
C30   H20   1.105886 S    
C5    C7    1.422138 A    
C25   H3    1.104407 S    
C24   N1    1.371781 A    
C27   H11   1.112857 S    
C22   N2    1.367148 A    
C6    O14   1.383504 S    
C29   H15   1.112128 S    
O3    C1    1.302713 A    
C16   N6    1.447294 S    
C31   H23   1.102537 S    
C4    C12   1.453947 S    
C21   N2    1.366355 A    
C28   H14   1.107784 S    
C26   H8    1.113441 S    
C32   H25   1.108138 S    
N6    O17   1.300389 A    
O21   C29   1.404735 S    
C17   C19   1.401405 A    
C13   N3    1.429134 S    
C18   C20   1.408432 A    
C3    C11   1.464123 S    
C21   C23   1.444215 A    
C22   C24   1.440186 A    
C11   C13   1.416653 A    
O4    Zn2   2.017696 S    
O19   C27   1.417785 S    
C21   O21   1.381314 S    
O5    Zn1   2.029785 S    
C2    C17   1.457013 S    
C6    C8    1.388163 A    
C31   H21   1.110044 S    
C32   H26   1.101471 S    
C15   C16   1.402398 A    
C10   C11   1.422095 A    
C26   H7    1.104911 S    
C22   O22   1.381376 S    
