data_mof_unit_49633.cif
_audit_creation_date              2012-12-11T15:39:05-0500
_audit_creation_method            fapswitch 2.2
_symmetry_space_group_name_H-M    P1
_symmetry_Int_Tables_number       1
_space_group_crystal_system       triclinic
_cell_length_a                    14.293263
_cell_length_b                    14.812863
_cell_length_c                    33.248883
_cell_angle_alpha                 97.996195
_cell_angle_beta                  90.349286
_cell_angle_gamma                 118.688268
_cell_volume                      6093.8457071

loop_
_atom_site_label
_atom_site_type_symbol
_atom_type_description
_atom_site_fract_x
_atom_site_fract_y
_atom_site_fract_z
_atom_type_partial_charge
C1    C     C_R   0.617168 0.909920 0.437125 0.545748
C2    C     C_R   0.742857 0.421404 0.186901 0.021027
C3    C     C_R   0.713164 0.903796 0.655882 -0.074256
C4    C     C_R   0.631196 0.808413 0.664167 0.061578
C5    C     C_R   0.632425 0.865518 0.587257 -0.003742
C6    C     C_R   0.051444 0.780853 0.064110 0.544681
C7    C     C_R   0.744115 0.487141 0.066240 0.541521
C8    C     C_R   0.742533 0.789587 0.066369 0.575588
C9    C     C_R   0.021289 0.731522 0.947400 0.546658
C10   C     C_R   0.711946 0.436945 0.949357 0.540903
C11   C     C_R   0.710200 0.739707 0.950472 0.552732
C12   C     C_R   0.825131 0.426874 0.162876 -0.109837
C13   C     C_R   0.822990 0.442292 0.122486 -0.117857
C14   C     C_R   0.762332 0.333794 0.242381 -0.101408
C15   C     C_R   0.753590 0.318280 0.282843 -0.099126
C16   C     C_R   0.731306 0.382810 0.311780 0.031294
C17   C     C_R   0.722727 0.465973 0.299858 -0.104169
C18   C     C_R   0.730209 0.480625 0.259298 -0.104319
C19   C     C_R   0.747557 0.413105 0.230219 0.023297
C20   C     C_R   0.622051 0.361882 0.371726 -0.113918
C21   C     C_R   0.594973 0.207084 0.457108 0.562220
C22   C     C_R   0.589250 0.323414 0.408348 0.049850
C23   C     C_R   0.731897 0.277869 0.408248 -0.136430
C24   C     C_R   0.765462 0.319335 0.372777 -0.120093
C25   C     C_R   0.707865 0.357043 0.353145 0.004752
C26   C     C_R   0.640387 0.273974 0.425388 0.002131
C27   C     C_R   0.238333 0.875651 0.394483 0.016336
C28   C     C_R   0.221321 0.955005 0.382904 -0.102979
C29   C     C_R   0.190079 0.950255 0.342416 -0.098055
C30   C     C_R   0.174678 0.865895 0.313142 0.038989
C31   C     C_R   0.184117 0.783226 0.324891 -0.094148
C32   C     C_R   0.294653 0.892391 0.434586 0.548937
C33   C     C_R   0.215571 0.787855 0.365332 -0.127316
C34   C     C_R   0.177006 0.791366 0.165661 0.053728
C35   C     C_R   0.155626 0.776304 0.123214 -0.121060
C36   C     C_R   0.089432 0.900002 0.130490 -0.122092
C37   C     C_R   0.111856 0.917417 0.172688 -0.128658
C38   C     C_R   0.151280 0.860803 0.190594 0.007131
C39   C     C_1   0.155946 0.868055 0.234317 0.041237
C40   C     C_1   0.161680 0.868809 0.270542 0.029590
C41   C     C_R   0.106672 0.825719 0.105542 -0.011015
C42   C     C_R   0.639640 0.875995 0.396213 -0.004919
C43   C     C_R   0.614178 0.905295 0.551508 0.549733
C44   C     C_R   0.554651 0.807633 0.367181 -0.129172
C45   C     C_R   0.572927 0.794229 0.326253 -0.138585
C46   C     C_R   0.676380 0.847287 0.313770 0.009744
C47   C     C_R   0.764551 0.908849 0.343025 0.062099
C48   C     C_R   0.744532 0.923497 0.384153 -0.127575
C49   C     C_R   0.788260 0.921926 0.175277 0.037657
C50   C     C_R   0.797490 0.905820 0.133282 -0.164572
C51   C     C_R   0.616810 0.757989 0.122394 0.023097
C52   C     C_R   0.609059 0.768931 0.165059 0.017934
C53   C     C_R   0.696198 0.848653 0.191378 -0.032386
C54   C     C_R   0.589550 0.198878 0.571091 0.554948
C55   C     C_1   0.692580 0.849276 0.234818 0.097991
C56   C     C_1   0.686831 0.847678 0.270815 0.085688
C57   C     C_R   0.715607 0.821674 0.107029 -0.037632
C58   C     C_R   0.622140 0.246028 0.614456 -0.009563
C59   C     C_R   0.559916 0.280485 0.637303 -0.096341
C60   C     C_R   0.575119 0.300932 0.679723 -0.112008
C61   C     C_R   0.652745 0.287571 0.699953 0.009341
C62   C     C_R   0.721655 0.260221 0.677388 0.063086
C63   C     C_R   0.705327 0.240124 0.634680 -0.123377
C64   C     C_R   0.757024 0.336390 0.845389 -0.096286
C65   C     C_R   0.285679 0.885708 0.547624 0.578274
C66   C     C_R   0.769747 0.366875 0.887588 -0.130557
C67   C     C_R   0.588547 0.340479 0.886426 -0.123325
C68   C     C_R   0.576083 0.310020 0.844220 -0.114452
C69   C     C_R   0.661733 0.311954 0.823561 0.046335
C70   C     C_1   0.656423 0.300630 0.779984 0.029775
C71   C     C_1   0.654383 0.294748 0.743534 0.042558
C72   C     C_R   0.687393 0.374166 0.908269 0.020897
C73   C     C_R   0.066961 0.751465 0.908273 0.029107
C74   C     C_R   0.108148 0.850919 0.897331 -0.101633
C75   C     C_R   0.131997 0.864760 0.857356 -0.054268
C76   C     C_R   0.737787 0.451049 0.105657 0.012185
C77   C     C_R   0.112560 0.778826 0.827960 0.091360
C78   C     C_R   0.076613 0.680620 0.839259 -0.053041
C79   C     C_R   0.055052 0.667188 0.879342 -0.103136
C80   C     C_R   0.198896 0.771891 0.763240 0.045027
C81   C     C_R   0.204472 0.779614 0.721881 -0.096228
C82   C     C_R   0.138563 0.808093 0.702130 -0.029475
C83   C     C_R   0.063624 0.826303 0.723140 -0.105469
C84   C     C_R   0.052065 0.814632 0.764099 0.045253
C85   C     C_R   0.122164 0.789658 0.784735 -0.036753
C86   C     C_R   0.178028 0.917805 0.648238 -0.108691
C87   C     C_R   0.652599 0.439266 0.129264 -0.107104
C88   C     C_R   0.206370 0.936470 0.608878 0.028576
C89   C     C_R   0.166452 0.754851 0.590509 0.036996
C90   C     C_R   0.140427 0.739242 0.630306 -0.107436
C91   C     C_R   0.151271 0.821604 0.659465 -0.017458
C92   C     C_R   0.212781 0.857703 0.581010 -0.013870
C93   C     C_R   0.660427 0.743500 0.912571 0.030608
C94   C     C_R   0.599060 0.651412 0.884871 -0.114399
C95   C     C_R   0.576585 0.656683 0.844662 -0.099362
C96   C     C_R   0.613758 0.753942 0.832065 0.040278
C97   C     C_R   0.666376 0.845474 0.860732 -0.093824
C98   C     C_R   0.655541 0.425261 0.169603 -0.105745
C99   C     C_R   0.690087 0.840307 0.900701 -0.102848
C100  C     C_R   0.577116 0.827559 0.775098 -0.112652
C101  C     C_R   0.581051 0.841784 0.734342 0.076272
C102  C     C_R   0.623930 0.791253 0.706843 0.007113
C103  C     C_R   0.658952 0.724820 0.720540 0.074031
C104  C     C_R   0.649321 0.709475 0.761231 -0.101834
C105  C     C_R   0.610143 0.761420 0.788537 -0.047548
C106  C     C_R   0.553590 0.736093 0.632695 0.101994
C107  C     C_R   0.556662 0.765605 0.594225 -0.099533
C108  C     C_R   0.713765 0.932364 0.617730 -0.094457
Cr1   Cr    Cr6+3 0.424820 0.846020 0.489780 1.063823
Cr2   Cr    Cr6+3 0.657880 0.078580 0.505700 1.050120
Cr3   Cr    Cr6+3 0.417280 0.075360 0.504550 1.111835
Cr4   Cr    Cr6+3 0.903360 0.812540 0.006510 1.035735
Cr5   Cr    Cr6+3 0.914630 0.587050 0.006280 1.030754
Cr6   Cr    Cr6+3 0.673560 0.582680 0.008540 1.063958
H1    H     H_    0.585871 0.445798 0.117252 0.175287
H2    H     H_    0.892863 0.423477 0.175844 0.131331
H3    H     H_    0.775084 0.243706 0.420992 0.153597
H4    H     H_    0.172399 0.717520 0.302398 0.140312
H5    H     H_    0.237973 0.023670 0.404600 0.159946
H6    H     H_    0.092593 0.970856 0.191655 0.172047
H7    H     H_    0.051020 0.938691 0.117849 0.153205
H8    H     H_    0.889852 0.451479 0.105021 0.143551
H9    H     H_    0.183056 0.014645 0.333632 0.140913
H10   H     H_    0.871407 0.956901 0.121160 0.172382
H11   H     H_    0.810506 0.974501 0.406761 0.170306
H12   H     H_    0.472972 0.770395 0.375572 0.140937
H13   H     H_    0.834019 0.317748 0.359735 0.128021
H14   H     H_    0.754458 0.214673 0.617142 0.179701
H15   H     H_    0.495791 0.286355 0.622528 0.169569
H16   H     H_    0.501921 0.290939 0.827494 0.115213
H17   H     H_    0.523568 0.345143 0.901396 0.132822
H18   H     H_    0.522839 0.322802 0.696880 0.148358
H19   H     H_    0.117790 0.916768 0.919245 0.120919
H20   H     H_    0.759054 0.252589 0.290996 0.128530
H21   H     H_    0.263317 0.767247 0.705118 0.191577
H22   H     H_    0.011725 0.846188 0.706946 0.176823
H23   H     H_    0.179551 0.979231 0.670658 0.160648
H24   H     H_    0.061257 0.613798 0.816685 0.127493
H25   H     H_    0.576056 0.575898 0.893329 0.127005
H26   H     H_    0.775260 0.280764 0.220228 0.130527
H27   H     H_    0.737347 0.912204 0.921675 0.131189
H28   H     H_    0.773146 0.958819 0.679850 0.142333
H29   H     H_    0.535097 0.585262 0.822909 0.118276
H30   H     H_    0.494542 0.713300 0.570440 0.168448
H31   H     H_    0.590414 0.419241 0.187592 0.139182
H32   H     H_    0.773397 0.009534 0.613072 0.174237
H33   H     H_    0.707749 0.518100 0.321664 0.118170
H34   H     H_    0.720280 0.543359 0.250389 0.127371
O1    O     O_R   0.318160 0.824460 0.443680 -0.509112
O2    O     O_R   0.645130 0.163230 0.552140 -0.502803
O3    O     O_R   0.498360 0.178430 0.555780 -0.485739
O4    O     O_R   0.328690 0.978040 0.538950 -0.465325
O5    O     O_3   0.499990 0.999990 0.500010 -0.266657
O6    O     O_R   0.828710 0.851830 0.052170 -0.520895
O7    O     O_R   0.005980 0.823990 0.047210 -0.501035
O8    O     O_R   0.031900 0.688850 0.050170 -0.510230
O9    O     O_R   0.830940 0.518420 0.048680 -0.500965
O10   O     O_R   0.668160 0.499860 0.053480 -0.504090
O11   O     O_R   0.689170 0.693840 0.050110 -0.468474
O12   O     O_R   0.525040 0.857250 0.449830 -0.500648
O13   O     O_R   0.803860 0.812940 0.962540 -0.507316
O14   O     O_R   0.982950 0.787950 0.964120 -0.494394
O15   O     O_R   0.007050 0.649970 0.960540 -0.515920
O16   O     O_R   0.807910 0.482370 0.965590 -0.502229
O17   O     O_R   0.643310 0.460980 0.963840 -0.517011
O18   O     O_R   0.666140 0.657800 0.967020 -0.496115
O19   O     O_3   0.830520 0.660760 0.007110 -0.253051
O20   O     O_R   0.684760 0.998800 0.456360 -0.509534
O21   O     O_R   0.647540 0.166310 0.470260 -0.509327
O22   O     O_R   0.500960 0.181750 0.467450 -0.468924
O23   O     O_R   0.331100 0.981120 0.457080 -0.496643
O24   O     O_R   0.315560 0.821140 0.532010 -0.477225
O25   O     O_R   0.522630 0.854180 0.531710 -0.498753
O26   O     O_R   0.682160 0.995480 0.544690 -0.506710
C109  C     C_2   0.503406 0.337953 0.427893 0.590309
O27   O     O_2   0.427500 0.328224 0.406934 -0.516481
O28   O     O_R   0.511612 0.367359 0.470148 -0.659714
H35   H     H_    0.448760 0.375958 0.479783 0.352801
H36   H     H_    0.170438 0.720033 0.103897 0.175349
C110  C     C_2   0.219259 0.728441 0.182716 0.600144
O29   O     O_2   0.219324 0.654884 0.160819 -0.490400
O30   O     O_R   0.259241 0.752459 0.223513 -0.686691
H37   H     H_    0.279355 0.700219 0.231714 0.360007
H38   H     H_    0.228021 0.725644 0.373182 0.134983
C111  C     C_2   0.877130 0.014122 0.201490 0.587897
O31   O     O_2   0.965903 0.058847 0.189025 -0.548262
O32   O     O_R   0.859089 0.052457 0.239818 -0.681681
H39   H     H_    0.925698 0.115488 0.254390 0.348200
C112  C     C_2   0.876950 0.960400 0.331531 0.585280
O33   O     O_2   0.946907 0.034940 0.354461 -0.520872
O34   O     O_R   0.903900 0.922436 0.295089 -0.688238
H40   H     H_    0.982833 0.963797 0.290989 0.338951
C113  C     C_2   0.510564 0.697789 0.182749 0.606997
O35   O     O_2   0.458169 0.732723 0.201127 -0.502774
O36   O     O_R   0.480976 0.592338 0.180075 -0.666517
H41   H     H_    0.413304 0.552326 0.193867 0.346569
C114  C     C_2   0.521645 0.685360 0.093490 0.614992
O37   O     O_2   0.461076 0.597101 0.099743 -0.462948
O38   O     O_R   0.502767 0.718493 0.058412 -0.690473
H42   H     H_    0.436658 0.662629 0.040810 0.338328
H43   H     H_    0.505144 0.746693 0.303945 0.142510
H44   H     H_    0.846835 0.392318 0.903444 0.128977
H45   H     H_    0.823691 0.337882 0.829564 0.149292
C115  C     C_2   0.808034 0.247744 0.697004 0.588390
O39   O     O_2   0.841655 0.286007 0.732562 -0.514700
O40   O     O_R   0.852544 0.193096 0.674364 -0.720159
H46   H     H_    0.910241 0.189599 0.690887 0.348579
H47   H     H_    0.022239 0.589492 0.886984 0.125372
H48   H     H_    0.111746 0.662788 0.638836 0.165885
C116  C     C_2   0.275177 0.746075 0.782706 0.569580
O41   O     O_2   0.309114 0.780743 0.818450 -0.517111
O42   O     O_R   0.309853 0.683037 0.759612 -0.679539
H49   H     H_    0.359468 0.668635 0.776242 0.346430
H50   H     H_    0.160381 0.941072 0.848812 0.114954
C117  C     C_2   0.963497 0.825563 0.783486 0.571089
O43   O     O_2   0.918686 0.776118 0.810538 -0.517431
O44   O     O_R   0.928708 0.890305 0.769626 -0.708791
H51   H     H_    0.867976 0.891274 0.784933 0.339110
C118  C     C_2   0.227383 0.038352 0.598473 0.599369
O45   O     O_2   0.194707 0.042912 0.565139 -0.481590
O46   O     O_R   0.279496 0.128478 0.627669 -0.713677
H52   H     H_    0.287212 0.192720 0.617290 0.345732
C119  C     C_2   0.142270 0.662249 0.559519 0.607675
O47   O     O_2   0.144670 0.586968 0.569576 -0.491855
O48   O     O_R   0.113101 0.659700 0.518966 -0.670234
H53   H     H_    0.097831 0.592376 0.500830 0.343336
C120  C     C_2   0.538891 0.909446 0.721933 0.585529
O49   O     O_2   0.503966 0.897300 0.686792 -0.519064
O50   O     O_R   0.536479 0.985962 0.751093 -0.699929
H54   H     H_    0.505598 0.026465 0.739227 0.342419
H55   H     H_    0.546133 0.866558 0.796592 0.182703
C121  C     C_2   0.707192 0.671261 0.693839 0.589456
O51   O     O_2   0.745196 0.702320 0.662475 -0.513813
O52   O     O_R   0.711074 0.585545 0.705203 -0.703374
H56   H     H_    0.746036 0.555982 0.684922 0.348567
H57   H     H_    0.677721 0.660911 0.772456 0.181030
C122  C     C_2   0.465010 0.632862 0.639296 0.596297
O53   O     O_2   0.419001 0.563276 0.610161 -0.493026
O54   O     O_R   0.432142 0.614893 0.678284 -0.678697
H58   H     H_    0.371039 0.541813 0.678362 0.356420
H59   H     H_    0.696081 0.921256 0.851528 0.120472
H60   H     H_    0.578642 0.393401 0.357189 0.140846

loop_
_geom_bond_atom_site_label_1
_geom_bond_atom_site_label_2
_ccdc_geom_bond_type
C65   C92   S    
C96   C105  S    
C49   C53   A    
C95   H29   S    
C101  C102  A    
C73   C74   A    
C34   C110  S    
C95   C96   A    
C21   C26   S    
C2    C12   A    
Cr3   O4    S    
C60   H18   S    
C80   C85   A    
C22   C109  S    
C115  O40   S    
Cr6   O19   S    
C109  O28   S    
C7    O10   A    
C77   C78   A    
C27   C33   A    
C2    C98   A    
C20   H60   S    
Cr4   O13   S    
C44   H12   S    
C100  C105  A    
O50   H54   S    
C42   C44   A    
C83   C84   A    
C28   C29   A    
C17   H33   S    
O54   H58   S    
C67   C72   A    
C18   H34   S    
C86   C91   A    
C117  O44   S    
C5    C107  A    
C38   C39   S    
C43   O26   A    
Cr1   O25   S    
C111  O32   S    
Cr5   O15   S    
C106  C107  A    
C15   C16   A    
C74   H19   S    
C103  C104  A    
C11   O13   A    
C18   C19   A    
O42   H49   S    
C9    O15   A    
C34   C35   A    
Cr1   O12   S    
C23   C26   A    
C114  O38   S    
O30   H37   S    
Cr6   O10   S    
C51   C114  S    
C86   H23   S    
C48   H11   S    
Cr2   O20   S    
C66   C72   A    
C32   O1    A    
C88   C92   A    
C16   C17   A    
C113  O36   S    
C6    C41   S    
C4    C102  S    
C17   C18   A    
C11   O18   A    
C23   C24   A    
C31   C33   A    
Cr6   O18   S    
C70   C71   T    
C51   C57   A    
O40   H46   S    
Cr1   O5    S    
C93   C99   A    
C87   H1    S    
C63   H14   S    
Cr1   O24   S    
C87   C98   A    
C47   C112  S    
C11   C93   S    
C53   C55   S    
C5    C43   S    
C77   C85   S    
C59   C60   A    
Cr4   O6    S    
C122  O53   D    
C94   H25   S    
C36   C41   A    
C102  C103  A    
C3    H28   S    
C9    C73   S    
C1    O12   A    
C33   H38   S    
C35   C41   A    
C78   H24   S    
C104  C105  A    
C97   C99   A    
C110  O30   S    
C81   H21   S    
C108  H32   S    
Cr2   O26   S    
C35   H36   S    
C44   C45   A    
C74   C75   A    
C65   O24   A    
C51   C52   A    
C47   C48   A    
C20   C25   A    
C50   H10   S    
C24   C25   A    
C119  O47   D    
C54   O2    A    
C21   O22   A    
C118  O45   D    
C15   H20   S    
C78   C79   A    
C68   C69   A    
C1    O20   A    
O44   H51   S    
C45   C46   A    
Cr4   O19   S    
C4    C106  A    
Cr4   O7    S    
C81   C82   A    
C82   C91   S    
C103  C121  S    
C60   C61   A    
C84   C117  S    
C64   C66   A    
C23   H3    S    
C37   C38   A    
Cr1   O1    S    
C67   C68   A    
C31   H4    S    
C89   C119  S    
C29   C30   A    
C8    C57   S    
C118  O46   S    
O46   H52   S    
C75   C77   A    
C120  O49   D    
C13   C76   A    
C104  H57   S    
C96   C97   A    
C55   C56   T    
C121  O52   S    
O48   H53   S    
C73   C79   A    
C6    O7    A    
C30   C40   S    
C112  O33   D    
C93   C94   A    
C42   C48   A    
C64   C69   A    
C84   C85   A    
C89   C92   A    
C68   H16   S    
Cr3   O5    S    
C76   C87   A    
C62   C115  S    
C83   H22   S    
C54   O3    A    
C9    O14   A    
C45   H43   S    
C120  O50   S    
C32   O23   A    
C14   H26   S    
O28   H35   S    
C94   C95   A    
C116  O42   S    
C82   C83   A    
C122  O54   S    
C49   C50   A    
C58   C59   A    
O52   H56   S    
Cr5   O8    S    
C3    C4    A    
C89   C90   A    
C39   C40   T    
C8    O6    A    
C52   C53   A    
Cr6   O17   S    
C80   C116  S    
C54   C58   S    
C16   C25   S    
C46   C47   A    
C59   H15   S    
C10   O16   A    
C2    C19   S    
C34   C38   A    
C50   C57   A    
C14   C19   A    
C64   H45   S    
C100  H55   S    
C67   H17   S    
C52   C113  S    
C58   C63   A    
C20   C22   A    
C80   C81   A    
Cr2   O2    S    
C28   H5    S    
Cr3   O3    S    
Cr5   O19   S    
C90   H48   S    
C119  O48   S    
C99   H27   S    
C7    C76   S    
C7    O9    A    
C98   H31   S    
C3    C108  A    
Cr4   O14   S    
C75   H50   S    
C111  O31   D    
C88   C118  S    
C101  C120  S    
Cr3   O22   S    
Cr5   O9    S    
C65   O4    A    
C61   C62   A    
C36   H7    S    
C107  H30   S    
O32   H39   S    
C109  O27   D    
Cr5   O16   S    
C13   H8    S    
C43   O25   A    
C61   C71   S    
C90   C91   A    
C30   C31   A    
C37   H6    S    
C10   O17   A    
C21   O21   A    
C29   H9    S    
C100  C101  A    
C24   H13   S    
C86   C88   A    
C116  O41   D    
C117  O43   D    
C114  O37   D    
O34   H40   S    
C69   C70   S    
Cr6   O11   S    
C27   C32   S    
C97   H59   S    
O36   H41   S    
C66   H44   S    
Cr2   O21   S    
C1    C42   S    
O38   H42   S    
C49   C111  S    
C115  O39   D    
C106  C122  S    
C36   C37   A    
C113  O35   D    
C22   C26   A    
C46   C56   S    
C27   C28   A    
Cr2   O5    S    
C14   C15   A    
C12   C13   A    
C62   C63   A    
C8    O11   A    
C5    C108  A    
C6    O8    A    
C110  O29   D    
C79   H47   S    
C121  O51   D    
C112  O34   S    
C12   H2    S    
Cr3   O23   S    
C10   C72   S    
