data_mof_unit_68103.cif
_audit_creation_date              2013-03-05T15:58:24-0500
_audit_creation_method            fapswitch 2.2
_symmetry_space_group_name_H-M    P1
_symmetry_Int_Tables_number       1
_space_group_crystal_system       triclinic
_cell_length_a                    7.483167
_cell_length_b                    14.822203
_cell_length_c                    16.08236
_cell_angle_alpha                 90.0008
_cell_angle_beta                  89.998648
_cell_angle_gamma                 90.003551
_cell_volume                      1783.80744741

loop_
_atom_site_label
_atom_site_type_symbol
_atom_site_description
_atom_site_fract_x
_atom_site_fract_y
_atom_site_fract_z
_atom_type_partial_charge
O1    O     O_R   0.388780 0.834790 0.412340 -0.555974
O2    O     O_R   0.111220 0.165210 0.912340 -0.555965
O3    O     O_R   0.888780 0.665210 0.587660 -0.555965
O4    O     O_R   0.611220 0.334790 0.087660 -0.555948
O5    O     O_R   0.059040 0.845930 0.587040 -0.567402
O6    O     O_R   0.440960 0.154070 0.087040 -0.567418
O7    O     O_R   0.559040 0.654070 0.412960 -0.567563
O8    O     O_R   0.940960 0.345930 0.912960 -0.567396
C1    C     C_R   0.229839 0.871331 0.611056 1.110021
C2    C     C_R   0.270162 0.128669 0.111057 1.110029
C3    C     C_R   0.729834 0.628703 0.388914 1.110273
C4    C     C_R   0.770166 0.371330 0.888942 1.110064
O9    O     O_R   0.059070 0.845930 0.412970 -0.575202
O10   O     O_R   0.440930 0.154070 0.912970 -0.575183
O11   O     O_R   0.559070 0.654070 0.587030 -0.575186
O12   O     O_R   0.940930 0.345930 0.087030 -0.575146
O13   O     O_R   0.888760 0.665210 0.412340 -0.530882
O14   O     O_R   0.611240 0.334790 0.912340 -0.530851
O15   O     O_R   0.388760 0.834790 0.587660 -0.530828
O16   O     O_R   0.111240 0.165210 0.087660 -0.530818
C5    C     C_R   0.227042 0.866088 0.384136 1.055632
C6    C     C_R   0.272961 0.133906 0.884141 1.055667
C7    C     C_R   0.727035 0.633900 0.615855 1.056071
C8    C     C_R   0.772960 0.366104 0.115854 1.055640
O17   O     O_3   0.222280 0.690700 0.500000 -0.244002
O18   O     O_3   0.277720 0.309300 0.000000 -0.243911
O19   O     O_3   0.722280 0.809300 0.500000 -0.243950
O20   O     O_3   0.777720 0.190700 0.000000 -0.243926
V1    V     V_3+5 0.947430 0.761000 0.500000 1.418803
V2    V     V_3+5 0.552570 0.239000 0.000000 1.418846
V3    V     V_3+5 0.447430 0.739000 0.500000 1.418791
V4    V     V_3+5 0.052570 0.261000 0.000000 1.418901
C9    C     C_3   0.841300 0.606810 0.765649 0.038843
C10   C     C_3   0.658811 0.393196 0.265686 0.039107
C11   C     C_3   0.341318 0.893184 0.234328 0.038935
C12   C     C_3   0.158709 0.106814 0.734340 0.038961
H1    H     H_    0.976921 0.619431 0.740636 0.209385
H2    H     H_    0.523118 0.380606 0.240740 0.209284
H3    H     H_    0.476941 0.880567 0.259334 0.209406
H4    H     H_    0.023083 0.119433 0.759344 0.209400
C13   C     C_3   0.854289 0.537876 0.842423 0.343834
C14   C     C_3   0.645953 0.462119 0.342486 0.343621
C15   C     C_3   0.354290 0.962127 0.157557 0.343796
C16   C     C_3   0.145736 0.037876 0.657566 0.343763
H5    H     H_    0.976101 0.392136 0.751742 0.231315
H6    H     H_    0.523866 0.607892 0.251763 0.231409
H7    H     H_    0.476108 0.107873 0.248253 0.231284
H8    H     H_    0.023905 0.892126 0.748248 0.231298
C17   C     C_3   0.826469 0.475878 0.664918 0.276223
C18   C     C_3   0.673369 0.524097 0.164927 0.275981
C19   C     C_3   0.326490 0.024103 0.335073 0.276108
C20   C     C_3   0.173496 0.975894 0.835076 0.276069
C21   C     C_3   0.544833 0.539305 0.721541 -0.439906
C22   C     C_3   0.955172 0.460780 0.221477 -0.439853
C23   C     C_3   0.044852 0.960656 0.278446 -0.439936
C24   C     C_3   0.455162 0.039319 0.778460 -0.439891
C25   C     C_3   0.735374 0.566488 0.690761 -0.458201
C26   C     C_3   0.764615 0.433526 0.190758 -0.457957
C27   C     C_3   0.235393 0.933492 0.309224 -0.458149
C28   C     C_3   0.264618 0.066499 0.809233 -0.458140
H9    H     H_    0.475662 0.505747 0.668623 0.251717
H10   H     H_    0.024198 0.494375 0.168535 0.251681
H11   H     H_    0.975666 0.994198 0.331368 0.251734
H12   H     H_    0.524318 0.005765 0.831382 0.251720
H13   H     H_    0.459895 0.599206 0.731617 0.280510
H14   H     H_    0.040244 0.400920 0.231518 0.280480
H15   H     H_    0.959941 0.900742 0.268361 0.280492
H16   H     H_    0.540103 0.099224 0.768384 0.280507
C29   C     C_3   0.751054 0.445602 0.819601 -0.637832
C30   C     C_3   0.748965 0.554431 0.319579 -0.637834
C31   C     C_3   0.251055 0.054390 0.180392 -0.637854
C32   C     C_3   0.248958 0.945606 0.680396 -0.637862
C33   C     C_3   0.834656 0.405633 0.737581 0.053716
C34   C     C_3   0.665280 0.594368 0.237571 0.053895
C35   C     C_3   0.334664 0.094357 0.262416 0.053823
C36   C     C_3   0.165344 0.905640 0.762417 0.053853
C37   C     C_3   0.549382 0.474134 0.799376 0.660190
C38   C     C_3   0.950649 0.525938 0.299321 0.659989
C39   C     C_3   0.049395 0.025836 0.200618 0.660213
C40   C     C_3   0.450625 0.974143 0.700628 0.660191
H17   H     H_    0.740596 0.448900 0.615911 0.208183
H18   H     H_    0.759089 0.551063 0.115863 0.208167
H19   H     H_    0.240641 0.051054 0.384103 0.208113
H20   H     H_    0.259320 0.948940 0.884110 0.208139
Cl1   Cl    Cl    0.414381 0.378638 0.771916 -0.448377
Cl2   Cl    Cl    0.085621 0.621437 0.271860 -0.448365
Cl3   Cl    Cl    0.914399 0.121310 0.228093 -0.448199
Cl4   Cl    Cl    0.585611 0.878652 0.728096 -0.448302
N1    N     N_R   0.759061 0.316622 0.713554 0.292971
O21   O     O_R   0.769877 0.248645 0.764516 -0.365366
O22   O     O_R   0.711492 0.299321 0.637322 -0.179712
N2    N     N_R   0.740904 0.683361 0.213506 0.292933
O23   O     O_R   0.730151 0.751358 0.264451 -0.365410
O24   O     O_R   0.788537 0.700618 0.137272 -0.179718
N3    N     N_R   0.259074 0.183360 0.286452 0.292977
O25   O     O_R   0.269973 0.251352 0.235510 -0.365295
O26   O     O_R   0.211397 0.200631 0.362676 -0.179706
N4    N     N_R   0.240951 0.816641 0.786454 0.292977
O27   O     O_R   0.230135 0.748653 0.735501 -0.365340
O28   O     O_R   0.288583 0.799366 0.862681 -0.179702
N5    N     N_R   0.776192 0.696532 0.789152 0.273982
O29   O     O_R   0.611160 0.710259 0.809407 -0.229669
O30   O     O_R   0.890578 0.759831 0.805014 -0.270982
N6    N     N_R   0.723942 0.303463 0.289108 0.274032
O31   O     O_R   0.889082 0.289707 0.309164 -0.229684
O32   O     O_R   0.609575 0.240175 0.305061 -0.270870
N7    N     N_R   0.276202 0.803465 0.210813 0.273979
O33   O     O_R   0.111208 0.789759 0.190468 -0.229597
O34   O     O_R   0.390591 0.740165 0.194978 -0.271027
N8    N     N_R   0.223832 0.196537 0.710837 0.273990
O35   O     O_R   0.388854 0.210261 0.690560 -0.229686
O36   O     O_R   0.109455 0.259840 0.694997 -0.270981
N9    N     N_R   0.785180 0.578971 0.919879 0.273180
O37   O     O_R   0.734782 0.525218 0.978761 -0.420293
O38   O     O_R   0.845013 0.657394 0.943469 -0.165427
N10   N     N_R   0.715538 0.421164 0.419918 0.273026
O39   O     O_R   0.765066 0.475096 0.478854 -0.420718
O40   O     O_R   0.656983 0.342421 0.443440 -0.165172
N11   N     N_R   0.285176 0.921023 0.080105 0.273176
O41   O     O_R   0.234778 0.974788 0.021229 -0.420253
O42   O     O_R   0.345144 0.842624 0.056493 -0.165423
N12   N     N_R   0.214854 0.078981 0.580115 0.273181
O43   O     O_R   0.265302 0.025232 0.521235 -0.420138
O44   O     O_R   0.154937 0.157387 0.556517 -0.165450
N13   N     N_R   0.041740 0.517616 0.858482 0.250873
O45   O     O_R   0.154069 0.511360 0.797516 -0.376862
O46   O     O_R   0.099137 0.512094 0.934711 -0.227224
N14   N     N_R   0.458492 0.482250 0.358680 0.250924
O47   O     O_R   0.346163 0.488819 0.297749 -0.376840
O48   O     O_R   0.401024 0.487196 0.434935 -0.226596
N15   N     N_R   0.541735 0.982401 0.141490 0.250891
O49   O     O_R   0.654057 0.988668 0.202452 -0.376810
O50   O     O_R   0.599148 0.987890 0.065264 -0.227156
N16   N     N_R   0.958289 0.017605 0.641498 0.250881
O51   O     O_R   0.845955 0.011340 0.702460 -0.376816
O52   O     O_R   0.900903 0.012083 0.565268 -0.227217
Cl5   Cl    Cl    0.045112 0.488635 0.619985 -0.394282
Cl6   Cl    Cl    0.454647 0.511267 0.120101 -0.394586
Cl7   Cl    Cl    0.545154 0.011348 0.379975 -0.394323
Cl8   Cl    Cl    0.954820 0.988655 0.879969 -0.394336
N17   N     N_R   0.463117 0.515274 0.873238 0.282681
O53   O     O_R   0.421976 0.465637 0.936871 -0.224170
O54   O     O_R   0.411668 0.598948 0.875215 -0.200769
N18   N     N_R   0.036974 0.484788 0.373163 0.282551
O55   O     O_R   0.078373 0.534433 0.436755 -0.224132
O56   O     O_R   0.088231 0.401084 0.375143 -0.200946
N19   N     N_R   0.963129 0.984708 0.126751 0.282682
O57   O     O_R   0.921960 0.034362 0.063144 -0.224168
O58   O     O_R   0.911589 0.901046 0.124772 -0.200725
N20   N     N_R   0.536906 0.015280 0.626768 0.282687
O59   O     O_R   0.578065 0.965633 0.563144 -0.224131
O60   O     O_R   0.588383 0.098952 0.624791 -0.200767

loop_
_geom_bond_atom_site_label_1
_geom_bond_atom_site_label_2
_geom_bond_distance
_ccdc_geom_bond_type
O17   V3    1.830587 S    
C4    C29   1.573542 S    
O1    C5    1.373282 A    
N5    O29   1.293308 A    
C23   C27   1.562144 S    
O19   V1    1.830668 S    
O13   V1    2.048419 S    
C29   C37   1.600708 S    
H8    C36   1.101026 S    
O3    C7    1.373272 A    
N19   O57   1.297345 A    
C10   C14   1.605747 S    
C1    C32   1.573528 S    
C14   C30   1.613061 S    
C32   C36   1.575556 S    
O15   V3    2.048441 S    
N14   O47   1.294727 A    
C39   Cl3   1.794016 S    
C3    C30   1.573455 S    
C35   N3    1.486536 S    
O7    C3    1.387246 A    
C9    N5    1.465912 S    
O2    V4    2.048411 S    
C11   C27   1.560793 S    
N19   O58   1.299006 A    
C19   C35   1.566372 S    
C5    C27   1.566369 S    
C17   Cl5   1.798564 S    
C18   C34   1.566335 S    
C6    C28   1.566337 S    
O4    C8    1.373271 A    
C30   C38   1.600738 S    
C36   N4    1.486557 S    
O1    V3    2.048452 S    
C32   C40   1.600663 S    
C17   C25   1.562465 S    
N10   O39   1.294109 A    
H5    C33   1.101025 S    
C17   H17   1.092697 S    
C20   H20   1.092704 S    
N8    O35   1.293307 A    
C20   C28   1.562418 S    
C16   C32   1.613084 S    
C21   H9    1.113380 S    
C1    O15   1.359872 A    
N3    O25   1.301359 A    
C2    O16   1.359896 A    
C23   H11   1.113386 S    
O2    C6    1.373279 A    
C9    C25   1.560768 S    
N7    O33   1.293346 A    
C24   H12   1.113382 S    
C29   C33   1.575538 S    
O14   V2    2.048431 S    
N1    O22   1.302122 A    
C21   H13   1.103907 S    
C14   N14   1.457648 S    
C2    C31   1.573535 S    
C38   Cl2   1.794066 S    
O11   C7    1.372655 A    
C37   Cl1   1.794151 S    
O12   C8    1.372675 A    
N7    O34   1.295356 A    
O10   V2    2.059496 S    
N6    O32   1.295430 A    
N6    O31   1.293368 A    
O16   V4    2.048483 S    
O5    V1    2.059512 S    
N11   O42   1.302298 A    
C16   N16   1.457587 S    
C16   N12   1.479926 S    
O7    V3    2.059551 S    
O8    V4    2.059601 S    
C13   N13   1.457602 S    
C12   H4    1.107581 S    
N18   O56   1.299035 A    
C21   C25   1.562154 S    
O18   V4    1.830587 S    
N16   O52   1.301586 A    
C22   H10   1.113390 S    
N15   O50   1.301547 A    
C24   H16   1.103909 S    
C10   N6    1.465791 S    
C31   C39   1.600650 S    
C24   C28   1.562172 S    
C18   C26   1.562404 S    
C11   H3    1.107580 S    
O5    C1    1.387257 A    
C34   N2    1.486573 S    
C38   N18   1.483130 S    
C23   C39   1.581513 S    
C23   H15   1.103910 S    
O8    C4    1.387265 A    
N2    O24   1.302137 A    
O9    C5    1.372657 A    
C10   C26   1.560831 S    
C14   N10   1.480029 S    
O6    V2    2.059510 S    
N4    O28   1.302128 A    
C12   N8    1.465904 S    
C21   C37   1.581531 S    
C17   C33   1.566352 S    
C12   C16   1.605618 S    
C19   C27   1.562436 S    
N12   O44   1.302204 A    
N15   O49   1.294728 A    
C19   H19   1.092722 S    
H6    C34   1.100967 S    
C11   C15   1.605632 S    
C18   H18   1.092615 S    
C13   C29   1.613068 S    
N9    O37   1.293726 A    
C22   C26   1.562243 S    
O9    V1    2.059493 S    
C7    C25   1.566373 S    
C3    O13   1.359792 A    
C15   C31   1.613061 S    
C10   H2    1.107626 S    
C13   N9    1.479912 S    
N18   O55   1.297438 A    
C20   C36   1.566369 S    
N14   O48   1.301635 A    
O6    C2    1.387236 A    
C39   N19   1.483091 S    
N11   O41   1.293797 A    
N3    O26   1.302131 A    
O11   V3    2.059583 S    
N16   O51   1.294767 A    
C22   H14   1.103929 S    
O12   V4    2.059531 S    
C24   C40   1.581518 S    
N5    O30   1.295356 A    
C9    C13   1.605621 S    
O10   C6    1.372645 A    
N17   O54   1.299027 A    
N1    O21   1.301357 A    
C33   N1    1.486566 S    
O20   V2    1.830669 S    
C40   Cl4   1.794173 S    
N17   O53   1.297440 A    
C31   C35   1.575579 S    
O3    V1    2.048399 S    
N13   O45   1.294780 A    
C15   N15   1.457575 S    
N2    O23   1.301362 A    
C20   Cl8   1.798553 S    
N10   O40   1.302792 A    
C9    H1    1.107580 S    
C40   N20   1.483088 S    
N20   O60   1.299024 A    
C30   C34   1.575481 S    
N8    O36   1.295360 A    
C11   N7    1.465898 S    
H7    C35   1.101044 S    
C37   N17   1.483106 S    
C8    C26   1.566423 S    
N4    O27   1.301357 A    
C4    O14   1.359855 A    
N13   O46   1.301586 A    
C12   C28   1.560774 S    
C18   Cl6   1.798550 S    
C22   C38   1.581508 S    
N12   O43   1.293777 A    
O4    V2    2.048385 S    
C15   N11   1.479935 S    
N20   O59   1.297429 A    
N9    O38   1.302119 A    
C19   Cl7   1.798554 S    
