data_mof_unit_42475.cif
_audit_creation_date              2012-12-10T18:11:36-0500
_audit_creation_method            fapswitch 2.2
_symmetry_space_group_name_H-M    P1
_symmetry_Int_Tables_number       1
_space_group_crystal_system       triclinic
_cell_length_a                    10.520247
_cell_length_b                    12.611969
_cell_length_c                    13.250541
_cell_angle_alpha                 82.688276
_cell_angle_beta                  90.85981
_cell_angle_gamma                 102.417522
_cell_volume                      1702.86720304

loop_
_atom_site_label
_atom_site_type_symbol
_atom_type_description
_atom_site_fract_x
_atom_site_fract_y
_atom_site_fract_z
_atom_type_partial_charge
C1    C     C_R   0.478329 0.439342 0.690821 0.972035
C2    C     C_R   0.486957 0.455041 0.970053 -0.061740
C3    C     C_R   0.450869 0.477425 0.868284 -0.099941
C4    C     C_R   0.742165 0.500902 0.499256 0.995354
C5    C     C_R   0.491785 0.538446 0.032061 -0.108427
C6    C     C_R   0.510098 0.648177 0.987810 -0.208355
C7    C     C_R   0.458331 0.667741 0.890297 0.426428
C8    C     C_R   0.411623 0.577633 0.837756 0.351821
C9    C     C_R   0.462172 0.515853 0.135355 0.503384
C10   C     C_R   0.573009 0.703114 0.154293 0.357422
C11   C     C_R   0.461231 0.402307 0.799961 -0.121782
C12   C     C_3   0.064692 0.584886 0.547404 -0.211534
C13   C     C_R   0.307525 0.084528 0.355733 -0.243632
C14   C     C_R   0.659185 0.803919 0.626516 0.448046
C15   C     C_R   0.691428 0.910137 0.652331 0.369211
C16   C     C_R   0.512883 0.560617 0.308557 0.988343
C17   C     C_R   0.628432 0.988386 0.605515 -0.283027
C18   C     C_R   0.533075 0.962155 0.531725 -0.036915
C19   C     C_R   0.502639 0.853074 0.507696 0.157849
C20   C     C_R   0.468447 0.040617 0.480137 0.045354
C21   C     C_R   0.371760 0.008181 0.407707 0.162016
C22   C     C_R   0.341553 0.900385 0.386784 -0.239484
C23   C     C_3   0.956911 0.489578 0.595195 0.439916
C24   C     C_R   0.407911 0.824687 0.434660 -0.163779
C25   C     C_R   0.496669 0.151118 0.496684 -0.023852
C26   C     C_R   0.339830 0.192224 0.375811 0.092553
C27   C     C_R   0.257795 0.499406 0.500406 0.971402
C28   C     C_3   0.935894 0.416900 0.452257 -0.271139
C29   C     C_3   0.017203 0.404691 0.549951 -0.231542
C30   C     C_3   0.122792 0.499833 0.500707 -0.199193
C31   C     C_3   0.043595 0.512165 0.404399 0.378337
C32   C     C_3   0.983430 0.595660 0.450489 0.339465
C33   C     C_3   0.260000 0.399972 0.127999 -0.159470
C34   C     C_3   0.877308 0.501578 0.498963 -0.230364
C35   C     C_3   0.578011 0.861050 0.224104 -0.083116
C36   C     C_R   0.566314 0.730647 0.047643 0.388241
C37   C     C_R   0.514782 0.595507 0.198522 -0.300367
C38   C     C_R   0.481474 0.298229 0.836989 -0.266581
C39   C     C_R   0.510792 0.273406 0.938693 0.387875
C40   C     C_R   0.522547 0.353607 0.004475 0.394506
Cl1   Cl    Cl    0.602079 0.330832 0.121610 -0.470298
Cl2   Cl    Cl    0.654501 0.858359 0.989005 -0.363382
Cl3   Cl    Cl    0.546627 0.144469 0.978560 -0.438158
Cl4   Cl    Cl    0.285234 0.583940 0.749233 -0.532799
Cl5   Cl    Cl    0.740205 0.706644 0.689246 -0.422033
Cl6   Cl    Cl    0.811469 0.948358 0.742814 -0.387925
Cl7   Cl    Cl    0.105705 0.530991 0.277934 -0.596634
Cl8   Cl    Cl    0.958555 0.721719 0.384517 -0.484289
Cl9   Cl    Cl    0.894982 0.473418 0.721885 -0.455607
Cl10  Cl    Cl    0.423951 0.795968 0.842951 -0.432563
H1    H     H_    0.035029 0.327100 0.591328 0.208234
H2    H     H_    0.119049 0.654083 0.585460 0.250406
H3    H     H_    0.227509 0.477544 0.102614 0.200429
H4    H     H_    0.186439 0.349260 0.183352 0.208933
H5    H     H_    0.261016 0.353428 0.062494 0.166343
H6    H     H_    0.470111 0.832271 0.227314 0.114603
H7    H     H_    0.605675 0.929472 0.161920 0.234661
H8    H     H_    0.609498 0.895252 0.295656 0.174624
H9    H     H_    0.485691 0.238969 0.785342 0.216420
H10   H     H_    0.290146 0.252187 0.337378 0.168334
H11   H     H_    0.269211 0.875142 0.330511 0.204672
H12   H     H_    0.233301 0.061165 0.300321 0.179010
H13   H     H_    0.567877 0.183896 0.549961 0.136930
H14   H     H_    0.880747 0.349172 0.412680 0.217933
H15   H     H_    0.656687 0.068688 0.628932 0.192651
H16   H     H_    0.387335 0.745911 0.409203 0.211286
N1    N     N_R   0.432930 0.222190 0.444670 -0.115638
N2    N     N_R   0.566370 0.776980 0.554790 -0.177725
O1    O     O_R   0.467970 0.366730 0.627150 -0.641417
O2    O     O_3   0.644232 0.776616 0.214144 -0.536802
O3    O     O_R   0.510820 0.544830 0.662520 -0.554332
O4    O     O_R   0.664630 0.410960 0.482340 -0.635130
O5    O     O_R   0.707470 0.589060 0.517710 -0.541006
O6    O     O_R   0.489180 0.455170 0.337480 -0.545411
O7    O     O_R   0.532030 0.633270 0.372850 -0.622049
O8    O     O_R   0.292530 0.410940 0.482290 -0.624335
O9    O     O_R   0.335370 0.589040 0.517660 -0.623274
O10   O     O_3   0.382725 0.416628 0.175631 -0.578135
Zn1   Zn    Zn3+2 0.471390 0.381080 0.476380 1.011577
Zn2   Zn    Zn3+2 0.528610 0.618920 0.523620 1.056578

loop_
_geom_bond_atom_site_label_1
_geom_bond_atom_site_label_2
_ccdc_geom_bond_type
C33   H5    S    
N2    Zn2   S    
C16   O7    A    
C36   Cl2   S    
C25   N1    A    
O8    Zn1   S    
C7    C8    A    
C12   C23   S    
C1    O3    A    
C10   C37   A    
C16   O6    A    
C26   N1    A    
C23   C29   S    
C28   C29   S    
O4    Zn1   S    
C5    C6    A    
C33   O10   S    
C23   Cl9   S    
C20   C25   A    
C18   C19   A    
C25   H13   S    
C13   H12   S    
C35   O2    S    
C1    C11   S    
O7    Zn2   S    
C24   H16   S    
C16   C37   S    
C28   C34   S    
C31   Cl7   S    
C21   C22   A    
C12   C32   S    
C27   C30   S    
C32   Cl8   S    
O3    Zn2   S    
C12   H2    S    
C14   Cl5   S    
C33   H3    S    
C38   C39   A    
C4    C34   S    
N1    Zn1   S    
C3    C8    A    
C39   C40   A    
C39   Cl3   S    
C1    O1    A    
C32   C34   S    
C11   C38   A    
C5    C9    A    
C29   C30   S    
C31   C32   S    
C23   C34   S    
C9    C37   A    
C17   C18   A    
C13   C21   A    
C19   N2    A    
C4    O5    A    
C10   O2    S    
C40   Cl1   S    
O6    Zn1   S    
C35   H8    S    
C22   C24   A    
C13   C26   A    
O1    Zn1   S    
C2    C5    A    
C27   O8    A    
C28   H14   S    
C4    O4    A    
C29   H1    S    
O9    Zn2   S    
C33   H4    S    
C15   C17   A    
C12   C30   S    
C35   H6    S    
C28   C31   S    
C8    Cl4   S    
C7    Cl10  S    
C27   O9    A    
C6    C7    A    
C17   H15   S    
C35   H7    S    
C2    C3    A    
C22   H11   S    
C30   C31   S    
O5    Zn2   S    
C6    C36   A    
C19   C24   A    
C18   C20   A    
C9    O10   S    
C3    C11   A    
C38   H9    S    
C2    C40   A    
C20   C21   A    
C14   N2    A    
C14   C15   A    
C10   C36   A    
C15   Cl6   S    
C26   H10   S    
