data_mof_unit_30283.cif
_audit_creation_date              2012-12-10T21:25:07-0500
_audit_creation_method            fapswitch 2.2
_symmetry_space_group_name_H-M    P1
_symmetry_Int_Tables_number       1
_space_group_crystal_system       triclinic
_cell_length_a                    10.636004
_cell_length_b                    17.484982
_cell_length_c                    16.845946
_cell_angle_alpha                 91.819373
_cell_angle_beta                  90.717652
_cell_angle_gamma                 91.744941
_cell_volume                      3129.52951288

loop_
_atom_site_label
_atom_site_type_symbol
_atom_type_description
_atom_site_fract_x
_atom_site_fract_y
_atom_site_fract_z
_atom_type_partial_charge
C1    C     C_R   0.500740 0.353203 0.499055 0.963367
C2    C     C_R   0.499776 0.646469 0.500886 0.950268
C3    C     C_R   0.872200 0.498729 0.501073 -0.031084
C4    C     C_R   0.127804 0.502033 0.499091 -0.043250
C5    C     C_R   0.936821 0.454512 0.555396 0.058493
C6    C     C_R   0.063167 0.546840 0.445270 0.058576
C7    C     C_R   0.398124 0.844516 0.547625 0.417559
C8    C     C_R   0.517358 0.150698 0.423509 0.442792
C9    C     C_R   0.412762 0.765973 0.552782 -0.187106
C10   C     C_R   0.531054 0.229895 0.428198 -0.178518
C11   C     C_R   0.493404 0.728544 0.501122 -0.125656
C12   C     C_R   0.496540 0.270276 0.497050 -0.164731
C13   C     C_R   0.559050 0.768180 0.443310 -0.373523
C14   C     C_R   0.453730 0.231165 0.563283 -0.359998
C15   C     C_R   0.542989 0.846939 0.434959 0.475235
C16   C     C_R   0.442758 0.151531 0.560176 0.475353
C17   C     C_R   0.461221 0.883597 0.487762 -0.095223
C18   C     C_R   0.468013 0.112322 0.488679 -0.121966
C19   C     C_1   0.452630 0.963881 0.485382 0.094298
C20   C     C_1   0.454864 0.031726 0.485356 0.071689
C21   C     C_R   0.437644 0.437762 0.828605 -0.266091
C22   C     C_R   0.575911 0.558332 0.172183 -0.267562
C23   C     C_R   0.260076 0.501429 0.499646 0.908526
C24   C     C_R   0.739936 0.499013 0.500384 0.904730
C25   C     C_R   0.438639 0.441409 0.744471 -0.076941
C26   C     C_R   0.571188 0.554995 0.256288 -0.072814
C27   C     C_R   0.563038 0.556376 0.754186 0.571222
C28   C     C_R   0.430181 0.447305 0.245003 0.559527
C29   C     C_R   0.561952 0.553751 0.837584 -0.311863
C30   C     C_R   0.434669 0.449724 0.161711 -0.291817
C31   C     C_R   0.500236 0.495006 0.876035 0.063263
C32   C     C_R   0.506758 0.504525 0.124006 0.061518
C33   C     C_1   0.502478 0.497127 0.963626 -0.006186
C34   C     C_1   0.506900 0.502161 0.036431 -0.005750
C35   C     C_R   0.228039 0.725012 0.370194 -0.225267
C36   C     C_R   0.766289 0.279723 0.633562 -0.227660
C37   C     C_R   0.160161 0.675951 0.419519 0.473542
C38   C     C_R   0.833773 0.327648 0.582882 0.487447
C39   C     C_R   0.127821 0.600826 0.392235 -0.000595
C40   C     C_R   0.871840 0.401924 0.609692 0.009828
C41   C     C_R   0.159269 0.576761 0.314923 -0.156340
C42   C     C_R   0.845038 0.426781 0.687504 -0.163106
C43   C     C_R   0.226297 0.626193 0.266125 -0.135759
C44   C     C_R   0.778051 0.378643 0.737624 -0.133339
C45   C     C_R   0.261082 0.700093 0.293843 -0.177335
C46   C     C_R   0.738559 0.305301 0.710666 -0.181479
C47   C     C_R   0.934141 0.544168 0.446364 -0.250942
C48   C     C_R   0.065794 0.456480 0.553732 -0.260908
H1    H     H_    0.313923 0.738049 0.256201 0.151375
H2    H     H_    0.686453 0.268361 0.749646 0.140195
H3    H     H_    0.387959 0.390808 0.856121 0.158205
H4    H     H_    0.633549 0.602300 0.145311 0.157821
H5    H     H_    0.389621 0.396939 0.709101 0.146788
H6    H     H_    0.625582 0.596637 0.292302 0.143882
H7    H     H_    0.608445 0.598810 0.873643 0.210554
H8    H     H_    0.382426 0.407186 0.125293 0.207825
H9    H     H_    0.255678 0.782252 0.391312 0.154604
H10   H     H_    0.735091 0.222956 0.612940 0.142492
H11   H     H_    0.134396 0.519216 0.293273 0.189671
H12   H     H_    0.873752 0.483901 0.708622 0.179392
H13   H     H_    0.252259 0.606954 0.207031 0.151531
H14   H     H_    0.755995 0.398399 0.797239 0.151441
H15   H     H_    0.881916 0.578936 0.405954 0.140267
H16   H     H_    0.117848 0.421245 0.593770 0.149173
H17   H     H_    0.358793 0.733896 0.595198 0.196709
H18   H     H_    0.568834 0.259697 0.378083 0.214813
H19   H     H_    0.622374 0.736299 0.406133 0.160727
H20   H     H_    0.426255 0.262205 0.616657 0.175392
N1    N     N_R   0.500030 0.500030 0.707230 -0.145272
N2    N     N_R   0.499970 0.499970 0.292770 -0.146673
O1    O     O_R   0.500000 0.389130 0.566570 -0.648011
O2    O     O_R   0.500000 0.610870 0.433430 -0.647302
O3    O     O_R   0.499990 0.389100 0.433480 -0.554965
O4    O     O_R   0.500010 0.610900 0.566520 -0.537932
O5    O     O_R   0.316760 0.500020 0.566540 -0.639561
O6    O     O_R   0.683240 0.499980 0.433460 -0.641726
O7    O     O_R   0.316760 0.499990 0.433460 -0.572614
O8    O     O_R   0.683240 0.500010 0.566540 -0.576317
Zn1   Zn    Zn3+2 0.500010 0.500020 0.588860 1.016554
Zn2   Zn    Zn3+2 0.499990 0.499980 0.411140 1.011272
O9    O     O_3   0.607469 0.892323 0.380683 -0.668220
C49   C     C_3   0.667678 0.851741 0.318650 0.092416
H21   H     H_    0.671108 0.889169 0.266623 0.152906
H22   H     H_    0.613139 0.799673 0.297056 0.133621
C50   C     C_3   0.803867 0.835664 0.342554 -0.383889
H23   H     H_    0.859746 0.890475 0.346031 0.224396
H24   H     H_    0.807145 0.810621 0.402131 0.220769
C51   C     C_3   0.864006 0.780766 0.283088 -0.968267
H25   H     H_    0.811967 0.724648 0.281077 0.256314
H26   H     H_    0.962867 0.771462 0.301469 0.267754
H27   H     H_    0.863590 0.804985 0.222931 0.273567
O10   O     O_3   0.398775 0.111560 0.624532 -0.630768
C52   C     C_3   0.489648 0.115050 0.686852 0.077057
H28   H     H_    0.442341 0.094937 0.741128 0.166862
H29   H     H_    0.524651 0.174576 0.701094 0.124010
C53   C     C_3   0.599871 0.062590 0.668827 -0.389667
H30   H     H_    0.563296 0.003633 0.654050 0.225703
H31   H     H_    0.652693 0.083556 0.616938 0.203005
C54   C     C_3   0.690380 0.060300 0.739580 -0.943825
H32   H     H_    0.730053 0.118572 0.754450 0.263205
H33   H     H_    0.768889 0.022205 0.724601 0.270119
H34   H     H_    0.641043 0.037715 0.792055 0.264574
S1    S     S_3+6 0.641574 0.639244 0.717837 -0.005767
O11   O     O_2   0.718908 0.622831 0.645978 -0.314361
O12   O     O_2   0.545188 0.697289 0.699176 -0.351660
O13   O     O_3   0.739268 0.677917 0.788608 -0.599114
H35   H     H_    0.771786 0.726433 0.766655 0.376694
S2    S     S_3+6 0.337829 0.368246 0.278315 -0.008524
O14   O     O_2   0.416969 0.298655 0.273993 -0.328398
O15   O     O_2   0.286049 0.377169 0.359961 -0.317509
O16   O     O_3   0.214915 0.353218 0.215276 -0.598375
H36   H     H_    0.173179 0.305129 0.232263 0.380509
O17   O     O_3   0.132053 0.699610 0.496124 -0.659859
C55   C     C_3   0.021557 0.742280 0.493934 0.061321
H37   H     H_    0.944725 0.710589 0.459888 0.134970
H38   H     H_    0.040990 0.798348 0.466211 0.151630
C56   C     C_3   0.976973 0.756789 0.578783 -0.296799
H39   H     H_    0.964874 0.701262 0.608600 0.256901
H40   H     H_    0.049210 0.792371 0.612238 0.227349
C57   C     C_3   0.852258 0.797737 0.580154 -0.903291
H41   H     H_    0.861465 0.853263 0.550163 0.250207
H42   H     H_    0.824172 0.808953 0.642590 0.270890
H43   H     H_    0.777483 0.761467 0.549927 0.282511
O18   O     O_3   0.859061 0.303446 0.506010 -0.668018
C58   C     C_3   0.961906 0.254018 0.506701 0.030427
H44   H     H_    0.925180 0.193777 0.506810 0.156115
H45   H     H_    0.026430 0.264205 0.559212 0.134039
C59   C     C_3   0.039145 0.266166 0.432009 -0.307443
H46   H     H_    0.978780 0.255086 0.378420 0.229353
H47   H     H_    0.073977 0.326699 0.431624 0.258880
C60   C     C_3   0.151264 0.213755 0.428768 -0.860065
H48   H     H_    0.215766 0.227171 0.479911 0.267005
H49   H     H_    0.203589 0.222452 0.373012 0.304208
H50   H     H_    0.119175 0.152813 0.430346 0.252280
O19   O     O_3   0.315906 0.882884 0.596952 -0.632095
C61   C     C_3   0.357826 0.882299 0.677152 0.087370
H51   H     H_    0.366825 0.942673 0.699563 0.173103
H52   H     H_    0.452051 0.856936 0.685961 0.152809
C62   C     C_3   0.259912 0.840560 0.727119 -0.339857
H53   H     H_    0.169015 0.870037 0.723164 0.225110
H54   H     H_    0.244930 0.780789 0.703950 0.229027
C63   C     C_3   0.301670 0.839002 0.814018 -0.913481
H55   H     H_    0.390822 0.807970 0.819549 0.287185
H56   H     H_    0.228252 0.809036 0.848762 0.266805
H57   H     H_    0.315804 0.898229 0.839054 0.256064
O20   O     O_3   0.542282 0.112239 0.352652 -0.614975
C64   C     C_3   0.661771 0.079000 0.356923 0.119265
H58   H     H_    0.657721 0.026794 0.317698 0.203991
H59   H     H_    0.687790 0.060207 0.417539 0.125049
C65   C     C_3   0.763926 0.133542 0.326139 -0.391803
H60   H     H_    0.736302 0.152688 0.266276 0.251868
H61   H     H_    0.774230 0.184623 0.366824 0.228034
C66   C     C_3   0.889992 0.094358 0.320749 -0.951273
H62   H     H_    0.921181 0.076944 0.380520 0.261916
H63   H     H_    0.961992 0.134421 0.296868 0.276946
H64   H     H_    0.881902 0.042926 0.280349 0.266458

loop_
_geom_bond_atom_site_label_1
_geom_bond_atom_site_label_2
_ccdc_geom_bond_type
C38   C40   A    
C52   H28   S    
C27   C29   A    
C62   H54   S    
C64   H58   S    
C60   H50   S    
C59   H46   S    
O1    Zn1   S    
O9    C49   S    
O19   C61   S    
C39   C41   A    
C50   H23   S    
C21   C31   A    
C1    O1    A    
C22   C32   A    
C64   H59   S    
C25   H5    S    
O20   C64   S    
C36   H10   S    
C56   H40   S    
C47   H15   S    
C62   C63   S    
C48   H16   S    
C37   O17   S    
O13   H35   S    
C53   C54   S    
S2    O14   D    
C15   C17   A    
C27   S1    S    
C19   C20   T    
C44   C46   A    
C7    C17   A    
C65   C66   S    
C53   H31   S    
C58   C59   S    
C31   C33   S    
C36   C46   A    
C66   H63   S    
C18   C20   S    
C27   N1    A    
C57   H43   S    
C50   H24   S    
C52   H29   S    
C41   C43   A    
C63   H57   S    
C3    C24   S    
C1    C12   S    
C42   C44   A    
C61   C62   S    
C2    O2    A    
C2    C11   S    
C26   H6    S    
C57   H42   S    
C55   H37   S    
C10   H18   S    
C5    C48   A    
C8    O20   S    
C6    C47   A    
N2    Zn2   S    
C64   C65   S    
C41   H11   S    
C15   O9    S    
C56   C57   S    
C42   H12   S    
C4    C23   S    
O8    Zn1   S    
C24   O6    A    
C29   H7    S    
C44   H14   S    
C30   H8    S    
C8    C18   A    
C59   H47   S    
C32   C34   S    
C7    O19   S    
C43   C45   A    
C54   H32   S    
C51   H27   S    
C45   H1    S    
C29   C31   A    
C6    C39   S    
C53   H30   S    
C33   C34   T    
S1    O12   D    
C16   C18   A    
C23   O7    A    
C66   H64   S    
C9    C11   A    
C10   C12   A    
C61   H52   S    
C54   H33   S    
C51   H26   S    
C16   O10   S    
C52   C53   S    
C49   H22   S    
O4    Zn1   S    
C13   C15   A    
C58   H44   S    
C26   N2    A    
C65   H61   S    
N1    Zn1   S    
C4    C6    A    
C25   N1    A    
C60   H48   S    
C35   C45   A    
C59   C60   S    
C3    C5    A    
C21   H3    S    
C63   H56   S    
C23   O5    A    
C57   H41   S    
C43   H13   S    
C22   H4    S    
O17   C55   S    
C4    C48   A    
C50   C51   S    
C24   O8    A    
C7    C9    A    
C21   C25   A    
C13   H19   S    
O16   H36   S    
C35   C37   A    
C65   H60   S    
C8    C10   A    
C28   N2    A    
O6    Zn2   S    
C12   C14   A    
C40   C42   A    
C60   H49   S    
C2    O4    A    
C55   H38   S    
C62   H53   S    
C49   C50   S    
C46   H2    S    
S2    O16   S    
C35   H9    S    
C1    O3    A    
C28   C30   A    
O2    Zn2   S    
C56   H39   S    
C36   C38   A    
C30   C32   A    
C11   C13   A    
O7    Zn2   S    
C28   S2    S    
C3    C47   A    
O10   C52   S    
C17   C19   S    
O3    Zn2   S    
S2    O15   D    
S1    O13   S    
C14   C16   A    
C9    H17   S    
C55   C56   S    
C54   H34   S    
C51   H25   S    
C37   C39   A    
C49   H21   S    
C22   C26   A    
C5    C40   S    
S1    O11   D    
C58   H45   S    
C14   H20   S    
C63   H55   S    
C61   H51   S    
C66   H62   S    
O5    Zn1   S    
C38   O18   S    
O18   C58   S    
