data_mof_unit_38254.cif
_audit_creation_date              2012-10-26T19:52:50-0400
_audit_creation_method            fapswitch 2.2
_symmetry_space_group_name_H-M    P1
_symmetry_Int_Tables_number       1
_space_group_crystal_system       triclinic
_cell_length_a                    14.982281
_cell_length_b                    10.871824
_cell_length_c                    9.635262
_cell_angle_alpha                 89.588384
_cell_angle_beta                  91.484753
_cell_angle_gamma                 91.262664
_cell_volume                      1568.49474509

loop_
_atom_site_label
_atom_site_type_symbol
_atom_type_description
_atom_site_fract_x
_atom_site_fract_y
_atom_site_fract_z
_atom_type_partial_charge
C1    C     C_R   0.504144 0.262926 0.499535 0.580689
C2    C     C_R   0.182480 0.407733 0.435266 -0.058900
C3    C     C_R   0.232195 0.501254 0.500139 0.019974
C4    C     C_R   0.328979 0.500154 0.499152 0.546849
C5    C     C_R   0.190059 0.591218 0.576064 -0.074037
C6    C     C_R   0.478683 0.063857 0.613777 -0.036704
C7    C     C_R   0.504656 0.129377 0.495585 -0.002799
C8    C     C_R   0.520921 0.062377 0.372038 0.209047
C9    C     C_R   0.510753 0.934629 0.374746 -0.097673
C10   C     C_R   0.494253 0.870366 0.497884 -0.034921
C11   C     C_R   0.474124 0.936958 0.615482 -0.059285
C12   C     C_R   0.908674 0.595524 0.579481 -0.046644
C13   C     C_3   0.507433 0.926554 0.762603 -0.204797
C14   C     C_3   0.513487 0.067486 0.761462 0.202463
C15   C     C_R   0.577947 0.492501 0.074712 0.197130
C16   C     C_R   0.498621 0.737216 0.499773 0.560368
C17   C     C_R   0.422347 0.483837 0.066468 0.358417
C18   C     C_R   0.423164 0.499771 0.920884 0.032828
C19   C     C_R   0.577090 0.484758 0.929053 0.092458
C20   C     C_3   0.662490 0.554717 0.915939 -0.224579
C21   C     C_3   0.662624 0.570851 0.073857 0.415874
C22   C     C_R   0.670807 0.500672 0.501734 0.559951
C23   C     C_R   0.947684 0.314016 0.368337 0.267118
C24   C     C_R   0.814996 0.590398 0.580883 -0.105326
C25   C     C_R   0.767190 0.500539 0.505975 -0.009262
C26   C     C_R   0.810834 0.410263 0.434628 -0.093633
C27   C     C_R   0.903590 0.407714 0.437613 0.017614
C28   C     C_R   0.952959 0.500825 0.510398 -0.029171
C29   C     C_3   0.670927 0.066049 0.720668 -0.025394
C30   C     C_3   0.816522 0.572182 0.125820 -0.039519
C31   C     C_3   0.891234 0.119144 0.376476 -0.057664
C32   C     C_R   0.040629 0.315799 0.367088 -0.069741
C33   C     C_R   0.089893 0.407751 0.437306 -0.007311
C34   C     C_R   0.046379 0.500471 0.510566 -0.000004
C35   C     C_R   0.096578 0.590786 0.585576 -0.012563
C36   C     C_R   0.052427 0.679554 0.664645 0.253238
C37   C     C_R   0.958666 0.691236 0.646644 0.202828
Cu1   Cu    Cu3+1 0.500000 0.499980 0.640670 0.985538
Cu2   Cu    Cu3+1 0.500000 0.500020 0.359330 1.194293
H1    H     H_    0.777877 0.655064 0.640117 0.192528
H2    H     H_    0.074163 0.245302 0.310350 0.149441
H3    H     H_    0.215647 0.334023 0.384568 0.162348
H4    H     H_    0.231321 0.663100 0.623316 0.181301
H5    H     H_    0.653947 0.024872 0.618010 0.125535
H6    H     H_    0.697278 0.995211 0.793490 0.211799
H7    H     H_    0.725664 0.134538 0.704132 0.157417
H8    H     H_    0.308649 0.226556 0.213676 0.358990
H9    H     H_    0.825297 0.648314 0.201490 0.187762
H10   H     H_    0.825199 0.607711 0.018367 0.156358
H11   H     H_    0.870685 0.506247 0.147163 0.156373
H12   H     H_    0.522056 0.884701 0.281768 0.260570
H13   H     H_    0.533345 0.745774 0.980401 0.315140
H14   H     H_    0.855810 0.138615 0.473871 0.139586
H15   H     H_    0.957345 0.078412 0.401044 0.150707
H16   H     H_    0.850473 0.049605 0.317921 0.194468
H17   H     H_    0.204622 0.920102 0.797462 0.371340
H18   H     H_    0.853568 0.855078 0.478984 0.337169
H19   H     H_    0.669719 0.258138 0.165467 0.386233
H20   H     H_    0.454084 0.890355 0.830776 0.142285
H21   H     H_    0.570928 0.876383 0.772887 0.155436
H22   H     H_    0.463849 0.108429 0.830366 0.191151
H23   H     H_    0.360884 0.499817 0.862391 0.195966
H24   H     H_    0.715908 0.494366 0.879360 0.140960
H25   H     H_    0.654647 0.640845 0.854282 0.143124
H26   H     H_    0.771987 0.340876 0.378910 0.210091
N1    N     N_R   0.500570 0.500930 0.147930 -0.236162
N2    N     N_R   0.500570 0.500890 0.852020 -0.292623
O1    O     O_R   0.500000 0.319640 0.618810 -0.479610
O2    O     O_2   0.258983 0.501642 0.170481 -0.253342
O3    O     O_2   0.278306 0.344011 0.997446 -0.303877
O4    O     O_3   0.344064 0.300646 0.241909 -0.504069
O5    O     O_3   0.733599 0.510477 0.144631 -0.573880
O6    O     O_2   0.664293 0.744031 0.275020 -0.254678
O7    O     O_2   0.710552 0.811162 0.044857 -0.252253
O8    O     O_3   0.541628 0.767467 0.079437 -0.534841
O9    O     O_3   0.900147 0.225519 0.293035 -0.555970
O10   O     O_2   0.052246 0.806358 0.907428 -0.175987
O11   O     O_2   0.182111 0.683022 0.864416 -0.287444
O12   O     O_R   0.500010 0.319680 0.381230 -0.399975
O13   O     O_3   0.164283 0.886059 0.723514 -0.504989
O14   O     O_2   0.863578 0.817277 0.828142 -0.224033
O15   O     O_2   0.970866 0.938290 0.692810 -0.200105
O16   O     O_3   0.825025 0.864063 0.569810 -0.569393
O17   O     O_2   0.606075 0.030111 0.131168 -0.200040
O18   O     O_2   0.491080 0.185285 0.132259 -0.251970
O19   O     O_3   0.643774 0.234806 0.255685 -0.529886
O20   O     O_R   0.370250 0.499950 0.618800 -0.532918
O21   O     O_R   0.370260 0.499990 0.381220 -0.420057
O22   O     O_R   0.499990 0.680320 0.618770 -0.524823
O23   O     O_R   0.500000 0.680360 0.381190 -0.458120
O24   O     O_R   0.629740 0.500010 0.618780 -0.529318
O25   O     O_R   0.629750 0.500050 0.381200 -0.430361
O26   O     O_3   0.598947 0.126826 0.780643 -0.524739
S1    S     S_3+6 0.322665 0.408078 0.119819 0.053862
S2    S     S_3+6 0.646885 0.728423 0.121915 0.031030
S3    S     S_3+6 0.113000 0.763641 0.796693 0.063681
S4    S     S_3+6 0.905465 0.831487 0.688770 0.025972
S5    S     S_3+6 0.564800 0.127666 0.216916 0.050094

loop_
_geom_bond_atom_site_label_1
_geom_bond_atom_site_label_2
_ccdc_geom_bond_type
C16   O23   A    
C11   C13   S    
C35   C36   A    
C9    H12   S    
C23   O9    S    
H13   O8    S    
C37   S4    S    
O8    S2    S    
C7    C8    A    
O4    S1    S    
C15   C19   A    
Cu1   O22   S    
C17   N1    A    
C12   C28   A    
C30   H9    S    
C36   C37   A    
O3    S1    D    
Cu1   Cu2   S    
C1    O1    A    
C34   C35   A    
C12   C37   A    
C8    S5    S    
O18   S5    D    
C19   C20   S    
C13   H21   S    
C8    C9    A    
C22   C25   S    
C29   H7    S    
C32   H2    S    
H18   O16   S    
C19   N2    A    
C23   C27   A    
O13   S3    S    
C9    C10   A    
C14   O26   S    
C30   H11   S    
C28   C34   A    
C16   O22   A    
C13   C14   S    
Cu2   O21   S    
H19   O19   S    
C33   C34   A    
C21   O5    S    
C24   C25   A    
O2    S1    D    
O11   S3    D    
C6    C11   A    
C4    O20   A    
C18   H23   S    
C21   S2    S    
C25   C26   A    
C14   H22   S    
Cu1   O24   S    
C29   H6    S    
Cu2   O12   S    
C20   H25   S    
C6    C14   S    
C36   S3    S    
C22   O24   A    
C17   C18   A    
C26   C27   A    
C31   H14   S    
H8    O4    S    
C13   H20   S    
C2    C33   A    
C30   H10   S    
Cu1   O1    S    
C29   H5    S    
C1    O12   A    
Cu2   N1    S    
O6    S2    D    
C3    C4    S    
Cu1   N2    S    
Cu2   O25   S    
O15   S4    D    
Cu2   O23   S    
C1    C7    S    
C26   H26   S    
O7    S2    D    
C3    C5    A    
C30   O5    S    
C6    C7    A    
C4    O21   A    
C12   C24   A    
O10   S3    D    
H17   O13   S    
Cu1   O20   S    
O17   S5    D    
C32   C33   A    
C20   H24   S    
C2    C3    A    
C18   N2    A    
C10   C16   S    
C23   C32   A    
C29   O26   S    
C15   N1    A    
C31   O9    S    
O14   S4    D    
C2    H3    S    
C5    C35   A    
C24   H1    S    
C31   H15   S    
C5    H4    S    
O19   S5    S    
C10   C11   A    
C15   C21   S    
C20   C21   S    
O16   S4    S    
C27   C28   A    
C22   O25   A    
C17   S1    S    
C31   H16   S    
