data_mof_unit_44280.cif
_audit_creation_date              2012-12-11T17:41:36-0500
_audit_creation_method            fapswitch 2.2
_symmetry_space_group_name_H-M    P1
_symmetry_Int_Tables_number       1
_space_group_crystal_system       triclinic
_cell_length_a                    15.546436
_cell_length_b                    14.935579
_cell_length_c                    14.770455
_cell_angle_alpha                 109.562429
_cell_angle_beta                  121.256149
_cell_angle_gamma                 59.574165
_cell_volume                      2515.96858524

loop_
_atom_site_label
_atom_site_type_symbol
_atom_type_description
_atom_site_fract_x
_atom_site_fract_y
_atom_site_fract_z
_atom_type_partial_charge
C1    C     C_R   0.749328 0.997481 0.792793 -0.120055
C2    C     C_R   0.152267 0.202149 0.960431 -0.121406
C3    C     C_R   0.677085 0.654704 0.851322 -0.129635
C4    C     C_R   0.254446 0.126793 0.962783 -0.158223
C5    C     C_R   0.691295 0.735327 0.933181 0.154359
C6    C     C_R   0.281838 0.020743 0.958376 0.121593
C7    C     C_R   0.795698 0.738313 0.991056 -0.221483
C8    C     C_R   0.204919 0.990371 0.947776 -0.189469
C9    C     C_R   0.884656 0.660463 0.968883 -0.100677
C10   C     C_R   0.102591 0.065902 0.944437 -0.126404
C11   C     C_R   0.869869 0.580298 0.888041 -0.099770
C12   C     C_R   0.195419 0.064713 0.227553 -0.146304
C13   C     C_R   0.076813 0.171803 0.952206 -0.132151
C14   C     C_R   0.588228 0.837222 0.049117 0.122085
C15   C     C_R   0.396455 0.901801 0.864428 0.136383
C16   C     C_R   0.203842 0.276540 0.445458 -0.118255
C17   C     C_R   0.783114 0.715219 0.534595 -0.139203
C18   C     C_R   0.489615 0.915182 0.058238 -0.003393
C19   C     C_R   0.497829 0.870858 0.865170 -0.002233
C20   C     C_R   0.390018 0.941932 0.962039 -0.105160
C21   C     C_R   0.594331 0.819192 0.951785 -0.104350
C22   C     C_2   0.032341 0.352533 0.475302 -0.211263
C23   C     C_R   0.143440 0.276618 0.489015 0.151054
C24   C     C_2   0.893248 0.609997 0.427630 -0.233322
C25   C     C_2   0.974774 0.423590 0.406451 -0.113956
C26   C     C_2   0.890552 0.521047 0.424648 -0.112509
C27   C     C_2   0.827669 0.133708 0.902869 -0.234605
C28   C     C_2   0.013408 0.053051 0.162440 -0.228452
C29   C     C_R   0.092390 0.734378 0.229452 0.264706
C30   C     C_R   0.904481 0.199531 0.540679 0.254892
C31   C     C_R   0.195801 0.659943 0.289069 -0.296643
C32   C     C_R   0.796078 0.260688 0.472863 -0.295620
C33   C     C_R   0.289096 0.632090 0.274419 0.103505
C34   C     C_R   0.824801 0.706890 0.467968 0.152324
C35   C     C_R   0.716955 0.327573 0.512646 0.109138
C36   C     C_R   0.277923 0.678623 0.198415 -0.150046
C37   C     C_R   0.746963 0.335818 0.621416 -0.177889
C38   C     C_R   0.174898 0.751213 0.137464 -0.148413
C39   C     C_R   0.854694 0.277225 0.689713 -0.195390
C40   C     C_R   0.593298 0.215546 0.487779 -0.149495
C41   C     C_R   0.405052 0.769785 0.442142 -0.138010
C42   C     C_R   0.082473 0.778463 0.152227 -0.162919
C43   C     C_R   0.933354 0.209721 0.650183 -0.112221
C44   C     C_R   0.405729 0.459331 0.344691 -0.242550
C45   C     C_R   0.504076 0.303385 0.440237 0.059097
C46   C     C_R   0.597248 0.486363 0.426276 -0.236557
C47   C     C_R   0.506674 0.384880 0.407680 0.057903
C48   C     C_R   0.495248 0.572075 0.394506 0.047086
C49   C     C_R   0.605261 0.395925 0.442651 0.046182
C50   C     C_R   0.398198 0.554401 0.338510 0.054068
C51   C     C_2   0.854514 0.111086 0.997024 -0.105672
C52   C     C_2   0.951899 0.121667 0.089997 -0.123086
C53   C     C_R   0.408726 0.982689 0.715062 -0.127324
C54   C     C_R   0.587854 0.957426 0.262640 -0.100695
C55   C     C_R   0.410460 0.293286 0.418514 -0.120126
C56   C     C_R   0.495146 0.675584 0.445419 0.057026
C57   C     C_R   0.588721 0.694669 0.518376 -0.115731
C58   C     C_R   0.591094 0.906812 0.787853 -0.154445
C59   C     C_R   0.404670 0.024074 0.192068 -0.146919
C60   C     C_R   0.202792 0.185866 0.538169 -0.159498
C61   C     C_R   0.780894 0.805033 0.439065 -0.132140
C62   C     C_R   0.749664 0.090524 0.701832 -0.151963
C63   C     C_R   0.195639 0.972293 0.317722 -0.129803
C64   C     C_R   0.775734 0.077447 0.803265 0.145732
C65   C     C_R   0.131216 0.027931 0.230153 0.157983
C66   C     C_3   0.653370 0.696872 0.145941 -0.895134
C67   C     C_R   0.499883 0.919877 0.794490 0.081961
C68   C     C_3   0.318200 0.806588 0.695406 -0.948968
C69   C     C_3   0.938485 0.870238 0.269227 -1.004020
C70   C     C_3   0.064004 0.033429 0.541897 -1.009197
C71   C     C_R   0.493436 0.964192 0.165982 0.083522
C72   C     C_R   0.766017 0.577831 0.828963 -0.132635
H1    H     H_    0.758325 0.966232 0.854818 0.090437
H2    H     H_    0.312779 0.150823 0.969514 0.116848
H3    H     H_    0.807207 0.802024 0.051301 0.137575
H4    H     H_    0.224784 0.908659 0.943052 0.124213
H5    H     H_    0.964944 0.662476 0.013314 0.124604
H6    H     H_    0.044368 0.041682 0.936978 0.136168
H7    H     H_    0.837670 0.519551 0.450912 0.129177
H8    H     H_    0.002915 0.420036 0.351272 0.126792
H9    H     H_    0.946175 0.611080 0.401119 0.132162
H10   H     H_    0.003208 0.357796 0.530609 0.138577
H11   H     H_    0.002798 0.832034 0.101620 0.109533
H12   H     H_    0.166719 0.123630 0.179629 0.102719
H13   H     H_    0.016435 0.166761 0.705824 0.133401
H14   H     H_    0.179038 0.329576 0.393076 0.080553
H15   H     H_    0.812762 0.656994 0.583678 0.091401
H16   H     H_    0.204073 0.625108 0.348338 0.119347
H17   H     H_    0.773040 0.256194 0.389039 0.126843
H18   H     H_    0.348828 0.658156 0.186001 0.120983
H19   H     H_    0.686587 0.387609 0.652919 0.120536
H20   H     H_    0.166465 0.786041 0.078165 0.129239
H21   H     H_    0.877188 0.284659 0.773610 0.127163
H22   H     H_    0.330929 0.446986 0.304953 0.123258
H23   H     H_    0.979667 0.005963 0.164557 0.133027
H24   H     H_    0.673002 0.494383 0.455344 0.122823
H25   H     H_    0.676174 0.183737 0.496162 0.125490
H26   H     H_    0.318756 0.785957 0.399893 0.127134
H27   H     H_    0.322892 0.002726 0.689083 0.129038
H28   H     H_    0.671354 0.924512 0.272415 0.101497
H29   H     H_    0.325293 0.339717 0.370033 0.084005
H30   H     H_    0.672550 0.638159 0.549248 0.088401
H31   H     H_    0.675393 0.853618 0.828231 0.121047
H32   H     H_    0.318653 0.045767 0.142741 0.140198
H33   H     H_    0.174704 0.156214 0.570372 0.131858
H34   H     H_    0.859089 0.181982 0.899058 0.126639
H35   H     H_    0.805709 0.827319 0.397053 0.094983
H36   H     H_    0.759052 0.146865 0.681167 0.121873
H37   H     H_    0.165924 0.946190 0.351591 0.100384
H38   H     H_    0.983709 0.170623 0.087990 0.131264
H39   H     H_    0.821897 0.064084 0.001311 0.125810
H40   H     H_    0.754256 0.745525 0.141148 0.178969
H41   H     H_    0.723376 0.654197 0.215902 0.253460
H42   H     H_    0.643319 0.640040 0.073837 0.249350
H43   H     H_    0.577437 0.734542 0.158789 0.258533
H44   H     H_    0.227668 0.932074 0.770526 0.184911
H45   H     H_    0.938669 0.520552 0.870611 0.103587
H46   H     H_    0.240425 0.815904 0.621583 0.256664
H47   H     H_    0.341839 0.740506 0.734402 0.254213
H48   H     H_    0.383245 0.788540 0.672271 0.262411
H49   H     H_    0.010805 0.713500 0.291207 0.160961
H50   H     H_    0.994073 0.900383 0.343417 0.270310
H51   H     H_    0.868751 0.880967 0.281075 0.248831
H52   H     H_    0.903401 0.915907 0.203220 0.249427
H53   H     H_    0.952695 0.127747 0.416561 0.174667
H54   H     H_    0.114182 0.986498 0.496189 0.250756
H55   H     H_    0.021931 0.989135 0.537515 0.266392
H56   H     H_    0.998706 0.230732 0.952185 0.093826
H57   H     H_    0.121796 0.045853 0.625260 0.257908
H58   H     H_    0.754336 0.516692 0.765472 0.117095
H59   H     H_    0.131706 0.284032 0.965397 0.111377
H60   H     H_    0.596930 0.651781 0.804417 0.115844
N1    N     N_R   0.705410 0.966550 0.689210 -0.045451
N2    N     N_R   0.556610 0.796750 0.548620 -0.038781
N3    N     N_R   0.556610 0.951620 0.703500 -0.041686
N4    N     N_R   0.443390 0.048380 0.296500 -0.044888
N5    N     N_R   0.294590 0.131500 0.522480 -0.041367
N6    N     N_R   0.705410 0.868500 0.477520 -0.041737
N7    N     N_R   0.705410 0.023370 0.632390 -0.043811
N8    N     N_R   0.294590 0.976630 0.367610 -0.042847
N9    N     N_2   0.675682 0.774368 0.134313 -0.120755
N10   N     N_2   0.301599 0.901866 0.766397 -0.121421
N11   N     N_2   0.998205 0.760526 0.243997 -0.118710
N12   N     N_R   0.294590 0.033450 0.310790 -0.044896
N13   N     N_2   0.983589 0.132442 0.498164 -0.117997
N14   N     N_R   0.294590 0.188320 0.465660 -0.043222
N15   N     N_R   0.705410 0.811680 0.534340 -0.042570
N16   N     N_R   0.556610 0.157790 0.497330 -0.041645
N17   N     N_R   0.443390 0.842210 0.502670 -0.042037
N18   N     N_R   0.443390 0.997080 0.657540 -0.042754
N19   N     N_R   0.556610 0.002920 0.342460 -0.044961
N20   N     N_R   0.443390 0.203250 0.451380 -0.039091
Ni1   Ni    Ni4+2 0.629830 0.882720 0.617850 0.216188
Ni2   Ni    Ni4+2 0.370170 0.117280 0.382150 0.208360
Ni3   Ni    Ni4+2 0.629830 0.013030 0.487540 0.213787
Ni4   Ni    Ni4+2 0.370170 0.986970 0.512460 0.210590

loop_
_geom_bond_atom_site_label_1
_geom_bond_atom_site_label_2
_ccdc_geom_bond_type
C70   H55   S    
N6    Ni3   S    
C63   C65   A    
C66   H41   S    
C29   C42   A    
C25   H8    S    
C63   N8    A    
C14   C18   A    
C10   H6    S    
C55   N20   A    
C47   C49   A    
C66   N9    S    
C53   H27   S    
C15   C19   A    
C57   H30   S    
C46   C49   A    
N15   Ni1   S    
C28   H23   S    
N1    Ni1   S    
C59   H32   S    
C22   H10   S    
C14   C21   A    
C35   C37   A    
N17   Ni4   S    
C24   C26   D    
C38   C42   A    
C68   H47   S    
C61   N6    A    
N2    Ni1   S    
C41   N17   A    
C69   H51   S    
C36   H18   S    
C29   N11   S    
C38   H20   S    
C59   N4    A    
C8    H4    S    
C33   C36   A    
C56   C57   A    
C12   H12   S    
C16   N14   A    
C2    C13   A    
H49   N11   S    
C39   H21   S    
C62   C64   A    
C68   H46   S    
C13   H56   S    
C54   C71   A    
C22   C25   D    
C35   C49   S    
C31   C33   A    
C19   C67   S    
N16   Ni3   S    
C52   H38   S    
C62   N7    A    
C4    H2    S    
C44   C47   A    
C60   N5    A    
C70   H54   S    
C48   C50   A    
C14   N9    S    
N18   Ni4   S    
C16   H14   S    
C23   C60   A    
C54   H28   S    
C15   C20   A    
C1    N1    A    
C27   H34   S    
C27   C51   D    
C45   C47   S    
C40   C45   A    
C46   C48   A    
C66   H43   S    
C40   N16   A    
C51   C52   S    
C43   H13   S    
C32   C35   A    
N8    N12   A    
N5    N14   A    
C4    C6    A    
C40   H25   S    
C5    C7    A    
C37   H19   S    
C11   C72   A    
C39   C43   A    
C69   H52   S    
C25   C26   S    
N2    N17   A    
C70   H57   S    
C24   C34   S    
C12   N12   A    
N5    Ni4   S    
H40   N9    S    
C63   H37   S    
C2    C4    A    
C24   H9    S    
C41   C56   A    
C15   N10   S    
N4    Ni2   S    
C32   H17   S    
N14   Ni2   S    
N7    Ni3   S    
N6    N15   A    
C2    H59   S    
C5    C21   S    
C70   N13   S    
C9    H5    S    
C68   N10   S    
C9    C11   A    
N8    Ni4   S    
H44   N10   S    
C30   C43   A    
C6    C8    A    
C8    C10   A    
C46   H24   S    
N20   Ni2   S    
N1    N7    A    
C16   C23   A    
N19   Ni3   S    
C53   N18   A    
C57   N2    A    
C17   C34   A    
C11   H45   S    
C1    C64   A    
N4    N19   A    
C30   N13   S    
C44   C50   A    
C18   C71   S    
C48   C56   S    
C51   H39   S    
C31   H16   S    
C66   H42   S    
C17   N15   A    
C17   H15   S    
C22   C23   S    
C42   H11   S    
N16   N20   A    
C3    C5    A    
C10   C13   A    
C7    H3    S    
C3    H60   S    
C72   H58   S    
C54   N19   A    
C58   N3    A    
C69   N11   S    
N3    N18   A    
C6    C20   S    
C12   C65   A    
C55   H29   S    
C26   H7    S    
N3    Ni1   S    
C1    H1    S    
C36   C38   A    
C28   C65   S    
C33   C50   S    
C29   C31   A    
H53   N13   S    
C68   H48   S    
C30   C32   A    
C28   C52   D    
C69   H50   S    
C3    C72   A    
C18   C20   A    
C34   C61   A    
N12   Ni2   S    
C53   C67   A    
C44   H22   S    
C27   C64   S    
C7    C9    A    
C58   C67   A    
C62   H36   S    
C45   C55   A    
C37   C39   A    
C61   H35   S    
C41   H26   S    
C58   H31   S    
C60   H33   S    
C59   C71   A    
C19   C21   A    
