data_mof_unit_18762.cif
_audit_creation_date              2012-12-10T17:25:32-0500
_audit_creation_method            fapswitch 2.2
_symmetry_space_group_name_H-M    P1
_symmetry_Int_Tables_number       1
_space_group_crystal_system       triclinic
_cell_length_a                    10.103052
_cell_length_b                    10.434363
_cell_length_c                    23.342281
_cell_angle_alpha                 90.122859
_cell_angle_beta                  82.071238
_cell_angle_gamma                 93.758563
_cell_volume                      2431.89293764

loop_
_atom_site_label
_atom_site_type_symbol
_atom_type_description
_atom_site_fract_x
_atom_site_fract_y
_atom_site_fract_z
_atom_type_partial_charge
C1    C     C_R   0.553914 0.735163 0.499407 0.904070
C2    C     C_R   0.377822 0.542387 0.306632 -0.216292
C3    C     C_R   0.399717 0.582797 0.766441 0.133616
C4    C     C_R   0.371112 0.550870 0.247263 0.137976
C5    C     C_R   0.505576 0.534474 0.791639 0.300160
C6    C     C_R   0.484672 0.520200 0.208470 0.292220
C7    C     C_2   0.578289 0.871636 0.510005 -0.441591
C8    C     C_2   0.423303 0.128722 0.520704 -0.432269
C9    C     C_2   0.500815 0.930661 0.552711 0.038491
C10   C     C_2   0.504716 0.070452 0.552442 0.031056
C11   C     C_2   0.926843 0.510710 0.505062 -0.117855
C12   C     C_R   0.446402 0.264910 0.506761 0.902699
C13   C     C_2   0.073189 0.489529 0.494840 -0.123359
C14   C     C_R   0.501331 0.501409 0.610777 0.838591
C15   C     C_R   0.498655 0.500577 0.389159 0.888600
C16   C     C_R   0.408456 0.439734 0.121752 0.478605
C17   C     C_R   0.569083 0.633358 0.877512 0.488279
C18   C     C_R   0.551354 0.631608 0.117870 0.492005
C19   C     C_R   0.418924 0.445943 0.884575 0.494268
C20   C     C_R   0.544089 0.647734 0.058249 -0.114610
C21   C     C_R   0.392355 0.457164 0.945070 -0.132317
C22   C     C_R   0.461998 0.556266 0.031805 -0.042080
C23   C     C_R   0.610526 0.477588 0.757548 -0.095768
C24   C     C_R   0.464482 0.556693 0.971516 -0.038977
C25   C     C_R   0.382908 0.459398 0.065198 -0.057695
C26   C     C_R   0.544390 0.652532 0.937594 -0.059582
C27   C     C_R   0.612471 0.751741 0.024470 -0.033948
C28   C     C_R   0.295524 0.374909 0.979846 -0.059463
C29   C     C_R   0.598512 0.761446 0.965129 0.109626
C30   C     C_R   0.282801 0.385128 0.040713 0.112447
C31   C     C_2   0.698236 0.851584 0.049797 0.476507
C32   C     C_2   0.202694 0.283493 0.953434 0.482874
C33   C     C_3   0.625197 0.892419 0.934484 -0.371071
C34   C     C_R   0.600550 0.483191 0.228746 -0.103977
C35   C     C_3   0.531766 0.992407 0.962895 -0.405624
C36   C     C_3   0.560148 0.122361 0.932192 -0.740948
C37   C     C_3   0.152084 0.336858 0.077922 -0.357240
C38   C     C_3   0.034221 0.413617 0.065251 -0.395825
C39   C     C_3   0.904551 0.368926 0.103529 -0.829332
C40   C     C_3   0.286991 0.649656 0.801533 -0.422264
C41   C     C_3   0.154620 0.566711 0.806770 -0.366822
C42   C     C_3   0.043123 0.630599 0.845065 -0.783877
C43   C     C_3   0.247157 0.593402 0.223676 -0.420563
C44   C     C_3   0.130992 0.631314 0.268866 -0.390063
C45   C     C_R   0.610444 0.466950 0.698172 -0.213918
C46   C     C_3   0.013085 0.670673 0.239873 -0.804913
C47   C     C_2   0.594986 0.140809 0.588821 0.489464
C48   C     C_2   0.414698 0.861078 0.601174 0.476836
C49   C     C_R   0.605745 0.476201 0.287701 -0.230139
C50   C     C_R   0.504167 0.511706 0.672873 -0.071915
C51   C     C_R   0.494388 0.505607 0.326908 -0.081207
C52   C     C_R   0.399896 0.569909 0.707084 -0.216716
H1    H     H_    0.118836 0.615719 0.553850 0.173965
H2    H     H_    0.651049 0.926996 0.479543 0.168487
H3    H     H_    0.110189 0.420678 0.462586 0.162789
H4    H     H_    0.889863 0.579724 0.537243 0.172430
H5    H     H_    0.657978 0.905689 0.087203 0.106051
H6    H     H_    0.149408 0.315763 0.919392 0.087300
H7    H     H_    0.665937 0.157924 0.932957 0.249815
H8    H     H_    0.540289 0.114525 0.886646 0.279129
H9    H     H_    0.494227 0.192989 0.954706 0.270409
H10   H     H_    0.425874 0.958380 0.960904 0.258043
H11   H     H_    0.543642 0.006736 0.008990 0.221612
H12   H     H_    0.881180 0.384151 0.446218 0.164358
H13   H     H_    0.731739 0.926880 0.933727 0.252178
H14   H     H_    0.605393 0.888615 0.889183 0.255503
H15   H     H_    0.878018 0.266055 0.095552 0.278209
H16   H     H_    0.915693 0.381981 0.149902 0.247308
H17   H     H_    0.821865 0.426447 0.093444 0.257543
H18   H     H_    0.057126 0.517227 0.073421 0.237341
H19   H     H_    0.017659 0.403363 0.019432 0.224089
H20   H     H_    0.130788 0.232670 0.071268 0.256090
H21   H     H_    0.156164 0.349028 0.124637 0.234701
H22   H     H_    0.069219 0.643539 0.889517 0.256790
H23   H     H_    0.690999 0.440162 0.777335 0.148039
H24   H     H_    0.026850 0.725596 0.826794 0.286618
H25   H     H_    0.948526 0.569077 0.847521 0.258489
H26   H     H_    0.123909 0.550953 0.763236 0.233367
H27   H     H_    0.167575 0.471644 0.825791 0.254508
H28   H     H_    0.310713 0.673530 0.845510 0.200897
H29   H     H_    0.275090 0.742539 0.780145 0.228659
H30   H     H_    0.043960 0.754839 0.210914 0.272724
H31   H     H_    0.975210 0.589816 0.214245 0.257164
H32   H     H_    0.930573 0.697057 0.273432 0.254343
H33   H     H_    0.095479 0.548404 0.298070 0.224226
H34   H     H_    0.686953 0.460605 0.198536 0.142931
H35   H     H_    0.165153 0.713357 0.294829 0.233910
H36   H     H_    0.278244 0.676716 0.194136 0.209576
H37   H     H_    0.207767 0.513781 0.197937 0.217883
H38   H     H_    0.585689 0.241612 0.598094 0.065436
H39   H     H_    0.424013 0.760203 0.608680 0.055994
H40   H     H_    0.691885 0.422102 0.672284 0.171915
H41   H     H_    0.696621 0.447954 0.302530 0.165739
H42   H     H_    0.318787 0.607078 0.687583 0.167712
H43   H     H_    0.293334 0.565655 0.337587 0.158462
H44   H     H_    0.348010 0.072860 0.500461 0.168691
N1    N     N_R   0.483487 0.529602 0.147559 -0.343815
N2    N     N_R   0.501367 0.535832 0.852858 -0.341577
N3    N     N_2   0.842710 0.448880 0.476480 -0.192152
N4    N     N_2   0.157290 0.551120 0.523520 -0.188774
O1    O     O_R   0.431060 0.692470 0.504730 -0.610793
O2    O     O_2   0.664978 0.705662 0.843969 -0.575519
O3    O     O_2   0.625914 0.714843 0.146422 -0.584040
O4    O     O_2   0.366722 0.344957 0.857032 -0.581826
O5    O     O_2   0.814658 0.874603 0.028514 -0.557483
O6    O     O_2   0.186823 0.171215 0.968921 -0.559779
O7    O     O_2   0.679329 0.085049 0.609997 -0.562128
O8    O     O_2   0.333999 0.917492 0.634145 -0.566728
O9    O     O_R   0.568940 0.307530 0.495270 -0.611726
O10   O     O_R   0.651120 0.659650 0.489640 -0.585914
O11   O     O_R   0.348880 0.340350 0.510360 -0.580792
O12   O     O_R   0.389950 0.516450 0.591390 -0.618243
O13   O     O_R   0.610050 0.483550 0.408610 -0.607705
O14   O     O_R   0.610020 0.483630 0.576300 -0.622926
O15   O     O_R   0.389980 0.516370 0.423700 -0.618148
O16   O     O_2   0.364214 0.329493 0.150333 -0.575935
Zn1   Zn    Zn3+2 0.353060 0.521920 0.510080 0.950585
Zn2   Zn    Zn3+2 0.646940 0.478080 0.489920 0.947822

loop_
_geom_bond_atom_site_label_1
_geom_bond_atom_site_label_2
_ccdc_geom_bond_type
C38   H18   S    
C41   C42   S    
C23   C45   A    
C27   C29   A    
C39   H16   S    
C35   C36   S    
C8    H44   S    
C32   H6    S    
C43   C44   S    
C36   H7    S    
O10   Zn2   S    
C33   H13   S    
C14   C50   S    
C14   O12   A    
C43   H37   S    
C43   H36   S    
C2    H43   S    
C19   C21   A    
C24   C26   A    
O12   Zn1   S    
C16   N1    A    
C29   C33   S    
C25   C30   A    
C11   N3    D    
C34   H34   S    
C45   H40   S    
C46   H30   S    
H12   N3    S    
O15   Zn1   S    
C22   C25   A    
O9    Zn2   S    
C50   C52   A    
C40   H28   S    
C52   H42   S    
C18   N1    A    
C15   C51   S    
C44   H35   S    
C9    C10   S    
C18   C20   A    
C3    C5    A    
C32   O6    D    
C31   O5    D    
C16   O16   S    
C12   O9    A    
C19   N2    A    
C44   C46   S    
C33   H14   S    
H1    N4    S    
C38   C39   S    
C42   H22   S    
C27   C31   S    
C6    N1    S    
C28   C32   S    
C4    C6    A    
C41   H26   S    
C49   C51   A    
C14   O14   A    
C48   H39   S    
C46   H31   S    
C30   C37   S    
C2    C4    A    
C17   O2    S    
C37   C38   S    
C1    O10   A    
C19   O4    S    
C5    C23   A    
C8    C12   S    
C15   O13   A    
C39   H17   S    
O14   Zn2   S    
C26   C29   A    
C46   H32   S    
C40   C41   S    
C20   C27   A    
C21   C28   A    
C20   C22   A    
C3    C40   S    
C47   O7    D    
C47   H38   S    
C22   C24   A    
C37   H20   S    
C17   C26   A    
C36   H9    S    
C1    O1    A    
C17   N2    A    
C16   C25   A    
C7    C9    D    
C37   H21   S    
C38   H19   S    
C34   C49   A    
C1    C7    S    
C39   H15   S    
C40   H29   S    
C23   H23   S    
C36   H8    S    
C41   H27   S    
C3    C52   A    
C4    C43   S    
C42   H24   S    
O11   Zn1   S    
O1    Zn1   S    
C31   H5    S    
C13   N4    D    
C28   C30   A    
N3    Zn2   S    
C11   C13   S    
C48   O8    D    
C45   C50   A    
C33   C35   S    
C35   H10   S    
C15   O15   A    
C18   O3    S    
C2    C51   A    
O13   Zn2   S    
C6    C34   A    
C5    N2    S    
C9    C48   S    
C8    C10   D    
C21   C24   A    
C10   C47   S    
C42   H25   S    
C35   H11   S    
N4    Zn1   S    
C7    H2    S    
C49   H41   S    
C12   O11   A    
C11   H4    S    
C44   H33   S    
C13   H3    S    
