data_mof_unit_68466.cif
_audit_creation_date              2012-10-26T19:56:13-0400
_audit_creation_method            fapswitch 2.2
_symmetry_space_group_name_H-M    P1
_symmetry_Int_Tables_number       1
_space_group_crystal_system       triclinic
_cell_length_a                    11.227991
_cell_length_b                    11.214347
_cell_length_c                    9.687389
_cell_angle_alpha                 89.863012
_cell_angle_beta                  87.823145
_cell_angle_gamma                 86.215058
_cell_volume                      1216.24470254

loop_
_atom_site_label
_atom_site_type_symbol
_atom_type_description
_atom_site_fract_x
_atom_site_fract_y
_atom_site_fract_z
_atom_type_partial_charge
C1    C     C_R   0.501120 0.259083 0.500644 0.531195
C2    C     C_3   0.389147 0.049705 0.527674 -0.086429
C3    C     C_3   0.498019 0.879573 0.497910 0.016490
C4    C     C_3   0.501856 0.120203 0.503598 0.014903
C5    C     C_3   0.460975 0.961800 0.621046 -0.001535
C6    C     C_3   0.538918 0.037773 0.380773 -0.004219
C7    C     C_3   0.527650 0.599016 0.048608 0.120663
C8    C     C_3   0.472829 0.400945 0.951545 0.118392
C9    C     C_3   0.423466 0.579353 0.957709 0.062660
C10   C     C_3   0.576899 0.420789 0.042558 0.057955
C11   C     C_3   0.603661 0.521812 0.943012 0.003612
C12   C     C_R   0.498803 0.740847 0.499600 0.521767
C13   C     C_3   0.396655 0.478095 0.056944 0.009799
C14   C     C_R   0.262687 0.494451 0.501963 0.563029
C15   C     C_R   0.737027 0.506545 0.497503 0.520936
C16   C     C_R   0.126937 0.261633 0.076322 -0.106032
C17   C     C_R   0.865053 0.765503 0.899399 -0.092932
C18   C     C_R   0.113487 0.367623 0.151530 -0.105788
C19   C     C_R   0.878686 0.654676 0.833217 -0.093235
C20   C     C_R   0.111161 0.365088 0.296321 0.017284
C21   C     C_R   0.889804 0.648779 0.688734 0.004647
C22   C     C_R   0.126634 0.253197 0.363637 -0.079231
C23   C     C_R   0.872062 0.512733 0.494078 -0.060128
C24   C     C_R   0.882489 0.756314 0.611852 -0.071735
C25   C     C_R   0.135626 0.146162 0.287121 0.017127
C26   C     C_R   0.873378 0.867672 0.679004 0.023450
C27   C     C_R   0.133683 0.151928 0.143353 -0.152016
C28   C     C_R   0.867935 0.870783 0.823017 -0.172077
C29   C     C_R   0.945220 0.507405 0.371570 -0.024311
C30   C     C_R   0.053332 0.500789 0.624807 -0.027431
C31   C     C_3   0.330855 0.681724 0.945778 -0.284150
C32   C     C_3   0.240851 0.666398 0.838050 -0.278179
C33   C     C_3   0.141151 0.763380 0.850569 -0.471443
C34   C     C_R   0.127133 0.490764 0.503031 -0.000601
C35   C     C_3   0.669072 0.317982 0.055652 -0.283047
C36   C     C_3   0.759804 0.333234 0.162925 -0.284222
C37   C     C_3   0.857811 0.234554 0.152023 -0.465462
C38   C     C_2   0.562993 0.709890 0.105265 0.229957
C39   C     C_2   0.439700 0.288906 0.896009 0.257279
C40   C     C_2   0.134742 0.027768 0.354067 0.242346
C41   C     C_2   0.878243 0.981354 0.602070 0.246786
C42   C     C_2   0.907120 0.584159 0.254516 0.179282
C43   C     C_2   0.086801 0.427499 0.745250 0.202522
C44   C     C_3   0.415343 0.912387 0.755044 -0.274893
C45   C     C_R   0.930127 0.535575 0.616693 -0.050286
C46   C     C_3   0.355425 0.009283 0.846958 -0.284533
C47   C     C_3   0.351032 0.978934 0.000540 -0.475290
C48   C     C_3   0.584610 0.086745 0.246929 -0.271003
C49   C     C_3   0.648081 0.990043 0.157546 -0.292336
C50   C     C_3   0.653675 0.019557 0.003984 -0.474535
C51   C     C_R   0.068898 0.472513 0.378914 0.033068
C52   C     C_3   0.573457 0.032751 0.599369 -0.115271
C53   C     C_3   0.426517 0.966923 0.402361 -0.108170
C54   C     C_3   0.610663 0.949971 0.474162 -0.098892
Cu1   Cu    Cu3+1 0.500030 0.499990 0.643150 0.982171
Cu2   Cu    Cu3+1 0.499970 0.500010 0.356850 0.955425
H1    H     H_    0.129484 0.071686 0.082804 0.103080
H2    H     H_    0.893253 0.753395 0.500304 0.151619
H3    H     H_    0.697590 0.903641 0.444504 0.164119
H4    H     H_    0.301963 0.095247 0.558429 0.182904
H5    H     H_    0.631540 0.058051 0.683206 0.094794
H6    H     H_    0.370115 0.940633 0.317526 0.099901
H7    H     H_    0.089845 0.752588 0.949260 0.195268
H8    H     H_    0.173800 0.853893 0.847868 0.158575
H9    H     H_    0.085705 0.756133 0.760125 0.182967
H10   H     H_    0.283765 0.674126 0.734928 0.212064
H11   H     H_    0.204064 0.578737 0.853767 0.199039
H12   H     H_    0.871996 0.954604 0.876498 0.094616
H13   H     H_    0.283931 0.694992 0.048502 0.139587
H14   H     H_    0.379129 0.759807 0.927001 0.136418
H15   H     H_    0.824681 0.145001 0.164969 0.167354
H16   H     H_    0.904431 0.238195 0.049446 0.152570
H17   H     H_    0.917321 0.246512 0.237681 0.187839
H18   H     H_    0.798856 0.419926 0.146178 0.184161
H19   H     H_    0.716998 0.326654 0.266163 0.218178
H20   H     H_    0.620192 0.240322 0.075509 0.138977
H21   H     H_    0.715623 0.303668 0.952891 0.118735
H22   H     H_    0.493579 0.769937 0.150961 0.086922
H23   H     H_    0.691042 0.538340 0.894201 0.132200
H24   H     H_    0.509640 0.230282 0.848713 0.072304
H25   H     H_    0.142290 0.947270 0.291413 0.109912
H26   H     H_    0.873196 0.065610 0.657637 0.104822
H27   H     H_    0.814950 0.615700 0.246604 0.196732
H28   H     H_    0.040012 0.441464 0.844139 0.078213
H29   H     H_    0.274121 0.925870 0.028803 0.134406
H30   H     H_    0.433471 0.928540 0.029343 0.135353
H31   H     H_    0.345010 0.062302 0.061932 0.181877
H32   H     H_    0.413038 0.081164 0.833016 0.210434
H33   H     H_    0.265161 0.038810 0.811662 0.202602
H34   H     H_    0.309523 0.461553 0.105919 0.142077
H35   H     H_    0.348871 0.850480 0.727036 0.168698
H36   H     H_    0.493660 0.866622 0.804221 0.163598
H37   H     H_    0.571246 0.068985 0.973190 0.134736
H38   H     H_    0.729643 0.074283 0.977608 0.136992
H39   H     H_    0.661726 0.935752 0.943385 0.185214
H40   H     H_    0.738403 0.963249 0.194612 0.197686
H41   H     H_    0.593218 0.916063 0.171656 0.211223
H42   H     H_    0.506135 0.130284 0.195974 0.160396
H43   H     H_    0.648689 0.150950 0.275291 0.169655
H44   H     H_    0.119985 0.263249 0.965936 0.201990
H45   H     H_    0.864622 0.770473 0.010618 0.213040
H46   H     H_    0.101349 0.450406 0.095607 0.165580
H47   H     H_    0.886883 0.574628 0.895309 0.117714
H48   H     H_    0.121155 0.248968 0.475340 0.174252
N1    N     N_3   0.500090 0.499970 0.858290 -0.265230
N2    N     N_3   0.499910 0.500030 0.141710 -0.265518
O1    O     O_R   0.500060 0.316850 0.620870 -0.499552
O2    O     O_2   0.335305 0.266727 0.898757 -0.517223
O3    O     O_2   0.124201 0.018027 0.479247 -0.515032
O4    O     O_2   0.887892 0.982862 0.476194 -0.519978
O5    O     O_2   0.979812 0.621079 0.170811 -0.577236
O6    O     O_2   0.162785 0.345004 0.732866 -0.479487
O7    O     O_R   0.499940 0.683150 0.379130 -0.510004
O8    O     O_R   0.500000 0.316860 0.379090 -0.520188
O9    O     O_R   0.500000 0.683140 0.620910 -0.522284
O10   O     O_R   0.319670 0.500010 0.620890 -0.475894
O11   O     O_R   0.680330 0.499990 0.379110 -0.538023
O12   O     O_R   0.319620 0.500010 0.379110 -0.512246
O13   O     O_R   0.680380 0.499990 0.620890 -0.502730
O14   O     O_2   0.668334 0.728187 0.108111 -0.594104

loop_
_geom_bond_atom_site_label_1
_geom_bond_atom_site_label_2
_ccdc_geom_bond_type
Cu1   Cu2   S    
C8    C13   S    
C23   C45   A    
C29   C42   S    
Cu2   O11   S    
C30   C45   A    
C35   C36   S    
C8    N1    S    
C33   H9    S    
C46   H33   S    
Cu1   O13   S    
C7    C11   S    
C34   C51   A    
C6    C48   S    
Cu1   N1    S    
C23   C29   A    
C36   C37   S    
C19   C21   A    
C24   C26   A    
C20   C51   S    
C52   H5    S    
C25   C40   S    
C13   H34   S    
C3    C54   S    
C2    H4    S    
C50   H39   S    
Cu1   O10   S    
C9    N1    S    
C22   H48   S    
C18   H46   S    
C9    C13   S    
C17   H45   S    
C3    C12   S    
C19   H47   S    
C31   H14   S    
C52   C54   S    
C14   O12   A    
C22   C25   A    
C11   N1    S    
Cu2   O7    S    
C5    C52   S    
C10   C35   S    
C8    C39   S    
C21   C45   S    
C44   H36   S    
C12   O9    A    
C38   O14   D    
C16   C27   A    
C15   C23   S    
C43   H28   S    
C6    C54   S    
C44   C46   S    
C46   H32   S    
C54   H3    S    
C39   O2    D    
C35   H20   S    
C30   C34   A    
C47   H30   S    
C4    C6    S    
C27   H1    S    
C16   H44   S    
C38   H22   S    
C35   H21   S    
C15   O11   A    
Cu1   O1    S    
C47   H31   S    
C2    C4    S    
C42   O5    D    
C36   H19   S    
C53   H6    S    
C31   C32   S    
C33   H7    S    
C7    N2    S    
C16   C18   A    
Cu2   N2    S    
C44   H35   S    
C11   H23   S    
C1    O1    A    
C32   H11   S    
C24   H2    S    
C48   C49   S    
C5    C44   S    
C4    C52   S    
C41   O4    D    
C37   H15   S    
C30   C43   S    
C10   N2    S    
C2    C5    S    
C43   O6    D    
C21   C24   A    
C6    C53   S    
C47   H29   S    
C32   H10   S    
C12   O7    A    
C29   C51   A    
C7    C9    S    
C48   H43   S    
C37   H17   S    
C46   C47   S    
C36   H18   S    
C28   H12   S    
C17   C28   A    
Cu2   O12   S    
C40   H25   S    
C50   H38   S    
C42   H27   S    
C20   C22   A    
C13   N2    S    
C3    C5    S    
C2    C53   S    
C14   C34   S    
C50   H37   S    
C40   O3    D    
C25   C27   A    
C48   H42   S    
C26   C28   A    
C1    C4    S    
C39   H24   S    
C32   C33   S    
C3    C53   S    
Cu1   O9    S    
C33   H8    S    
C14   O10   A    
C41   H26   S    
C17   C19   A    
C7    C38   S    
C15   O13   A    
C18   C20   A    
C49   H40   S    
C10   C11   S    
C9    C31   S    
C49   H41   S    
C31   H13   S    
C8    C10   S    
C49   C50   S    
C1    O8    A    
C37   H16   S    
Cu2   O8    S    
C26   C41   S    
