data_mof_unit_57241.cif
_audit_creation_date              2012-10-26T18:32:02-0400
_audit_creation_method            fapswitch 2.2
_symmetry_space_group_name_H-M    P1
_symmetry_Int_Tables_number       1
_space_group_crystal_system       triclinic
_cell_length_a                    12.435521
_cell_length_b                    13.28598
_cell_length_c                    14.366518
_cell_angle_alpha                 93.873598
_cell_angle_beta                  108.832008
_cell_angle_gamma                 117.101282
_cell_volume                      1933.91869108

loop_
_atom_site_label
_atom_site_type_symbol
_atom_type_description
_atom_site_fract_x
_atom_site_fract_y
_atom_site_fract_z
_atom_type_partial_charge
C1    C     C_R   0.655212 0.714886 0.516468 0.672614
C2    C     C_R   0.202489 0.477987 0.001483 -0.084656
C3    C     C_R   0.183323 0.533806 0.077022 0.017130
C4    C     C_R   0.622383 0.521459 0.686877 0.576995
C5    C     C_R   0.291011 0.437178 0.029123 -0.069821
C6    C     C_R   0.352999 0.442196 0.130429 0.434329
C7    C     C_R   0.241328 0.532493 0.178600 -0.121187
C8    C     C_R   0.148606 0.962995 0.392709 0.401581
C9    C     C_R   0.261939 0.163607 0.489476 -0.082450
C10   C     C_R   0.786657 0.904321 0.642928 0.303616
C11   C     C_R   0.914837 0.996976 0.701067 0.089277
C12   C     C_R   0.911582 0.576282 0.917099 -0.018961
C13   C     C_R   0.010777 0.026229 0.660549 0.392743
C14   C     C_R   0.975804 0.976751 0.557402 -0.012505
C15   C     C_R   0.848849 0.879005 0.502264 -0.076424
C16   C     C_R   0.349655 0.286294 0.492549 0.547743
C17   C     C_R   0.066654 0.015629 0.509665 -0.025055
C18   C     C_R   0.045718 0.935307 0.425735 -0.050123
C19   C     C_R   0.919013 0.835757 0.372924 0.081925
C20   C     C_R   0.818732 0.818247 0.404882 0.371510
C21   C     C_R   0.170436 0.133705 0.536381 0.077254
C22   C     C_R   0.256745 0.075245 0.427019 -0.077461
C23   C     C_R   0.917168 0.660204 0.987581 -0.038207
C24   C     C_R   0.757431 0.838847 0.548179 0.030895
C25   C     C_R   0.268194 0.698636 0.658338 -0.098328
C26   C     C_R   0.657569 0.340246 0.361839 0.177007
C27   C     C_R   0.737966 0.328777 0.316529 0.012305
C28   C     C_R   0.383012 0.485659 0.313266 0.591630
C29   C     C_R   0.874918 0.403740 0.361710 0.023046
C30   C     C_R   0.932329 0.479634 0.459607 -0.072762
C31   C     C_R   0.847557 0.503057 0.494385 0.138237
C32   C     C_R   0.072209 0.537815 0.521019 -0.001037
C33   C     C_R   0.130142 0.633655 0.605345 -0.028902
C34   C     C_R   0.013542 0.548579 0.943412 0.006030
C35   C     C_R   0.050069 0.663736 0.635042 0.087427
C36   C     C_R   0.913198 0.599569 0.581898 0.415569
C37   C     C_R   0.157658 0.501784 0.504318 0.112481
C38   C     C_R   0.346385 0.664206 0.632465 0.083839
C39   C     C_R   0.710831 0.558146 0.794361 -0.044642
C40   C     C_R   0.324286 0.485548 0.205864 0.007973
C41   C     C_R   0.823047 0.695785 0.959081 0.423415
C42   C     C_R   0.721081 0.645468 0.862664 -0.037228
C43   C     C_R   0.802509 0.520974 0.823501 -0.054691
C44   C     C_2   0.883142 0.751731 0.280368 0.698733
C45   C     C_R   0.100363 0.582404 0.047387 -0.002945
C46   C     C_2   0.171362 0.227477 0.600388 0.673088
C47   C     C_2   0.951720 0.058110 0.806775 0.672978
C48   C     C_2   0.106360 0.757770 0.728406 0.643350
C49   C     C_2   0.519630 0.242304 0.322578 0.622572
C50   C     C_2   0.953273 0.416986 0.298899 0.546717
C51   C     C_2   0.675282 0.242214 0.217147 0.633736
C52   C     C_R   0.105220 0.667679 0.116126 0.403460
C53   C     C_R   0.017422 0.708260 0.084803 -0.031954
C54   C     C_R   0.036541 0.493904 0.869548 0.405512
C55   C     C_R   0.132564 0.462662 0.898992 -0.046940
Cu1   Cu    Cu3+1 0.416420 0.526630 0.522910 1.075949
Cu2   Cu    Cu3+1 0.583580 0.473370 0.477090 1.162269
F1    F     F_    0.143333 0.884997 0.323105 -0.574174
F2    F     F_    0.695064 0.868363 0.683915 -0.602753
F3    F     F_    0.139691 0.090662 0.725200 -0.550302
F4    F     F_    0.692124 0.737904 0.341957 -0.589266
F5    F     F_    0.851899 0.637523 0.622677 -0.606125
F6    F     F_    0.438338 0.401826 0.153249 -0.541390
F7    F     F_    0.832691 0.782657 0.022631 -0.556419
F8    F     F_    0.203006 0.722330 0.210430 -0.552519
F9    F     F_    0.977381 0.480859 0.768509 -0.649170
H1    H     H_    0.026434 0.776191 0.137910 0.258287
H2    H     H_    0.785944 0.447559 0.771923 0.213936
H3    H     H_    0.893632 0.617155 0.220230 0.354528
H4    H     H_    0.070429 0.302607 0.624673 0.345225
H5    H     H_    0.083189 0.197161 0.927065 0.336643
H6    H     H_    0.213843 0.820511 0.879727 0.358765
H7    H     H_    0.403087 0.066332 0.277696 0.370757
H8    H     H_    0.005683 0.341068 0.209122 0.336584
H9    H     H_    0.549378 0.186246 0.069951 0.363714
H10   H     H_    0.310335 0.398974 0.971819 0.189599
H11   H     H_    0.329712 0.095800 0.395797 0.189836
H12   H     H_    0.452244 0.714549 0.672801 0.192504
H13   H     H_    0.218401 0.562953 0.236855 0.244999
H14   H     H_    0.317279 0.776858 0.719012 0.164192
H15   H     H_    0.120126 0.421120 0.450668 0.159481
H16   H     H_    0.149525 0.422976 0.840829 0.169218
H17   H     H_    0.653358 0.677927 0.840175 0.182644
N1    N     N_R   0.290690 0.566960 0.557640 -0.249534
N2    N     N_R   0.709100 0.433710 0.442970 -0.266977
O1    O     O_R   0.545970 0.684450 0.528810 -0.458727
O2    O     O_R   0.932841 0.675945 0.287431 -0.610157
O3    O     O_2   0.271426 0.297173 0.674320 -0.439916
O4    O     O_R   0.057662 0.235575 0.575676 -0.696937
O5    O     O_2   0.879411 0.016099 0.851468 -0.400719
O6    O     O_R   0.069405 0.164764 0.855622 -0.631131
O7    O     O_2   0.081800 0.836960 0.723951 -0.450038
O8    O     O_R   0.183702 0.753216 0.821664 -0.672459
O9    O     O_2   0.427238 0.256746 0.281232 -0.422088
O10   O     O_R   0.497632 0.128969 0.320914 -0.673976
O11   O     O_2   0.027167 0.514620 0.294538 -0.479453
O12   O     O_R   0.687130 0.639470 0.490120 -0.420492
O13   O     O_R   0.946378 0.319507 0.247786 -0.642566
O14   O     O_2   0.696615 0.161403 0.210340 -0.395691
O15   O     O_R   0.587497 0.250977 0.132843 -0.617770
O16   O     O_R   0.519670 0.535100 0.660030 -0.503354
O17   O     O_R   0.660830 0.490120 0.621340 -0.434932
O18   O     O_R   0.312870 0.360530 0.509880 -0.495898
O19   O     O_R   0.454030 0.315550 0.471190 -0.504341
O20   O     O_R   0.339170 0.509880 0.378660 -0.522108
O21   O     O_R   0.480330 0.464900 0.339970 -0.387347
O22   O     O_2   0.803082 0.743372 0.199307 -0.370839

loop_
_geom_bond_atom_site_label_1
_geom_bond_atom_site_label_2
_ccdc_geom_bond_type
C31   N2    A    
C27   C29   A    
C25   H14   S    
C41   C42   A    
C11   C47   S    
C19   C20   A    
C9    C21   A    
H8    O13   S    
C13   F3    S    
C52   C53   A    
Cu2   O17   S    
C12   C23   A    
C26   C27   A    
C9    C16   S    
Cu1   O16   S    
C12   C43   A    
C3    C7    A    
C2    C55   A    
C30   C31   A    
C9    C22   A    
C28   C40   S    
C51   O15   S    
Cu1   Cu2   S    
C18   C19   A    
C20   F4    S    
C8    F1    S    
C16   O19   A    
C35   C36   A    
C28   O21   A    
C43   H2    S    
C4    O17   A    
C8    C22   A    
C7    C40   A    
C37   N1    A    
Cu1   N1    S    
C49   O9    D    
C44   O2    S    
H3    O2    S    
Cu2   O21   S    
C13   C14   A    
C14   C17   A    
C37   H15   S    
C36   F5    S    
C35   C48   S    
C27   C51   S    
C23   C53   A    
C39   C42   A    
C46   O3    D    
C29   C50   S    
C51   O14   D    
C15   C20   A    
C50   O13   S    
C48   O8    S    
Cu1   O18   S    
C26   C49   S    
C1    O12   A    
C46   O4    S    
C39   C43   A    
C38   H12   S    
C45   C52   A    
C10   C24   A    
C3    C45   A    
C8    C18   A    
C6    F6    S    
C29   C30   A    
C25   C38   A    
C16   O18   A    
Cu1   O1    S    
C4    C39   S    
C28   O20   A    
Cu2   O12   S    
C4    O16   A    
C17   C18   A    
C34   C45   A    
C32   C37   A    
C49   O10   S    
C55   H16   S    
H6    O8    S    
C15   C24   A    
C34   C54   A    
C47   O5    D    
C6    C40   A    
H4    O4    S    
H7    O10   S    
C12   C34   A    
C19   C44   S    
C7    H13   S    
C21   C46   S    
C44   O22   D    
C1    O1    A    
Cu2   O19   S    
C54   C55   A    
C38   N1    A    
C31   C36   A    
C47   O6    S    
C42   H17   S    
C22   H11   S    
C54   F9    S    
C23   C41   A    
C32   C33   A    
C5    H10   S    
C2    C3    A    
C30   C32   A    
C11   C13   A    
C50   O11   D    
C5    C6    A    
C26   N2    A    
H9    O15   S    
C33   C35   A    
Cu2   N2    S    
C10   F2    S    
C53   H1    S    
C17   C21   A    
Cu1   O20   S    
C10   C11   A    
C2    C5    A    
H5    O6    S    
C1    C24   S    
C48   O7    D    
C14   C15   A    
C41   F7    S    
C52   F8    S    
C25   C33   A    
