data_mof_unit_55162.cif
_audit_creation_date              2012-12-10T17:59:52-0500
_audit_creation_method            fapswitch 2.2
_symmetry_space_group_name_H-M    P1
_symmetry_Int_Tables_number       1
_space_group_crystal_system       triclinic
_cell_length_a                    18.322434
_cell_length_b                    19.032522
_cell_length_c                    19.101759
_cell_angle_alpha                 110.255215
_cell_angle_beta                  109.030474
_cell_angle_gamma                 108.409483
_cell_volume                      5171.72000347

loop_
_atom_site_label
_atom_site_type_symbol
_atom_type_description
_atom_site_fract_x
_atom_site_fract_y
_atom_site_fract_z
_atom_type_partial_charge
C1    C     C_R   0.618622 0.619199 0.497735 0.913944
C2    C     C_R   0.688621 0.682989 0.498588 -0.183804
C3    C     C_R   0.669139 0.485250 0.747734 -0.006361
C4    C     C_R   0.378010 0.499383 0.379838 0.940744
C5    C     C_R   0.737138 0.494438 0.817837 0.396233
C6    C     C_R   0.814178 0.497037 0.813680 -0.403436
C7    C     C_R   0.826180 0.496225 0.742984 0.306430
C8    C     C_R   0.765871 0.504131 0.682203 0.266695
C9    C     C_R   0.687753 0.497770 0.684961 -0.323180
C10   C     C_R   0.245637 0.316142 0.507846 0.081302
C11   C     C_R   0.177461 0.243589 0.490897 -0.191933
C12   C     C_3   0.179102 0.425727 0.205950 0.351266
C13   C     C_R   0.189121 0.175499 0.492506 -0.245908
C14   C     C_R   0.265779 0.170614 0.496945 0.289856
C15   C     C_R   0.333677 0.240109 0.505113 0.279944
C16   C     C_R   0.384373 0.380100 0.504802 0.945998
C17   C     C_R   0.322337 0.312757 0.509274 -0.267041
C18   C     C_R   0.999807 0.619806 0.120241 1.021748
C19   C     C_R   0.125281 0.499598 0.122915 0.950729
C20   C     C_R   0.003525 0.379472 0.883501 0.992787
C21   C     C_R   0.882106 0.499956 0.883004 1.143380
C22   C     C_R   0.000924 0.879707 0.381143 0.868617
C23   C     C_3   0.220227 0.487987 0.301678 0.319371
C24   C     C_R   0.879429 0.880444 0.500112 0.984108
C25   C     C_R   0.997116 0.119050 0.617860 1.136338
C26   C     C_R   0.120860 0.114162 0.495474 1.020704
C27   C     C_R   0.005736 0.763261 0.179568 0.441084
C28   C     C_R   0.623413 0.501778 0.620213 1.048208
C29   C     C_R   0.017210 0.831638 0.251008 0.008359
C30   C     C_R   0.003443 0.815838 0.314767 -0.119796
C31   C     C_R   0.983253 0.735958 0.310155 0.118045
C32   C     C_R   0.980374 0.672880 0.243983 -0.192660
C33   C     C_R   0.993908 0.686275 0.181065 -0.228987
C34   C     C_3   0.311343 0.500705 0.313179 -0.341172
C35   C     C_R   0.077737 0.314701 0.817639 -0.011709
C36   C     C_R   0.073941 0.259923 0.744263 0.411999
C37   C     C_R   0.993667 0.185123 0.680891 -0.409651
C38   C     C_R   0.912587 0.173718 0.679723 0.266562
C39   C     C_R   0.913869 0.241211 0.743046 0.333383
C40   C     C_3   0.327017 0.577885 0.298107 0.049357
C41   C     C_R   0.998061 0.310763 0.813450 -0.310224
C42   C     C_3   0.234943 0.563831 0.285864 0.324436
C43   C     C_3   0.193959 0.501553 0.189934 -0.383785
C44   C     C_3   0.286103 0.515421 0.201290 0.094642
C45   C     C_R   0.762526 0.751158 0.578576 -0.008859
C46   C     C_3   0.270114 0.438183 0.216510 0.012474
C47   C     C_3   0.607870 0.593963 0.334135 -0.410258
C48   C     C_3   0.635668 0.525256 0.308259 -0.751307
C49   C     C_3   0.576070 0.460094 0.737987 -0.303703
C50   C     C_3   0.533499 0.375942 0.737277 -0.571266
C51   C     C_3   0.238743 0.398219 0.528967 -0.308690
C52   C     C_3   0.147706 0.391164 0.510112 -0.722318
C53   C     C_3   0.414974 0.661641 0.359745 -0.358679
C54   C     C_3   0.420680 0.732745 0.338467 -0.682400
C55   C     C_3   0.044465 0.921044 0.260322 -0.338393
C56   C     C_R   0.821426 0.821071 0.579846 0.422334
C57   C     C_3   0.132081 0.960723 0.261216 -0.581641
C58   C     C_3   0.962394 0.714525 0.373292 -0.444120
C59   C     C_3   0.043482 0.725570 0.442482 -0.656129
C60   C     C_3   0.164664 0.372053 0.901956 -0.303625
C61   C     C_3   0.218781 0.326870 0.920127 -0.780741
C62   C     C_3   0.316625 0.533034 0.140613 -0.322537
C63   C     C_3   0.410946 0.550801 0.165327 -0.887589
C64   C     C_3   0.289793 0.364559 0.181233 -0.290959
C65   C     C_3   0.228520 0.302155 0.085807 -0.767018
C66   C     C_3   0.779677 0.746858 0.661486 -0.314614
C67   C     C_R   0.812457 0.814362 0.500178 -0.283019
C68   C     C_3   0.867998 0.749658 0.706191 -0.589650
C69   C     C_3   0.738697 0.733308 0.335548 -0.372092
C70   C     C_3   0.679165 0.766259 0.296983 -0.755895
C71   C     C_R   0.743913 0.741281 0.420165 0.066534
C72   C     C_R   0.681240 0.674780 0.419393 0.108783
H1    H     H_    0.115760 0.242008 0.483015 0.215886
H2    H     H_    0.539256 0.388127 0.800352 0.288639
H3    H     H_    0.461692 0.339463 0.690988 0.226867
H4    H     H_    0.576578 0.513050 0.786822 0.242486
H5    H     H_    0.528391 0.449720 0.677468 0.212478
H6    H     H_    0.805995 0.569249 0.046584 0.376821
H7    H     H_    0.994016 0.425643 0.751937 0.378384
H8    H     H_    0.759276 0.574167 0.522679 0.377727
H9    H     H_    0.096857 0.340693 0.443230 0.285120
H10   H     H_    0.127235 0.378073 0.554595 0.248944
H11   H     H_    0.150671 0.452999 0.519056 0.281623
H12   H     H_    0.967629 0.612314 0.241804 0.216752
H13   H     H_    0.285756 0.445347 0.597887 0.217254
H14   H     H_    0.259499 0.425119 0.492087 0.289856
H15   H     H_    0.193914 0.944456 0.440304 0.395114
H16   H     H_    0.568425 0.317881 0.565198 0.397101
H17   H     H_    0.975679 0.844781 0.027443 0.393438
H18   H     H_    0.399203 0.709606 0.269809 0.246012
H19   H     H_    0.380173 0.760091 0.356310 0.320846
H20   H     H_    0.490101 0.784958 0.376130 0.238154
H21   H     H_    0.424643 0.684747 0.425696 0.248880
H22   H     H_    0.469598 0.648338 0.359490 0.170417
H23   H     H_    0.247549 0.678459 0.457218 0.394943
H24   H     H_    0.174286 0.933180 0.282223 0.288018
H25   H     H_    0.120903 0.951777 0.197505 0.281797
H26   H     H_    0.168547 0.030984 0.305534 0.233019
H27   H     H_    0.990892 0.919642 0.210686 0.254211
H28   H     H_    0.053862 0.968206 0.320474 0.218025
H29   H     H_    0.064740 0.679900 0.413822 0.290564
H30   H     H_    0.098714 0.791793 0.476662 0.271366
H31   H     H_    0.027239 0.712779 0.489464 0.241442
H32   H     H_    0.936824 0.754169 0.403985 0.184757
H33   H     H_    0.908873 0.647267 0.339002 0.209862
H34   H     H_    0.689602 0.546260 0.293413 0.235313
H35   H     H_    0.176354 0.263783 0.909915 0.257232
H36   H     H_    0.251098 0.317642 0.880877 0.325603
H37   H     H_    0.274221 0.367020 0.986514 0.230236
H38   H     H_    0.204617 0.431735 0.905098 0.253695
H39   H     H_    0.150479 0.391273 0.955529 0.157736
H40   H     H_    0.174952 0.322865 0.631078 0.382130
H41   H     H_    0.754178 0.946263 0.509022 0.369165
H42   H     H_    0.755091 0.319336 0.752419 0.377731
H43   H     H_    0.457558 0.612639 0.225344 0.252557
H44   H     H_    0.421129 0.498987 0.172771 0.260743
H45   H     H_    0.659451 0.510469 0.359766 0.281983
H46   H     H_    0.425330 0.555211 0.114405 0.267804
H47   H     H_    0.272518 0.477147 0.076460 0.194781
H48   H     H_    0.310320 0.588090 0.137577 0.226331
H49   H     H_    0.175347 0.244443 0.074818 0.304139
H50   H     H_    0.197632 0.332151 0.054517 0.268441
H51   H     H_    0.265974 0.280755 0.055976 0.235854
H52   H     H_    0.359122 0.391517 0.194580 0.199785
H53   H     H_    0.282408 0.327900 0.215107 0.251227
H54   H     H_    0.044415 0.201231 0.138407 0.390441
H55   H     H_    0.057774 0.456290 0.375381 0.377441
H56   H     H_    0.578471 0.465694 0.250304 0.241070
H57   H     H_    0.893032 0.730177 0.661099 0.274318
H58   H     H_    0.918135 0.814065 0.761715 0.287486
H59   H     H_    0.859947 0.705695 0.732478 0.241067
H60   H     H_    0.772222 0.796257 0.705702 0.245824
H61   H     H_    0.730463 0.687497 0.650853 0.230871
H62   H     H_    0.974051 0.051851 0.736063 0.377607
H63   H     H_    0.610028 0.727638 0.279765 0.228479
H64   H     H_    0.701223 0.833429 0.342345 0.277877
H65   H     H_    0.680414 0.762782 0.238185 0.251044
H66   H     H_    0.804624 0.766505 0.342829 0.191307
H67   H     H_    0.545349 0.567444 0.335296 0.199151
H68   H     H_    0.715355 0.666893 0.287658 0.205276
H69   H     H_    0.588037 0.607335 0.281362 0.211693
H70   H     H_    0.563450 0.335151 0.718883 0.280637
O1    O     O_R   0.592040 0.539900 0.448690 -0.599228
O2    O     O_R   0.948580 0.908330 0.356880 -0.656037
O3    O     O_R   0.960490 0.908280 0.552000 -0.573055
O4    O     O_R   0.591220 0.643330 0.551330 -0.638468
O5    O     O_R   0.856260 0.908310 0.447800 -0.613733
O6    O     O_R   0.051420 0.091500 0.642940 -0.576290
O7    O     O_R   0.947190 0.091540 0.538750 -0.558295
O8    O     O_R   0.143740 0.091510 0.552020 -0.521654
O9    O     O_R   0.039510 0.091550 0.447830 -0.648618
O10   O     O_R   0.408100 0.448290 0.356370 -0.660957
O11   O     O_R   0.407270 0.551710 0.459000 -0.588091
O12   O     O_R   0.054890 0.643310 0.094620 -0.550469
O13   O     O_R   0.408780 0.356670 0.448670 -0.545726
O14   O     O_R   0.407960 0.460100 0.551310 -0.660214
O15   O     O_R   0.592730 0.448290 0.541000 -0.513309
O16   O     O_R   0.591900 0.551710 0.643630 -0.660792
O17   O     O_R   0.951430 0.539890 0.094630 -0.623830
O18   O     O_2   0.214639 0.696773 0.281536 -0.280683
O19   O     O_2   0.111830 0.603430 0.305658 -0.300213
O20   O     O_3   0.272521 0.709380 0.431282 -0.513312
O21   O     O_2   0.663955 0.535835 0.920581 -0.310252
O22   O     O_2   0.690040 0.413412 0.899515 -0.285579
O23   O     O_R   0.044450 0.448260 0.096050 -0.549642
O24   O     O_3   0.821212 0.565950 0.000713 -0.541659
O25   O     O_2   0.892640 0.440103 0.637606 -0.184435
O26   O     O_2   0.993080 0.575356 0.773515 -0.233931
O27   O     O_3   0.950882 0.432335 0.770574 -0.536714
O28   O     O_2   0.883127 0.572802 0.633838 -0.237901
O29   O     O_2   0.753578 0.431402 0.527165 -0.212934
O30   O     O_3   0.736733 0.565363 0.561267 -0.616179
O31   O     O_2   0.317225 0.052821 0.436456 -0.213634
O32   O     O_2   0.331148 0.096789 0.579243 -0.208102
O33   O     O_3   0.179535 0.991479 0.445929 -0.611031
O34   O     O_R   0.147910 0.551670 0.096030 -0.649306
O35   O     O_2   0.458397 0.192334 0.559703 -0.200075
O36   O     O_2   0.414571 0.185693 0.420707 -0.217224
O37   O     O_3   0.518458 0.329691 0.559698 -0.605160
O38   O     O_2   0.096148 0.806035 0.101366 -0.289672
O39   O     O_2   0.946271 0.687476 0.007584 -0.263969
O40   O     O_3   0.964759 0.837803 0.072719 -0.569921
O41   O     O_2   0.232357 0.383504 0.786299 -0.319547
O42   O     O_2   0.207463 0.236231 0.728009 -0.275702
O43   O     O_3   0.124519 0.278451 0.626306 -0.603305
O44   O     O_2   0.756151 0.051593 0.640074 -0.195637
O45   O     O_R   0.952840 0.356630 0.912840 -0.552168
O46   O     O_2   0.759778 0.096214 0.533856 -0.221403
O47   O     O_3   0.816100 0.993028 0.546269 -0.528588
O48   O     O_2   0.731971 0.179607 0.650200 -0.169762
O49   O     O_2   0.794007 0.204992 0.796128 -0.220126
O50   O     O_3   0.816527 0.330954 0.768014 -0.541476
O51   O     O_2   0.009982 0.336440 0.166462 -0.191529
O52   O     O_2   0.046693 0.288832 0.052474 -0.318999
O53   O     O_3   0.100627 0.255856 0.175272 -0.527332
O54   O     O_2   0.156755 0.379365 0.350034 -0.294356
O55   O     O_2   0.239220 0.533400 0.458151 -0.351364
O56   O     O_R   0.056290 0.460040 0.912820 -0.631584
O57   O     O_3   0.079489 0.471034 0.338547 -0.461367
O58   O     O_2   0.881928 0.928805 0.750046 -0.298975
O59   O     O_2   0.989059 0.906007 0.708325 -0.296064
O60   O     O_3   0.933147 0.004882 0.676042 -0.511202
O61   O     O_R   0.859820 0.448260 0.911420 -0.556199
O62   O     O_R   0.963280 0.551670 0.911400 -0.547349
O63   O     O_R   0.052810 0.908290 0.461080 -0.595411
S1    S     S_3+6 0.205883 0.644748 0.325114 0.053282
S2    S     S_3+6 0.811363 0.235985 0.737777 0.146062
S3    S     S_3+6 0.079681 0.324594 0.146861 0.088306
S4    S     S_3+6 0.174647 0.467512 0.365752 0.044546
S5    S     S_3+6 0.907485 0.915324 0.681262 0.048305
S6    S     S_3+6 0.725117 0.501247 0.909719 0.037178
S7    S     S_3+6 0.916808 0.487049 0.729967 0.128622
S8    S     S_3+6 0.786609 0.518012 0.600360 0.062262
S9    S     S_3+6 0.275770 0.077634 0.490346 0.073367
S10   S     S_3+6 0.431422 0.234621 0.510254 0.078687
S11   S     S_3+6 0.003889 0.772530 0.088302 0.040215
S12   S     S_3+6 0.164258 0.291081 0.724245 0.003242
S13   S     S_3+6 0.809259 0.078097 0.599320 0.120816
Zn1   Zn    Zn3+2 0.500550 0.430940 0.431470 1.082074
Zn2   Zn    Zn3+2 0.499450 0.569060 0.568530 1.019294
Zn3   Zn    Zn3+2 0.934780 0.430920 0.003740 1.202179
Zn4   Zn    Zn3+2 0.072940 0.569020 0.003710 1.130187
Zn5   Zn    Zn3+2 0.069600 0.999890 0.569480 1.152860
Zn6   Zn    Zn3+2 0.930400 0.999940 0.430340 1.046134

loop_
_geom_bond_atom_site_label_1
_geom_bond_atom_site_label_2
_ccdc_geom_bond_type
C61   H35   S    
C66   C68   S    
C13   C26   S    
C22   O2    A    
C27   C29   A    
C11   C13   A    
O8    Zn5   S    
C38   S13   S    
C35   C36   A    
C61   H37   S    
O37   S10   S    
C51   H13   S    
C20   C41   S    
C3    C49   S    
O23   Zn3   S    
C7    C8    A    
C39   C41   A    
O28   S8    D    
C53   C54   S    
C27   C33   A    
C56   S5    S    
O44   S13   D    
C12   C23   S    
O61   Zn3   S    
C37   C38   A    
C23   C42   S    
O43   S12   S    
O36   S10   D    
C3    C9    A    
C12   S3    S    
C31   C58   S    
C36   C37   A    
O56   Zn4   S    
O6    Zn5   S    
O25   S7    D    
C54   H18   S    
C12   C43   S    
C24   O3    A    
C50   H2    S    
C30   C31   A    
H17   O40   S    
C10   C17   A    
O10   Zn1   S    
O15   Zn1   S    
O9    Zn6   S    
C14   S9    S    
C25   O7    A    
C1    C2    S    
H15   O33   S    
C69   C71   S    
C61   H36   S    
O26   S7    D    
C19   O34   A    
O11   Zn2   S    
C18   O17   A    
C24   C67   S    
C25   C37   S    
H54   O53   S    
C48   H34   S    
O53   S3    S    
C47   C48   S    
C45   C56   A    
C44   C46   S    
C8    C9    A    
C57   H24   S    
C39   S2    S    
C55   H28   S    
C16   O14   A    
O13   Zn1   S    
C34   C46   S    
O7    Zn6   S    
C65   H49   S    
O39   S11   D    
C29   C30   A    
C62   H48   S    
C18   O12   A    
C63   H43   S    
C69   H68   S    
C40   C42   S    
C4    O11   A    
O41   S12   D    
O51   S3    D    
C13   C14   A    
O20   S1    S    
C70   H64   S    
C21   O62   A    
C1    O4    A    
C68   H57   S    
O60   S5    S    
C2    C72   A    
C10   C51   S    
C51   H14   S    
C19   C43   S    
H62   O60   S    
C66   H60   S    
C2    C45   A    
C7    S7    S    
C38   C39   A    
C32   H12   S    
C4    C34   S    
H6    O24   S    
H42   O50   S    
C53   H21   S    
C51   C52   S    
C59   H29   S    
O33   S9    S    
O38   S11   D    
O55   S4    D    
C15   S10   S    
C8    S8    S    
C11   H1    S    
H23   O20   S    
H40   O43   S    
C63   H46   S    
O21   S6    D    
C16   C17   S    
C29   C55   S    
C44   C62   S    
C58   C59   S    
O17   Zn3   S    
O27   S7    S    
O1    Zn1   S    
O52   S3    D    
O63   Zn5   S    
O58   S5    D    
C5    S6    S    
C46   C64   S    
C60   C61   S    
O57   S4    S    
O12   Zn4   S    
C52   H11   S    
C52   H10   S    
C43   C44   S    
C54   H20   S    
C62   C63   S    
C1    O1    A    
O24   S6    S    
C48   H56   S    
C66   H61   S    
C31   C32   A    
C26   O8    A    
C23   C34   S    
C57   H25   S    
C16   O13   A    
C28   O16   A    
C23   S4    S    
C49   H4    S    
O14   Zn2   S    
O49   S2    D    
C65   H50   S    
C4    O10   A    
C68   H58   S    
C20   O56   A    
C62   H47   S    
C48   H45   S    
O34   Zn4   S    
O54   S4    D    
C12   C46   S    
O42   S12   D    
C64   H53   S    
C55   C57   S    
C27   S11   S    
O50   S2    S    
C34   C40   S    
O19   S1    D    
C58   H32   S    
C42   C43   S    
C63   H44   S    
C47   H67   S    
C21   O61   A    
O59   S5    D    
H41   O47   S    
O47   S13   S    
H16   O37   S    
C69   H66   S    
C15   C17   A    
C26   O9    A    
C22   C30   S    
O62   Zn4   S    
C53   H22   S    
C59   H30   S    
C3    C5    A    
C24   O5    A    
H55   O57   S    
C36   S12   S    
O40   S11   S    
C6    C7    A    
O3    Zn5   S    
C68   H59   S    
O46   S13   D    
C56   C67   A    
O45   Zn3   S    
C47   H69   S    
C58   H33   S    
C59   H31   S    
C64   C65   S    
H7    O27   S    
O31   S9    D    
O4    Zn2   S    
C54   H19   S    
C60   H39   S    
C64   H52   S    
C50   H3    S    
C32   C33   A    
C20   O45   A    
C6    C21   S    
C5    C6    A    
C19   O23   A    
C57   H26   S    
C28   O15   A    
C49   H5    S    
C42   S1    S    
C25   O6    A    
C67   C71   A    
C65   H51   S    
C52   H9    S    
C35   C41   A    
C18   C33   S    
C69   C70   S    
C47   C72   S    
O2    Zn6   S    
C60   H38   S    
C10   C11   A    
O18   S1    D    
O35   S10   D    
O29   S8    D    
C50   H70   S    
O48   S2    D    
C40   C44   S    
C71   C72   A    
C22   O63   A    
C70   H65   S    
O16   Zn2   S    
C49   C50   S    
C70   H63   S    
C55   H27   S    
C45   C66   S    
H8    O30   S    
C14   C15   A    
C35   C60   S    
O22   S6    D    
O32   S9    D    
C40   C53   S    
O5    Zn6   S    
O30   S8    S    
C9    C28   S    
