data_mof_unit_10824.cif
_audit_creation_date              2012-12-10T18:34:26-0500
_audit_creation_method            fapswitch 2.2
_symmetry_space_group_name_H-M    P1
_symmetry_Int_Tables_number       1
_space_group_crystal_system       triclinic
_cell_length_a                    14.993574
_cell_length_b                    15.492793
_cell_length_c                    15.718655
_cell_angle_alpha                 89.784273
_cell_angle_beta                  104.644486
_cell_angle_gamma                 82.52132
_cell_volume                      3500.09146317

loop_
_atom_site_label
_atom_site_type_symbol
_atom_type_description
_atom_site_fract_x
_atom_site_fract_y
_atom_site_fract_z
_atom_type_partial_charge
C1    C     C_R   0.442071 0.662381 0.488134 0.913801
C2    C     C_R   0.558063 0.337904 0.512632 0.935349
C3    C     C_R   0.281555 0.872546 0.485269 0.482039
C4    C     C_R   0.708982 0.131980 0.616302 0.480337
C5    C     C_R   0.312887 0.784211 0.478463 -0.384527
C6    C     C_R   0.682050 0.219157 0.586548 -0.397622
C7    C     C_R   0.472302 0.815253 0.508902 0.393556
C8    C     C_R   0.530933 0.185084 0.506352 0.399742
C9    C     C_R   0.443260 0.900902 0.528156 -0.103308
C10   C     C_R   0.549672 0.103273 0.550179 -0.104255
C11   C     C_R   0.346831 0.931896 0.506878 -0.005375
C12   C     C_R   0.641901 0.074139 0.600003 0.004856
C13   C     C_R   0.508498 0.958599 0.559630 0.099096
C14   C     C_R   0.480308 0.048078 0.541798 0.094245
C15   C     C_R   0.384105 0.079340 0.519384 -0.171955
C16   C     C_R   0.600161 0.929772 0.609445 -0.176417
C17   C     C_R   0.318261 0.021679 0.505866 -0.211390
C18   C     C_R   0.665258 0.987487 0.631499 -0.205104
C19   C     C_R   0.838072 0.648074 0.617323 -0.326522
C20   C     C_R   0.160207 0.355372 0.378331 -0.324181
C21   C     C_R   0.751175 0.620676 0.601539 0.052068
C22   C     C_R   0.248461 0.380062 0.397614 0.036946
C23   C     C_R   0.501131 0.500194 0.662137 0.894587
C24   C     C_R   0.498906 0.499704 0.337880 0.892044
C25   C     C_R   0.794453 0.508673 0.511321 -0.076693
C26   C     C_R   0.204616 0.493216 0.486342 -0.061732
C27   C     C_R   0.884376 0.532836 0.524986 -0.002511
C28   C     C_R   0.113237 0.471936 0.468981 -0.002604
C29   C     C_R   0.904958 0.604572 0.578963 0.178322
C30   C     C_R   0.092354 0.400781 0.414252 0.179780
C31   C     C_R   0.953600 0.488982 0.487057 0.084158
C32   C     C_R   0.043134 0.517464 0.504739 0.083214
C33   C     C_R   0.059533 0.590472 0.557346 -0.236251
C34   C     C_R   0.936318 0.417640 0.432231 -0.241484
C35   C     C_R   0.991681 0.632813 0.593795 -0.211288
C36   C     C_R   0.004360 0.374951 0.396279 -0.212520
C37   C     C_3   0.444429 0.570224 0.013937 -0.166327
C38   C     C_3   0.555917 0.428475 0.986192 -0.162502
C39   C     C_3   0.533099 0.571720 0.980960 -0.166278
C40   C     C_3   0.467242 0.426980 0.019189 -0.164616
C41   C     C_1   0.503405 0.500530 0.751781 -0.178254
C42   C     C_1   0.496784 0.498891 0.248293 -0.186222
C43   C     C_3   0.413616 0.498390 0.949180 -0.161013
C44   C     C_3   0.586727 0.500314 0.050958 -0.162482
C45   C     C_3   0.502280 0.499887 0.917968 0.207649
C46   C     C_3   0.498064 0.498823 0.082164 0.208250
C47   C     C_1   0.503715 0.500404 0.827280 -0.081885
C48   C     C_1   0.496572 0.498601 0.172827 -0.085327
C49   C     C_R   0.407935 0.755286 0.490089 -0.235686
C50   C     C_R   0.592864 0.245754 0.532286 -0.228442
H1    H     H_    0.560130 0.630843 0.963253 0.133374
H2    H     H_    0.440219 0.367867 0.036939 0.133719
H3    H     H_    0.228244 0.544583 0.528447 0.127025
H4    H     H_    0.771171 0.456364 0.470490 0.131579
H5    H     H_    0.301812 0.345376 0.370840 0.171793
H6    H     H_    0.698266 0.654487 0.629672 0.155789
H7    H     H_    0.852618 0.703106 0.658511 0.143402
H8    H     H_    0.145323 0.300999 0.336278 0.147185
H9    H     H_    0.124140 0.617345 0.571510 0.132214
H10   H     H_    0.870662 0.392672 0.415339 0.136280
H11   H     H_    0.398736 0.628095 0.027371 0.133172
H12   H     H_    0.601611 0.370607 0.972752 0.137335
H13   H     H_    0.657461 0.501062 0.094733 0.135867
H14   H     H_    0.342878 0.497646 0.905412 0.135764
H15   H     H_    0.245161 0.047790 0.490608 0.186964
H16   H     H_    0.734647 0.963210 0.670490 0.186470
H17   H     H_    0.730229 0.265987 0.607212 0.196731
H18   H     H_    0.262479 0.738812 0.462121 0.194805
H19   H     H_    0.358967 0.148224 0.516301 0.199227
H20   H     H_    0.621243 0.863160 0.634625 0.186605
H21   H     H_    0.007335 0.688327 0.634022 0.139381
H22   H     H_    0.988091 0.320577 0.354554 0.143091
N1    N     N_R   0.731710 0.552730 0.549140 -0.107330
N2    N     N_R   0.268290 0.447270 0.450860 -0.104610
O1    O     O_R   0.383110 0.605620 0.475230 -0.631147
O2    O     O_R   0.616890 0.394380 0.524770 -0.635043
O3    O     O_R   0.531900 0.639510 0.506760 -0.562257
O4    O     O_R   0.468100 0.360490 0.493240 -0.566922
O5    O     O_R   0.425620 0.483070 0.607460 -0.616327
O6    O     O_R   0.574380 0.516930 0.392540 -0.619394
O7    O     O_R   0.574400 0.516960 0.638990 -0.618216
O8    O     O_R   0.425600 0.483040 0.361010 -0.616079
Zn1   Zn    Zn3+2 0.400660 0.477370 0.478940 0.955309
Zn2   Zn    Zn3+2 0.599340 0.522630 0.521060 0.948490
O9    O     O_3   0.453352 0.205974 0.436357 -0.614217
C51   C     C_3   0.474108 0.171199 0.359575 0.100986
H23   H     H_    0.485470 0.098657 0.364618 0.142583
H24   H     H_    0.537065 0.195191 0.347704 0.126262
C52   C     C_3   0.392708 0.199583 0.280690 -0.847542
H25   H     H_    0.383595 0.271448 0.270231 0.247309
H26   H     H_    0.406325 0.168716 0.220761 0.208424
H27   H     H_    0.327871 0.179602 0.291723 0.257595
O10   O     O_3   0.563134 0.791296 0.503861 -0.610626
C53   C     C_3   0.569149 0.811580 0.417998 0.128463
H28   H     H_    0.553822 0.883208 0.403568 0.129602
H29   H     H_    0.520155 0.777947 0.367835 0.130696
C54   C     C_3   0.667505 0.781125 0.410870 -0.805059
H30   H     H_    0.683524 0.709279 0.421501 0.268322
H31   H     H_    0.673993 0.798828 0.344392 0.197163
H32   H     H_    0.718323 0.812540 0.461001 0.251157
O11   O     O_3   0.187084 0.901404 0.465032 -0.607143
C55   C     C_3   0.152583 0.881582 0.537450 0.091111
H33   H     H_    0.186391 0.916023 0.596613 0.135673
H34   H     H_    0.164072 0.810133 0.553011 0.134451
C56   C     C_3   0.048366 0.911610 0.515175 -0.832153
H35   H     H_    0.012541 0.876968 0.457390 0.262678
H36   H     H_    0.020572 0.897167 0.572026 0.203268
H37   H     H_    0.034086 0.982856 0.499703 0.251507
O12   O     O_3   0.797149 0.105655 0.669817 -0.607408
C57   C     C_3   0.862555 0.103310 0.618815 0.089227
H38   H     H_    0.867151 0.170007 0.595167 0.143846
H39   H     H_    0.844175 0.061162 0.561330 0.132006
C58   C     C_3   0.957959 0.065629 0.675370 -0.826211
H40   H     H_    0.956716 0.997778 0.697659 0.248465
H41   H     H_    0.010537 0.065355 0.636697 0.206047
H42   H     H_    0.978087 0.105757 0.733779 0.264010

loop_
_geom_bond_atom_site_label_1
_geom_bond_atom_site_label_2
_ccdc_geom_bond_type
C39   H1    S    
C4    O12   S    
O10   C53   S    
C27   C29   A    
C1    O3    A    
N2    Zn1   S    
O6    Zn2   S    
O2    Zn2   S    
C54   H30   S    
C20   C30   A    
O9    C51   S    
C19   H7    S    
C40   C46   S    
C56   H36   S    
O11   C55   S    
C19   C21   A    
C51   H24   S    
C21   N1    A    
C24   C42   S    
C55   C56   S    
C15   C17   A    
C8    O9    S    
C9    C13   A    
C57   H38   S    
C38   C45   S    
C24   O8    A    
C2    C50   S    
C26   N2    A    
O4    Zn1   S    
C24   O6    A    
C40   C43   S    
C4    C12   A    
N1    Zn2   S    
C25   N1    A    
C39   C45   S    
C58   H42   S    
C3    O11   S    
C35   H21   S    
C33   H9    S    
C38   C40   S    
C13   C14   A    
C34   H10   S    
C5    C49   A    
C53   H28   S    
C5    H18   S    
C15   H19   S    
C54   H31   S    
C44   C46   S    
C43   H14   S    
C45   C47   S    
C44   H13   S    
C7    O10   S    
C56   H37   S    
C46   C48   S    
C27   C31   A    
C1    O1    A    
C28   C32   A    
C16   H20   S    
C25   H4    S    
C7    C49   A    
C4    C6    A    
C10   C14   A    
C51   H23   S    
C53   C54   S    
C40   H2    S    
C58   H41   S    
C37   C43   S    
C55   H34   S    
C38   C44   S    
C2    O4    A    
C9    C11   A    
C31   C32   A    
C41   C47   T    
C31   C34   A    
C42   C48   T    
C6    C50   A    
C52   H27   S    
C53   H29   S    
C43   C45   S    
C57   C58   S    
C22   H5    S    
C10   C12   A    
C16   C18   A    
C6    H17   S    
C20   C22   A    
C25   C27   A    
C52   H26   S    
C22   N2    A    
C20   H8    S    
C19   C29   A    
C26   H3    S    
C8    C50   A    
O7    Zn2   S    
C2    O2    A    
C58   H40   S    
C7    C9    A    
C11   C17   A    
C54   H32   S    
C23   O7    A    
C26   C28   A    
C3    C5    A    
C51   C52   S    
O3    Zn2   S    
C21   H6    S    
C37   H11   S    
C39   C44   S    
C18   H16   S    
C56   H35   S    
C29   C35   A    
C17   H15   S    
C23   C41   S    
C30   C36   A    
C32   C33   A    
C28   C30   A    
C52   H25   S    
C37   C39   S    
O12   C57   S    
O5    Zn1   S    
O1    Zn1   S    
C33   C35   A    
C34   C36   A    
C55   H33   S    
C57   H39   S    
C3    C11   A    
C8    C10   A    
O8    Zn1   S    
C13   C16   A    
C12   C18   A    
C14   C15   A    
C23   O5    A    
C37   C46   S    
C1    C49   S    
C36   H22   S    
C38   H12   S    
