data_mof_unit_22396.cif
_audit_creation_date              2012-12-10T20:30:15-0500
_audit_creation_method            fapswitch 2.2
_symmetry_space_group_name_H-M    P1
_symmetry_Int_Tables_number       1
_space_group_crystal_system       triclinic
_cell_length_a                    9.871798
_cell_length_b                    10.680584
_cell_length_c                    13.130921
_cell_angle_alpha                 89.898083
_cell_angle_beta                  69.88317
_cell_angle_gamma                 90.035679
_cell_volume                      1300.01350397

loop_
_atom_site_label
_atom_site_type_symbol
_atom_type_description
_atom_site_fract_x
_atom_site_fract_y
_atom_site_fract_z
_atom_type_partial_charge
C1    C     C_R   0.498748 0.739956 0.502449 0.883410
C2    C     C_R   0.368137 0.481059 0.822100 -0.116521
C3    C     C_R   0.375817 0.936092 0.502606 0.105631
C4    C     C_R   0.420010 0.492669 0.704119 0.847967
C5    C     C_R   0.490511 0.871483 0.516662 -0.152783
C6    C     C_R   0.593032 0.935233 0.549137 -0.197052
C7    C     C_R   0.592937 0.064798 0.549412 -0.223224
C8    C     C_R   0.490528 0.128611 0.516933 -0.101258
C9    C     C_R   0.376264 0.063870 0.502348 -0.039463
C10   C     C_3   0.314366 0.070668 0.412715 0.207234
C11   C     C_3   0.314543 0.927942 0.413090 0.150056
C12   C     C_R   0.431754 0.472265 0.984546 0.089685
C13   C     C_R   0.886220 0.521899 0.593422 0.229279
C14   C     C_R   0.969054 0.467013 0.410004 -0.144532
C15   C     C_R   0.112815 0.466744 0.410042 -0.108223
C16   C     C_R   0.498705 0.260098 0.502653 0.921017
C17   C     C_R   0.028563 0.521628 0.593541 0.194840
C18   C     C_3   0.002999 0.636638 0.661696 -0.493289
C19   C     C_3   0.849405 0.637092 0.661177 -0.481094
C20   C     C_R   0.580181 0.499663 0.295710 0.884289
C21   C     C_R   0.778820 0.376440 0.017753 -0.197635
C22   C     C_R   0.628824 0.482893 0.179057 -0.051097
C23   C     C_R   0.461836 0.438781 0.875401 0.083262
C24   C     C_R   0.231466 0.527867 0.882505 -0.190413
C25   C     C_R   0.191999 0.541589 0.994014 -0.151135
C26   C     C_R   0.292050 0.517618 0.044700 -0.187326
C27   C     C_R   0.542565 0.458677 0.029022 0.088993
C28   C     C_R   0.671338 0.393434 0.971375 0.176336
C29   C     C_R   0.689254 0.344063 0.869536 -0.263133
C30   C     C_R   0.585574 0.365911 0.822149 -0.206952
C31   C     C_R   0.529625 0.510666 0.128793 -0.252375
C32   C     C_R   0.756212 0.418868 0.122724 -0.198599
H1    H     H_    0.834168 0.396687 0.161319 0.149233
H2    H     H_    0.784439 0.290206 0.825712 0.149358
H3    H     H_    0.825557 0.718197 0.616974 0.216483
H4    H     H_    0.877066 0.326012 0.974755 0.141995
H5    H     H_    0.439320 0.569687 0.171538 0.142033
H6    H     H_    0.156867 0.557419 0.843237 0.149715
H7    H     H_    0.256036 0.532137 0.131220 0.125289
H8    H     H_    0.085724 0.576293 0.040681 0.145573
H9    H     H_    0.602640 0.323747 0.743878 0.169467
H10   H     H_    0.677239 0.885958 0.568104 0.168972
H11   H     H_    0.505238 0.083074 0.298419 0.327717
H12   H     H_    0.676987 0.114106 0.568673 0.167528
H13   H     H_    0.142318 0.876688 0.387308 0.336568
H14   H     H_    0.205369 0.113982 0.438870 0.165475
H15   H     H_    0.387898 0.881894 0.338357 0.104049
H16   H     H_    0.948301 0.442383 0.336860 0.144160
H17   H     H_    0.199546 0.441260 0.336767 0.162720
H18   H     H_    0.008549 0.617709 0.743291 0.186421
H19   H     H_    0.068379 0.717729 0.618513 0.267457
H20   H     H_    0.767437 0.618600 0.742374 0.210641
N1    N     N_R   0.856940 0.500860 0.500710 -0.105587
N2    N     N_R   0.142580 0.500820 0.500710 -0.097941
O1    O     O_R   0.385310 0.683210 0.499990 -0.585322
O2    O     O_3   0.174807 0.878032 0.450875 -0.771809
O3    O     O_R   0.614650 0.683240 0.500000 -0.617777
O4    O     O_R   0.328390 0.499940 0.653610 -0.617742
O5    O     O_R   0.557730 0.499980 0.653620 -0.617903
O6    O     O_R   0.385350 0.316760 0.500000 -0.595846
O7    O     O_R   0.614690 0.316790 0.500010 -0.635729
O8    O     O_R   0.442270 0.500020 0.346380 -0.611159
O9    O     O_R   0.671610 0.500060 0.346390 -0.623950
O10   O     O_3   0.409219 0.123345 0.315933 -0.762761
Zn1   Zn    Zn3+2 0.346870 0.499980 0.499990 0.970961
Zn2   Zn    Zn3+2 0.653130 0.500020 0.500010 0.935818

loop_
_geom_bond_atom_site_label_1
_geom_bond_atom_site_label_2
_ccdc_geom_bond_type
C16   O7    A    
C10   H14   S    
C2    C4    S    
C23   C30   A    
C30   H9    S    
C6    C7    A    
C3    C9    A    
C1    O3    A    
C9    C10   S    
O4    Zn1   S    
C11   H15   S    
C13   C17   A    
O3    Zn2   S    
C32   H1    S    
C20   O9    A    
C17   C18   S    
C1    O1    A    
O9    Zn2   S    
C7    C8    A    
C8    C16   S    
N2    Zn1   S    
C19   H3    S    
C7    H12   S    
C20   O8    A    
N1    Zn2   S    
C12   C23   A    
C29   C30   A    
C22   C32   A    
C29   H2    S    
C1    C5    S    
O7    Zn2   S    
C4    O5    A    
C28   C29   A    
O1    Zn1   S    
C21   C28   A    
C20   C22   S    
C18   H19   S    
C19   H20   S    
C13   N1    A    
C25   H8    S    
C15   H17   S    
O5    Zn2   S    
C2    C24   A    
C5    C6    A    
C21   C32   A    
C26   H7    S    
C3    C11   S    
C22   C31   A    
C13   C19   S    
C12   C27   A    
C27   C31   A    
C24   H6    S    
C15   N2    A    
C2    C23   A    
C14   N1    A    
C24   C25   A    
C18   H18   S    
C18   C19   S    
C10   C11   S    
C4    O4    A    
C27   C28   A    
C21   H4    S    
C14   C15   A    
C14   H16   S    
H11   O10   S    
O8    Zn1   S    
C3    C5    A    
C25   C26   A    
C16   O6    A    
C6    H10   S    
C17   N2    A    
C10   O10   S    
C11   O2    S    
C31   H5    S    
H13   O2    S    
C12   C26   A    
C8    C9    A    
O6    Zn1   S    
