data_mof_unit_52419.cif
_audit_creation_date              2012-12-11T17:39:25-0500
_audit_creation_method            fapswitch 2.2
_symmetry_space_group_name_H-M    P1
_symmetry_Int_Tables_number       1
_space_group_crystal_system       triclinic
_cell_length_a                    25.352667
_cell_length_b                    7.266513
_cell_length_c                    22.060397
_cell_angle_alpha                 89.916944
_cell_angle_beta                  96.45011
_cell_angle_gamma                 90.064091
_cell_volume                      4038.35574194

loop_
_atom_site_label
_atom_site_type_symbol
_atom_type_description
_atom_site_fract_x
_atom_site_fract_y
_atom_site_fract_z
_atom_type_partial_charge
O1    O     O_R   0.801910 0.607900 0.699140 -0.547498
O2    O     O_R   0.198090 0.392100 0.300860 -0.544875
O3    O     O_R   0.698090 0.107900 0.800860 -0.547410
O4    O     O_R   0.301910 0.892100 0.199140 -0.544146
O5    O     O_R   0.692320 0.276320 0.686350 -0.535067
O6    O     O_R   0.307680 0.723680 0.313650 -0.536652
O7    O     O_R   0.807680 0.776320 0.813650 -0.535066
O8    O     O_R   0.192320 0.223680 0.186350 -0.536304
C1    C     C_R   0.674222 0.445826 0.670967 0.714117
C2    C     C_R   0.325035 0.553993 0.329822 0.700254
C3    C     C_R   0.825703 0.945828 0.829128 0.714283
C4    C     C_R   0.174904 0.054048 0.170243 0.700281
O9    O     O_R   0.801140 0.278070 0.692060 -0.502957
O10   O     O_R   0.198860 0.721930 0.307940 -0.507692
O11   O     O_R   0.698860 0.778070 0.807940 -0.503062
O12   O     O_R   0.301140 0.221930 0.192060 -0.507017
O13   O     O_R   0.807690 0.109570 0.806600 -0.535130
O14   O     O_R   0.192310 0.890430 0.193400 -0.530639
O15   O     O_R   0.692310 0.609570 0.693400 -0.535004
O16   O     O_R   0.307690 0.390430 0.306600 -0.530557
C5    C     C_R   0.818480 0.445906 0.678598 0.734861
C6    C     C_R   0.182978 0.553631 0.322851 0.709726
C7    C     C_R   0.681562 0.945617 0.821454 0.734477
C8    C     C_R   0.317016 0.054055 0.177090 0.711947
O17   O     O_3   0.752020 0.441970 0.787570 -0.382735
O18   O     O_3   0.247980 0.558030 0.212430 -0.372320
O19   O     O_3   0.747980 0.941970 0.712430 -0.382795
O20   O     O_3   0.252020 0.058030 0.287570 -0.373460
V1    V     V_3+5 0.749620 0.166420 0.743030 1.400920
V2    V     V_3+5 0.250380 0.833580 0.256970 1.411095
V3    V     V_3+5 0.750380 0.666420 0.756970 1.401061
V4    V     V_3+5 0.249620 0.333580 0.243030 1.412109
C9    C     C_R   0.406228 0.198568 0.054437 0.382367
C10   C     C_R   0.580602 0.801034 0.932191 0.360050
C11   C     C_R   0.095848 0.685519 0.448473 0.363489
C12   C     C_R   0.919365 0.302940 0.567874 0.358924
C13   C     C_R   0.366293 0.203158 0.094468 0.366664
C14   C     C_R   0.623162 0.792150 0.895099 0.357380
C15   C     C_R   0.134828 0.696903 0.407396 0.355662
C16   C     C_R   0.876786 0.293615 0.604898 0.357704
C17   C     C_R   0.356291 0.047980 0.131000 -0.232349
C18   C     C_R   0.638634 0.951208 0.863543 -0.192150
C19   C     C_R   0.143854 0.545243 0.369001 -0.224292
C20   C     C_R   0.861555 0.452143 0.636677 -0.193279
C21   C     C_R   0.384640 0.885441 0.123313 -0.218049
C22   C     C_R   0.611776 0.117179 0.871164 -0.239344
C23   C     C_R   0.114777 0.382428 0.375096 -0.213751
C24   C     C_R   0.888838 0.617928 0.629491 -0.241646
H1    H     H_    0.377986 0.763474 0.149685 0.186343
H2    H     H_    0.621305 0.240069 0.846870 0.192261
H3    H     H_    0.120641 0.263356 0.347170 0.182098
H4    H     H_    0.879379 0.740496 0.653851 0.191910
C25   C     C_R   0.422705 0.877462 0.082347 -0.192642
C26   C     C_R   0.571881 0.128551 0.909697 -0.217048
C27   C     C_R   0.076817 0.370946 0.416210 -0.198450
C28   C     C_R   0.929232 0.629225 0.591533 -0.207297
H5    H     H_    0.443766 0.749370 0.078263 0.169917
H6    H     H_    0.552625 0.259873 0.914621 0.179173
H7    H     H_    0.054874 0.243896 0.418911 0.164356
H8    H     H_    0.948964 0.760091 0.587084 0.180880
C29   C     C_R   0.434901 0.032463 0.048645 -0.055294
C30   C     C_R   0.555579 0.973142 0.940110 -0.031729
C31   C     C_R   0.066224 0.522227 0.452091 -0.048327
C32   C     C_R   0.945328 0.474074 0.561022 -0.036059
C33   C     C_1   0.477344 0.014814 0.010087 -0.029820
C34   C     C_1   0.512693 0.995669 0.977858 -0.026400
C35   C     C_1   0.024150 0.509363 0.491477 -0.017352
C36   C     C_1   0.988764 0.494786 0.523875 -0.012435
C37   C     C_3   0.967643 0.905805 0.024641 0.231645
C38   C     C_3   0.038675 0.104568 0.969686 0.303117
C39   C     C_3   0.531791 0.405999 0.476179 0.231583
C40   C     C_3   0.460627 0.603301 0.531086 0.303208
C41   C     C_3   0.990646 0.097749 0.045576 0.261892
C42   C     C_3   0.014429 0.920522 0.945971 0.270441
C43   C     C_3   0.508784 0.597919 0.455277 0.261973
C44   C     C_3   0.484908 0.419226 0.554777 0.270880
C45   C     C_1   0.131349 0.048824 0.121536 -0.227775
C46   C     C_1   0.870980 0.951482 0.875872 -0.207585
C47   C     C_1   0.368394 0.548599 0.378761 -0.228511
C48   C     C_1   0.628707 0.451418 0.624523 -0.207446
C49   C     C_3   0.024209 0.838978 0.011717 0.222350
C50   C     C_3   0.983150 0.172274 0.979402 0.285081
C51   C     C_3   0.475214 0.338421 0.488984 0.222405
C52   C     C_3   0.516171 0.671732 0.521468 0.285027
C53   C     C_3   0.047128 0.029220 0.035232 -0.175802
C54   C     C_3   0.958124 0.984952 0.957984 -0.168729
C55   C     C_3   0.452285 0.528719 0.465494 -0.175825
C56   C     C_3   0.541223 0.484439 0.542862 -0.168946
C57   C     C_1   0.094171 0.044276 0.081627 0.060047
C58   C     C_1   0.909597 0.960366 0.913925 0.062267
C59   C     C_1   0.405395 0.543892 0.418890 0.060160
C60   C     C_1   0.589892 0.460127 0.586735 0.062289
O21   O     O_3   0.419084 0.366770 0.029098 -0.573799
C61   C     C_3   0.421733 0.365761 0.965141 0.078556
H9    H     H_    0.459433 0.307072 0.953552 0.136580
H10   H     H_    0.423745 0.512158 0.950943 0.148552
C62   C     C_3   0.373185 0.280538 0.927165 -0.356928
H11   H     H_    0.366718 0.136352 0.941339 0.189409
H12   H     H_    0.337579 0.363038 0.933786 0.185881
C63   C     C_3   0.380321 0.280610 0.859376 -0.812524
H13   H     H_    0.385785 0.423342 0.843068 0.231349
H14   H     H_    0.344527 0.220777 0.832955 0.231821
H15   H     H_    0.415378 0.196508 0.851095 0.237366
O22   O     O_3   0.560020 0.633794 0.949989 -0.586725
C64   C     C_3   0.552237 0.618180 0.012602 0.050833
H16   H     H_    0.548971 0.468676 0.022194 0.148953
H17   H     H_    0.513130 0.673513 0.020558 0.151413
C65   C     C_3   0.597359 0.694161 0.058654 -0.369387
H18   H     H_    0.634366 0.615854 0.055023 0.178168
H19   H     H_    0.605010 0.841770 0.050114 0.191787
C66   C     C_3   0.583204 0.675566 0.123829 -0.804095
H20   H     H_    0.546984 0.756687 0.129587 0.234463
H21   H     H_    0.616411 0.728396 0.156272 0.224226
H22   H     H_    0.576182 0.528906 0.134781 0.229991
O23   O     O_3   0.082930 0.842238 0.479326 -0.565109
C67   C     C_3   0.103750 0.830291 0.541449 0.058608
H23   H     H_    0.147117 0.856553 0.546354 0.115052
H24   H     H_    0.096850 0.693317 0.561880 0.116405
C68   C     C_3   0.077144 0.976573 0.577302 -0.269582
H25   H     H_    0.084130 0.114958 0.558118 0.198252
H26   H     H_    0.033697 0.950814 0.572802 0.221119
C69   C     C_3   0.098467 0.973522 0.644806 -0.844702
H27   H     H_    0.090689 0.837650 0.665220 0.234059
H28   H     H_    0.078341 0.081520 0.669340 0.240012
H29   H     H_    0.141849 0.001060 0.650593 0.227325
O24   O     O_3   0.939039 0.136317 0.548720 -0.588815
C70   C     C_3   0.945350 0.123906 0.485605 0.045030
H30   H     H_    0.946979 0.974786 0.474880 0.154172
H31   H     H_    0.984706 0.175916 0.477005 0.151073
C71   C     C_3   0.900336 0.207561 0.441035 -0.370232
H32   H     H_    0.862638 0.133699 0.445169 0.178258
H33   H     H_    0.894560 0.355587 0.450584 0.192380
C72   C     C_3   0.912992 0.190521 0.375252 -0.807063
H34   H     H_    0.949948 0.267191 0.369029 0.234157
H35   H     H_    0.879919 0.249254 0.343904 0.225048
H36   H     H_    0.918029 0.043657 0.363231 0.229288
O25   O     O_3   0.337075 0.363329 0.096980 -0.539537
C73   C     C_3   0.290922 0.351901 0.054346 0.151082
H37   H     H_    0.256781 0.305844 0.078080 0.116017
H38   H     H_    0.294566 0.251455 0.016849 0.043432
C74   C     C_3   0.278961 0.540624 0.024796 -0.345884
H39   H     H_    0.316199 0.601830 0.011482 0.217622
H40   H     H_    0.250877 0.524534 0.982784 0.149167
C75   C     C_3   0.254321 0.671816 0.067394 -0.660351
H41   H     H_    0.215176 0.618998 0.077778 0.207440
H42   H     H_    0.248608 0.809333 0.045606 0.176903
H43   H     H_    0.281050 0.685967 0.110250 0.265821
O26   O     O_3   0.646711 0.624276 0.884556 -0.556137
C76   C     C_3   0.670438 0.545193 0.939653 0.082841
H44   H     H_    0.640569 0.458912 0.959453 0.181336
H45   H     H_    0.686486 0.650704 0.973586 0.068838
C77   C     C_3   0.716440 0.420823 0.926596 -0.255740
H46   H     H_    0.707707 0.357695 0.881051 0.238620
H47   H     H_    0.753231 0.504250 0.926596 0.173773
C78   C     C_3   0.725437 0.266164 0.973537 -0.905409
H48   H     H_    0.728805 0.323251 0.020433 0.238407
H49   H     H_    0.762185 0.189934 0.966468 0.240213
H50   H     H_    0.691708 0.167938 0.968568 0.241507
O27   O     O_3   0.163098 0.859369 0.404854 -0.541517
C79   C     C_3   0.210421 0.848592 0.445603 0.141695
H51   H     H_    0.243703 0.803435 0.420383 0.120119
H52   H     H_    0.208036 0.747687 0.483339 0.039745
C80   C     C_3   0.223027 0.037621 0.474648 -0.350052
H53   H     H_    0.186296 0.098795 0.489166 0.213305
H54   H     H_    0.252068 0.022228 0.515854 0.151361
C81   C     C_3   0.246322 0.169123 0.430924 -0.653487
H55   H     H_    0.284956 0.116507 0.418948 0.207798
H56   H     H_    0.252722 0.306528 0.452522 0.175098
H57   H     H_    0.218346 0.183414 0.389048 0.265771
O28   O     O_3   0.853156 0.125534 0.615352 -0.555936
C82   C     C_3   0.828653 0.048520 0.560347 0.083209
H58   H     H_    0.858242 0.964722 0.539289 0.182022
H59   H     H_    0.811708 0.155371 0.527358 0.067977
C83   C     C_3   0.783372 0.921164 0.573978 -0.254123
H60   H     H_    0.792822 0.857959 0.619455 0.239241
H61   H     H_    0.746268 0.002314 0.574466 0.173380
C84   C     C_3   0.774593 0.766525 0.527118 -0.905709
H62   H     H_    0.770728 0.823887 0.480196 0.238389
H63   H     H_    0.738185 0.688421 0.534520 0.239902
H64   H     H_    0.808677 0.669969 0.531836 0.241182
O29   O     O_3   0.983104 0.209592 0.096522 -0.580982
C85   C     C_3   0.929058 0.234498 0.106099 0.059339
H65   H     H_    0.928843 0.325512 0.146411 0.118324
H66   H     H_    0.911058 0.106553 0.119207 0.163243
C86   C     C_3   0.893351 0.322007 0.053017 -0.283400
H67   H     H_    0.910554 0.454456 0.040157 0.253856
H68   H     H_    0.889029 0.227814 0.013443 0.203623
C87   C     C_3   0.837444 0.356675 0.069390 -0.878727
H69   H     H_    0.814809 0.226840 0.068778 0.231914
H70   H     H_    0.816491 0.449331 0.034733 0.244450
H71   H     H_    0.837793 0.418800 0.115178 0.241598
O30   O     O_3   0.019356 0.852260 0.886945 -0.576671
C88   C     C_3   0.059449 0.719199 0.886251 0.131576
H72   H     H_    0.046874 0.589538 0.906733 0.207844
H73   H     H_    0.097333 0.762962 0.912024 0.113134
C89   C     C_3   0.068262 0.688732 0.819429 -0.336298
H74   H     H_    0.030332 0.645668 0.793069 0.215594
H75   H     H_    0.080753 0.820731 0.799805 0.201380
C90   C     C_3   0.110332 0.543803 0.811897 -0.848619
H76   H     H_    0.149102 0.587091 0.836138 0.230754
H77   H     H_    0.114983 0.527997 0.762722 0.234802
H78   H     H_    0.098138 0.408995 0.829503 0.250560
O31   O     O_3   0.516431 0.710374 0.404388 -0.580974
C91   C     C_3   0.570514 0.735877 0.394974 0.059375
H79   H     H_    0.570815 0.827315 0.354691 0.118244
H80   H     H_    0.588564 0.608231 0.381899 0.163237
C92   C     C_3   0.606108 0.823159 0.448160 -0.283470
H81   H     H_    0.588879 0.955369 0.460973 0.253780
H82   H     H_    0.610336 0.728600 0.487716 0.203762
C93   C     C_3   0.662078 0.858344 0.431993 -0.878695
H83   H     H_    0.684662 0.728589 0.432575 0.231917
H84   H     H_    0.682999 0.950533 0.466781 0.244309
H85   H     H_    0.661848 0.921162 0.386263 0.241672
O32   O     O_3   0.479898 0.349938 0.613733 -0.576522
C94   C     C_3   0.439699 0.216838 0.614232 0.130269
H86   H     H_    0.452275 0.087380 0.593787 0.208177
H87   H     H_    0.401908 0.260846 0.588323 0.113018
C95   C     C_3   0.430618 0.185540 0.680968 -0.333373
H88   H     H_    0.468449 0.142292 0.707490 0.215132
H89   H     H_    0.418083 0.317222 0.700577 0.201601
C96   C     C_3   0.388443 0.040332 0.688199 -0.849355
H90   H     H_    0.349751 0.083831 0.663838 0.229862
H91   H     H_    0.383620 0.023645 0.737308 0.237865
H92   H     H_    0.400647 0.905867 0.670538 0.250946
O33   O     O_3   0.926818 0.808584 0.050515 -0.553373
C97   C     C_3   0.939849 0.775584 0.114126 0.120461
H93   H     H_    0.968949 0.875277 0.136705 0.094475
H94   H     H_    0.958196 0.639857 0.121202 0.095904
C98   C     C_3   0.890735 0.768404 0.149979 -0.318634
H95   H     H_    0.888699 0.631066 0.171776 0.149036
H96   H     H_    0.896087 0.867808 0.188460 0.143863
C99   C     C_3   0.837336 0.807181 0.112605 -0.657493
H97   H     H_    0.831681 0.956199 0.106356 0.206589
H98   H     H_    0.804636 0.755227 0.137524 0.184681
H99   H     H_    0.834210 0.741421 0.067164 0.258399
O34   O     O_3   0.075049 0.221170 0.944391 -0.563886
C100  C     C_3   0.120682 0.121946 0.933086 0.099774
H100  H     H_    0.114516 0.070572 0.885389 0.143414
H101  H     H_    0.129865 0.004446 0.965054 0.114076
C101  C     C_3   0.169036 0.248356 0.940729 -0.309727
H102  H     H_    0.159190 0.383773 0.919420 0.213444
H103  H     H_    0.180919 0.272063 0.990128 0.179888
C102  C     C_3   0.215301 0.163526 0.911845 -0.877798
H104  H     H_    0.229024 0.035874 0.936518 0.230474
H105  H     H_    0.248617 0.262671 0.913919 0.226570
H106  H     H_    0.203295 0.130818 0.863066 0.241442
O35   O     O_3   0.572690 0.309471 0.450391 -0.553351
C103  C     C_3   0.559782 0.276966 0.386764 0.120418
H107  H     H_    0.530726 0.376674 0.364122 0.094570
H108  H     H_    0.541440 0.141171 0.379635 0.095847
C104  C     C_3   0.608986 0.270477 0.351060 -0.318658
H109  H     H_    0.611061 0.133358 0.329262 0.149008
H110  H     H_    0.603727 0.370250 0.312595 0.144033
C105  C     C_3   0.662319 0.309228 0.388588 -0.657757
H111  H     H_    0.667937 0.458203 0.394960 0.206673
H112  H     H_    0.695084 0.258004 0.363724 0.184728
H113  H     H_    0.665365 0.242783 0.433978 0.258381
O36   O     O_3   0.424255 0.719339 0.556429 -0.563984
C106  C     C_3   0.378461 0.620093 0.567486 0.099311
H114  H     H_    0.384357 0.568514 0.615213 0.143185
H115  H     H_    0.369365 0.502655 0.535561 0.112996
C107  C     C_3   0.330190 0.746685 0.559402 -0.307106
H116  H     H_    0.340234 0.882991 0.579879 0.213320
H117  H     H_    0.318260 0.768203 0.509894 0.178722
C108  C     C_3   0.283854 0.663900 0.588929 -0.881833
H118  H     H_    0.270445 0.533954 0.565548 0.230220
H119  H     H_    0.250220 0.762174 0.585723 0.222101
H120  H     H_    0.295824 0.635361 0.638031 0.241511
O37   O     O_3   0.970541 0.358103 0.964364 -0.568566
C109  C     C_3   0.936973 0.380090 0.909127 0.095584
H121  H     H_    0.927861 0.529421 0.905061 0.172058
H122  H     H_    0.898035 0.312500 0.911180 0.104422
C110  C     C_3   0.962665 0.322118 0.851932 -0.311668
H123  H     H_    0.003670 0.374127 0.854016 0.221318
H124  H     H_    0.965072 0.170694 0.848484 0.220039
C111  C     C_3   0.930960 0.394362 0.793888 -0.815666
H125  H     H_    0.889716 0.340951 0.790250 0.242276
H126  H     H_    0.949716 0.348107 0.753402 0.235917
H127  H     H_    0.930003 0.547216 0.794075 0.232582
O38   O     O_3   0.058238 0.683588 0.018271 -0.579237
C112  C     C_3   0.047414 0.561598 0.064476 0.171296
H128  H     H_    0.066931 0.429742 0.055178 0.186855
H129  H     H_    0.004950 0.529228 0.060977 0.181344
C113  C     C_3   0.071910 0.626946 0.127602 -0.388111
H130  H     H_    0.115115 0.649956 0.126346 0.217967
H131  H     H_    0.053722 0.758290 0.139626 0.187962
C114  C     C_3   0.064627 0.486811 0.177565 -0.759316
H132  H     H_    0.021938 0.466167 0.182224 0.230469
H133  H     H_    0.084528 0.537600 0.221802 0.217372
H134  H     H_    0.082561 0.353182 0.167267 0.248817
O39   O     O_3   0.528712 0.857548 0.536554 -0.568502
C115  C     C_3   0.562231 0.879341 0.591826 0.095141
H135  H     H_    0.571256 0.028756 0.595962 0.172112
H136  H     H_    0.601211 0.812370 0.589789 0.104644
C116  C     C_3   0.536532 0.820254 0.648965 -0.311230
H137  H     H_    0.495567 0.872348 0.646965 0.221241
H138  H     H_    0.534032 0.668751 0.652228 0.220207
C117  C     C_3   0.568326 0.891413 0.707071 -0.815708
H139  H     H_    0.609520 0.837826 0.710633 0.242057
H140  H     H_    0.549545 0.844487 0.747520 0.236482
H141  H     H_    0.569417 0.044268 0.707050 0.232420
O40   O     O_3   0.441192 0.182826 0.482295 -0.579270
C118  C     C_3   0.452139 0.061399 0.436126 0.171264
H142  H     H_    0.432614 0.929266 0.445354 0.186717
H143  H     H_    0.494614 0.029422 0.439751 0.181298
C119  C     C_3   0.427767 0.127157 0.372955 -0.388210
H144  H     H_    0.384546 0.149770 0.374090 0.217606
H145  H     H_    0.445973 0.258785 0.361003 0.188044
C120  C     C_3   0.435170 0.987598 0.323008 -0.758504
H146  H     H_    0.477881 0.967405 0.318459 0.230225
H147  H     H_    0.415342 0.038639 0.278736 0.217356
H148  H     H_    0.417233 0.853695 0.333243 0.249002

loop_
_geom_bond_atom_site_label_1
_geom_bond_atom_site_label_2
_ccdc_geom_bond_type
O17   V3    S    
C51   C55   S    
O31   C91   S    
O1    C5    A    
O24   C70   S    
C55   C59   S    
C78   H49   S    
C49   O38   S    
O13   V1    S    
O3    C7    A    
C66   H20   S    
C109  C110  S    
C39   O35   S    
C82   C83   S    
C40   C44   S    
C106  C107  S    
O15   V3    S    
C62   C63   S    
C107  C108  S    
C16   O28   S    
C62   H11   S    
C86   H67   S    
C73   H37   S    
O4    V2    S    
C104  H109  S    
C116  H138  S    
C77   H47   S    
O29   C85   S    
C65   H18   S    
C112  C113  S    
O7    C3    A    
C64   H17   S    
C45   C57   T    
C96   H90   S    
C7    C18   S    
C87   H71   S    
C32   C36   S    
O2    V4    S    
C113  H130  S    
C80   H54   S    
C53   C57   S    
C14   C18   A    
C96   H92   S    
C27   H7    S    
C74   H40   S    
O16   V4    S    
C11   C15   A    
O4    C8    A    
C43   C52   S    
C104  H110  S    
O19   V1    S    
O28   C82   S    
C102  H104  S    
C100  H101  S    
C6    C19   S    
C10   C30   A    
C110  C111  S    
C37   C54   S    
C67   H23   S    
C87   H70   S    
C18   C22   A    
C40   O36   S    
O3    V1    S    
C85   H65   S    
C101  H102  S    
C105  H112  S    
C110  H124  S    
C83   H60   S    
C25   C29   A    
C1    O15   A    
C80   H53   S    
C2    O16   A    
O20   V2    S    
C84   H63   S    
C27   C31   A    
C38   C42   S    
C92   C93   S    
C119  H145  S    
C91   C92   S    
C70   H30   S    
C37   C41   S    
O14   V2    S    
C116  C117  S    
C108  H118  S    
C44   C56   S    
O5    V1    S    
C88   H72   S    
C103  C104  S    
C24   H4    S    
C61   H10   S    
C98   C99   S    
C102  H106  S    
O39   C115  S    
O11   C7    A    
O25   C73   S    
C21   C25   A    
C90   H76   S    
O12   C8    A    
C118  H142  S    
C13   O25   S    
O37   C109  S    
C78   H50   S    
C81   H56   S    
C8    C17   S    
C76   H45   S    
C117  H140  S    
O10   V2    S    
C75   H43   S    
C38   C50   S    
C44   C51   S    
C99   H98   S    
O22   C64   S    
C62   H12   S    
C98   H95   S    
C103  H108  S    
C119  H144  S    
C118  C119  S    
C39   C51   S    
C68   H26   S    
O1    V3    S    
C120  H147  S    
C64   C65   S    
C31   C35   S    
C119  C120  S    
O7    V3    S    
C30   C34   S    
C92   H81   S    
O8    V4    S    
C79   C80   S    
C56   C60   S    
C12   C16   A    
C80   C81   S    
C20   C24   A    
O26   C76   S    
C118  H143  S    
O34   C100  S    
C54   C58   S    
C76   C77   S    
C116  H137  S    
C113  C114  S    
C25   H5    S    
O32   C94   S    
C89   H74   S    
C104  C105  S    
C15   C19   A    
C26   C30   A    
C61   C62   S    
C88   H73   S    
C112  H128  S    
C120  H146  S    
C85   C86   S    
C101  C102  S    
C9    C13   A    
C35   C36   T    
C9    O21   S    
C87   H69   S    
C1    C48   S    
C79   H52   S    
C48   C60   T    
C77   C78   S    
C71   H33   S    
C94   H86   S    
C70   H31   S    
O5    C1    A    
C105  H111  S    
C91   H79   S    
C3    C46   S    
C112  H129  S    
C90   H78   S    
C5    C20   S    
C41   O29   S    
C95   H89   S    
O27   C79   S    
C101  H103  S    
C111  H127  S    
C21   H1    S    
O8    C4    A    
C84   H64   S    
C41   C53   S    
C4    C45   S    
C22   C26   A    
C114  H133  S    
O33   C97   S    
C114  H134  S    
O9    C5    A    
C66   H21   S    
O21   C61   S    
C38   O34   S    
C92   H82   S    
C42   C54   S    
C11   O23   S    
C108  H119  S    
C82   H58   S    
C14   O26   S    
C65   H19   S    
C40   C52   S    
C83   C84   S    
C84   H62   S    
C72   H36   S    
C42   O30   S    
C75   H42   S    
O6    V2    S    
C91   H80   S    
C97   H93   S    
C97   H94   S    
C113  H131  S    
C50   O37   S    
C114  H132  S    
C81   H55   S    
C109  H122  S    
C74   C75   S    
C71   C72   S    
O12   V4    S    
C33   C34   T    
C42   C49   S    
C69   H28   S    
C106  H114  S    
C93   H85   S    
C10   O22   S    
C13   C17   A    
C41   C50   S    
C40   C55   S    
C103  H107  S    
C95   C96   S    
C23   C27   A    
C63   H14   S    
C26   H6    S    
C120  H148  S    
O9    V1    S    
C24   C28   A    
O40   C118  S    
C3    O13   A    
C43   O31   S    
C94   C95   S    
C85   H66   S    
C15   O27   S    
C10   C14   A    
C68   C69   S    
C115  C116  S    
C12   O24   S    
C52   C56   S    
C111  H126  S    
C75   H41   S    
C86   C87   S    
C73   C74   S    
C37   O33   S    
O6    C2    A    
C23   H3    S    
C68   H25   S    
C65   C66   S    
O11   V3    S    
C107  H116  S    
C73   H38   S    
C82   H59   S    
C97   C98   S    
C115  H135  S    
C64   H16   S    
C22   H2    S    
C93   H84   S    
C105  H113  S    
C67   C68   S    
C79   H51   S    
O2    C6    A    
C69   H29   S    
C94   H87   S    
C71   H32   S    
C70   C71   S    
O38   C112  S    
C98   H96   S    
C106  H115  S    
C50   C54   S    
C76   H44   S    
O30   C88   S    
C88   C89   S    
C39   C43   S    
C111  H125  S    
O10   C6    A    
C95   H88   S    
C72   H34   S    
C52   O39   S    
C46   C58   T    
C9    C29   A    
C100  H100  S    
C115  H136  S    
C63   H13   S    
C28   C32   A    
C67   H24   S    
O36   C106  S    
C66   H22   S    
C12   C32   A    
C99   H99   S    
C63   H15   S    
C61   H9    S    
C47   C59   T    
C108  H120  S    
C83   H61   S    
C89   H75   S    
C37   C49   S    
C86   H68   S    
C51   O40   S    
C39   C56   S    
C29   C33   S    
C16   C20   A    
C107  H117  S    
C28   H8    S    
C77   H46   S    
C81   H57   S    
C96   H91   S    
C93   H83   S    
C117  H139  S    
C100  C101  S    
C4    O14   A    
C78   H48   S    
C90   H77   S    
C72   H35   S    
C17   C21   A    
C109  H121  S    
C2    C47   S    
C11   C31   A    
C102  H105  S    
C44   O32   S    
C69   H27   S    
C74   H39   S    
C38   C53   S    
C19   C23   A    
C117  H141  S    
O18   V4    S    
C49   C53   S    
C43   C55   S    
O23   C67   S    
O35   C103  S    
C99   H97   S    
C89   C90   S    
C110  H123  S    
