data_mof_unit_40038.cif
_audit_creation_date              2012-12-10T17:32:56-0500
_audit_creation_method            fapswitch 2.2
_symmetry_space_group_name_H-M    P1
_symmetry_Int_Tables_number       1
_space_group_crystal_system       triclinic
_cell_length_a                    12.37301
_cell_length_b                    13.402343
_cell_length_c                    14.271172
_cell_angle_alpha                 94.039389
_cell_angle_beta                  107.578475
_cell_angle_gamma                 117.370249
_cell_volume                      1941.30090668

loop_
_atom_site_label
_atom_site_type_symbol
_atom_type_description
_atom_site_fract_x
_atom_site_fract_y
_atom_site_fract_z
_atom_type_partial_charge
C1    C     C_R   0.653672 0.714672 0.512934 0.762469
C2    C     C_R   0.848499 0.502891 0.921270 0.022406
C3    C     C_R   0.811762 0.537042 0.997436 0.065065
C4    C     C_R   0.945469 0.469853 0.947079 0.047370
C5    C     C_R   0.016860 0.485779 0.050731 0.029332
C6    C     C_R   0.971655 0.511384 0.123752 -0.246429
C7    C     C_R   0.872709 0.539880 0.098736 0.374661
C8    C     C_R   0.968764 0.415801 0.872600 -0.189209
C9    C     C_R   0.062399 0.382504 0.899655 -0.170365
C10   C     C_R   0.141223 0.407824 0.001074 0.029049
C11   C     C_R   0.124807 0.466191 0.077410 0.012153
C12   C     C_R   0.619366 0.518403 0.686940 0.780743
C13   C     C_R   0.235534 0.374095 0.026645 -0.287371
C14   C     C_R   0.316451 0.398594 0.127880 0.401906
C15   C     C_R   0.219429 0.505798 0.177208 0.301695
C16   C     C_R   0.264031 0.014648 0.574899 -0.196939
C17   C     C_R   0.269609 0.168947 0.495899 -0.040148
C18   C     C_R   0.664508 0.891492 0.465430 -0.208337
C19   C     C_R   0.729334 0.994346 0.439015 -0.158246
C20   C     C_R   0.860515 0.040636 0.451461 -0.172956
C21   C     C_R   0.932452 0.988028 0.497369 0.074758
C22   C     C_R   0.868189 0.889251 0.532878 0.085373
C23   C     C_R   0.347078 0.286242 0.487947 0.798725
C24   C     C_R   0.066135 0.030320 0.510689 0.070843
C25   C     C_R   0.133667 0.977065 0.563518 0.151440
C26   C     C_R   0.072905 0.890927 0.609184 -0.233165
C27   C     C_R   0.942445 0.848908 0.595469 -0.205398
C28   C     C_R   0.136587 0.125908 0.476193 -0.242210
C29   C     C_R   0.331873 0.110344 0.540949 -0.197259
C30   C     C_R   0.731488 0.835354 0.508286 -0.087138
C31   C     C_R   0.252580 0.670625 0.673605 -0.319811
C32   C     C_R   0.652761 0.345147 0.359898 -0.083247
C33   C     C_R   0.728715 0.309006 0.327091 0.418993
C34   C     C_R   0.380591 0.481771 0.312900 0.861657
C35   C     C_R   0.865297 0.369716 0.378744 -0.244464
C36   C     C_R   0.926514 0.460691 0.466174 -0.081824
C37   C     C_R   0.843449 0.490547 0.497574 0.264295
C38   C     C_R   0.066542 0.522943 0.524219 -0.014229
C39   C     C_R   0.117585 0.608101 0.614753 0.184715
C40   C     C_R   0.033837 0.631476 0.645848 -0.300819
C41   C     C_R   0.901650 0.578468 0.585709 -0.171949
C42   C     C_R   0.159163 0.504349 0.498056 0.043371
C43   C     C_R   0.337896 0.648852 0.643384 0.062584
C44   C     C_R   0.685720 0.527999 0.794359 -0.045002
C45   C     C_R   0.306912 0.463276 0.204314 -0.268764
C46   C     C_R   0.712451 0.565989 0.970484 -0.174373
C47   C     C_R   0.648324 0.559455 0.869529 -0.212422
C48   C     C_R   0.787707 0.503824 0.821254 -0.230017
Cu1   Cu    Cu3+1 0.416420 0.526630 0.522910 0.949779
Cu2   Cu    Cu3+1 0.583580 0.473370 0.477090 0.925090
H1    H     H_    0.242806 0.324486 0.968063 0.163304
H2    H     H_    0.435286 0.143567 0.556783 0.152267
H3    H     H_    0.128287 0.858567 0.657616 0.148879
H4    H     H_    0.315220 0.973268 0.614189 0.137005
H5    H     H_    0.093016 0.172640 0.438073 0.132827
H6    H     H_    0.560582 0.853537 0.449029 0.161872
H7    H     H_    0.902652 0.118528 0.426105 0.132549
H8    H     H_    0.676403 0.036492 0.405550 0.145267
H9    H     H_    0.900620 0.788097 0.637422 0.130842
H10   H     H_    0.441948 0.695849 0.689291 0.122986
H11   H     H_    0.071576 0.694433 0.716273 0.143711
H12   H     H_    0.291890 0.736035 0.742750 0.135399
H13   H     H_    0.128699 0.439850 0.431464 0.124939
H14   H     H_    0.547985 0.303428 0.318764 0.165263
H15   H     H_    0.847766 0.609456 0.610414 0.194931
H16   H     H_    0.683257 0.592918 0.027213 0.166348
H17   H     H_    0.570434 0.579908 0.850560 0.152785
H18   H     H_    0.820096 0.487931 0.762815 0.155226
H19   H     H_    0.005636 0.501523 0.199660 0.207124
H20   H     H_    0.911019 0.391529 0.792607 0.141016
N1    N     N_R   0.290690 0.566960 0.557640 -0.179182
N2    N     N_R   0.709100 0.433710 0.442970 -0.230014
O1    O     O_R   0.545970 0.684450 0.528810 -0.579989
O2    O     O_R   0.687130 0.639470 0.490120 -0.592204
O3    O     O_R   0.519670 0.535100 0.660030 -0.583881
O4    O     O_R   0.660830 0.490120 0.621340 -0.606817
O5    O     O_R   0.312870 0.360530 0.509880 -0.584102
O6    O     O_R   0.454030 0.315550 0.471190 -0.585942
O7    O     O_R   0.339170 0.509880 0.378660 -0.539077
O8    O     O_R   0.480330 0.464900 0.339970 -0.558111
O9    O     O_3   0.824578 0.558022 0.170411 -0.609089
C49   C     C_3   0.924114 0.656320 0.250025 0.036616
H21   H     H_    0.976852 0.731491 0.220300 0.142770
H22   H     H_    0.995477 0.636162 0.300706 0.173705
C50   C     C_3   0.861801 0.691300 0.313053 -0.758658
H23   H     H_    0.807703 0.618330 0.343695 0.263211
H24   H     H_    0.939296 0.766984 0.377266 0.218564
H25   H     H_    0.792151 0.715032 0.265503 0.231917
O10   O     O_3   0.229316 0.588673 0.248185 -0.576443
C51   C     C_3   0.316298 0.699812 0.241677 0.087617
H26   H     H_    0.290459 0.709326 0.162173 0.133981
H27   H     H_    0.418944 0.716877 0.271471 0.135684
C52   C     C_3   0.308234 0.790119 0.305483 -0.816114
H28   H     H_    0.323424 0.777892 0.383647 0.258665
H29   H     H_    0.384707 0.878544 0.309217 0.195539
H30   H     H_    0.210215 0.781600 0.271027 0.229548
H31   H     H_    0.920944 0.341877 0.350177 0.151349
O11   O     O_3   0.675605 0.220205 0.241356 -0.573905
C53   C     C_3   0.554414 0.125164 0.233311 0.046835
H32   H     H_    0.472841 0.141405 0.197626 0.160426
H33   H     H_    0.554011 0.107538 0.308364 0.118627
C54   C     C_3   0.528763 0.017188 0.166080 -0.801173
H34   H     H_    0.606642 0.996322 0.201204 0.247314
H35   H     H_    0.431981 0.942605 0.156424 0.195507
H36   H     H_    0.527980 0.031723 0.090267 0.254462
O12   O     O_3   0.396529 0.350919 0.152634 -0.588938
C55   C     C_3   0.502158 0.404391 0.119400 0.101684
H37   H     H_    0.594816 0.437064 0.185910 0.216837
H38   H     H_    0.509741 0.480575 0.088403 0.115235
C56   C     C_3   0.493697 0.315559 0.040370 -0.759870
H39   H     H_    0.411142 0.291244 0.967838 0.217051
H40   H     H_    0.586129 0.352296 0.026146 0.237021
H41   H     H_    0.478759 0.236509 0.067408 0.258972
H42   H     H_    0.074251 0.337867 0.840514 0.143452

loop_
_geom_bond_atom_site_label_1
_geom_bond_atom_site_label_2
_ccdc_geom_bond_type
C6    H19   S    
C52   H28   S    
C17   C29   A    
C35   C36   A    
C4    C8    A    
O9    C49   S    
C32   N2    A    
C50   H23   S    
C26   C27   A    
C17   C23   S    
C31   C43   A    
C9    H42   S    
C36   C37   A    
C38   C42   A    
C3    C7    A    
Cu2   O2    S    
C5    C6    A    
O12   C55   S    
O11   C53   S    
C54   H36   S    
C33   O11   S    
Cu2   N2    S    
C56   H39   S    
C42   N1    A    
C34   O8    A    
C13   H1    S    
C11   C15   A    
C19   C20   A    
C31   C39   A    
C8    C9    A    
C55   H37   S    
Cu1   O3    S    
C18   C30   A    
C9    C10   A    
C44   C47   A    
C18   H6    S    
C52   H29   S    
C13   C14   A    
C55   H38   S    
C31   H12   S    
C35   H31   S    
C37   N2    A    
Cu2   O6    S    
C47   H17   S    
C28   H5    S    
C14   C45   A    
C16   H4    S    
C50   H24   S    
C19   H8    S    
C24   C25   A    
C32   H14   S    
C39   C40   A    
C18   C19   A    
C41   H15   S    
C2    C48   A    
C16   C29   A    
C23   O5    A    
C40   H11   S    
Cu1   O7    S    
C2    C4    A    
Cu2   O4    S    
C34   O7    A    
C15   O10   S    
C51   H27   S    
C53   H32   S    
C34   C45   S    
C48   H18   S    
C54   H35   S    
C56   H41   S    
C43   H10   S    
C40   C41   A    
C7    O9    S    
C49   H21   S    
C52   H30   S    
C49   H22   S    
C22   C27   A    
C12   O4    A    
C5    C11   A    
C55   C56   S    
Cu1   O1    S    
C21   C24   A    
C1    O2    A    
C26   H3    S    
C51   C52   S    
C50   H25   S    
C16   C25   A    
C20   H7    S    
C46   C47   A    
C43   N1    A    
C22   C30   A    
C53   H33   S    
C17   C28   A    
C24   C28   A    
C4    C5    A    
C10   C13   A    
Cu2   O8    S    
C46   H16   S    
C6    C7    A    
C49   C50   S    
C3    C46   A    
C8    H20   S    
C1    O1    A    
C32   C33   A    
C36   C38   A    
C2    C3    A    
C25   C26   A    
C12   C44   S    
C27   H9    S    
C51   H26   S    
C38   C39   A    
C1    C30   S    
C33   C35   A    
Cu1   O5    S    
C23   O6    A    
C37   C41   A    
C54   H34   S    
C56   H40   S    
C10   C11   A    
C14   O12   S    
C53   C54   S    
C20   C21   A    
Cu1   Cu2   S    
Cu1   N1    S    
C12   O3    A    
C15   C45   A    
O10   C51   S    
C21   C22   A    
C42   H13   S    
C44   C48   A    
C29   H2    S    
