data_mof_unit_21776.cif
_audit_creation_date              2012-12-10T20:34:54-0500
_audit_creation_method            fapswitch 2.2
_symmetry_space_group_name_H-M    P1
_symmetry_Int_Tables_number       1
_space_group_crystal_system       triclinic
_cell_length_a                    10.62316
_cell_length_b                    10.682578
_cell_length_c                    9.915034
_cell_angle_alpha                 89.038433
_cell_angle_beta                  91.191405
_cell_angle_gamma                 90.453291
_cell_volume                      1124.75132517

loop_
_atom_site_label
_atom_site_type_symbol
_atom_type_description
_atom_site_fract_x
_atom_site_fract_y
_atom_site_fract_z
_atom_type_partial_charge
C1    C     C_R   0.504362 0.259874 0.500745 0.854833
C2    C     C_R   0.541157 0.932987 0.619572 0.143630
C3    C     C_3   0.466821 0.920257 0.745146 -0.438730
C4    C     C_R   0.258007 0.501943 0.498729 0.900252
C5    C     C_3   0.466072 0.061655 0.747204 -0.529780
C6    C     C_R   0.398162 0.455864 0.069727 0.184275
C7    C     C_R   0.595038 0.553483 0.074336 -0.280850
C8    C     C_R   0.599867 0.547040 0.930629 0.517187
C9    C     C_R   0.396348 0.459897 0.927116 0.052406
C10   C     C_3   0.341553 0.331916 0.919953 -0.555773
C11   C     C_3   0.350346 0.324137 0.072566 0.332516
C12   C     C_3   0.878862 0.503843 0.497463 0.125577
C13   C     C_R   0.504948 0.739768 0.499069 0.924386
C14   C     C_R   0.742258 0.501851 0.500091 0.837345
C15   C     C_3   0.073152 0.383483 0.566483 -0.492175
C16   C     C_3   0.929139 0.380920 0.562623 -0.408495
C17   C     C_3   0.074757 0.620224 0.575188 0.223635
C18   C     C_3   0.068870 0.511077 0.349871 -0.365721
C19   C     C_3   0.121684 0.505057 0.496841 0.091938
C20   C     C_3   0.816898 0.534958 0.918744 0.050332
C21   C     C_3   0.909219 0.636008 0.967743 -0.379365
C22   C     C_3   0.039305 0.580895 0.997338 -0.919277
C23   C     C_3   0.929901 0.621044 0.571256 -0.428307
C24   C     C_3   0.216469 0.200183 0.202660 0.086008
C25   C     C_3   0.198504 0.088869 0.107841 -0.414471
C26   C     C_3   0.177488 0.967142 0.187359 -0.855982
C27   C     C_3   0.925771 0.511863 0.349768 -0.401273
C28   C     C_R   0.540712 0.060805 0.621166 0.138771
C29   C     C_R   0.526223 0.128284 0.500513 -0.098210
C30   C     C_R   0.538885 0.066795 0.377192 -0.240298
C31   C     C_R   0.539225 0.937397 0.375869 -0.229525
C32   C     C_R   0.527570 0.870904 0.497938 -0.090973
Cl1   Cl    Cl    0.136881 0.765749 0.510420 -0.711394
H1    H     H_    0.106953 0.378355 0.673430 0.178734
H2    H     H_    0.671363 0.596307 0.131191 0.166661
H3    H     H_    0.109431 0.299651 0.514939 0.174767
H4    H     H_    0.243699 0.332310 0.877985 0.216580
H5    H     H_    0.406005 0.267800 0.870971 0.176230
H6    H     H_    0.423871 0.257871 0.111583 0.056300
H7    H     H_    0.895666 0.299637 0.502394 0.174414
H8    H     H_    0.893455 0.365539 0.665686 0.168323
H9    H     H_    0.107579 0.612841 0.682084 0.127334
H10   H     H_    0.894717 0.624566 0.674843 0.183791
H11   H     H_    0.104213 0.596027 0.295856 0.227827
H12   H     H_    0.891445 0.599207 0.298894 0.187011
H13   H     H_    0.099954 0.428242 0.294245 0.213490
H14   H     H_    0.889422 0.431227 0.290212 0.181069
H15   H     H_    0.861066 0.482251 0.838095 0.163906
H16   H     H_    0.802688 0.463939 0.001029 0.106814
H17   H     H_    0.917793 0.711569 0.890080 0.240525
H18   H     H_    0.873346 0.678429 0.060740 0.208311
H19   H     H_    0.032218 0.501082 0.069659 0.282290
H20   H     H_    0.102630 0.653604 0.040780 0.264537
H21   H     H_    0.081067 0.546327 0.903550 0.256954
H22   H     H_    0.131087 0.207080 0.264788 0.151414
H23   H     H_    0.894137 0.706868 0.518510 0.200221
H24   H     H_    0.296528 0.184245 0.275015 0.146507
H25   H     H_    0.115950 0.106216 0.039570 0.233924
H26   H     H_    0.283016 0.078049 0.045033 0.219181
H27   H     H_    0.260055 0.947108 0.254691 0.285436
H28   H     H_    0.164856 0.888459 0.116444 0.257262
H29   H     H_    0.091769 0.973677 0.249062 0.279686
H30   H     H_    0.538806 0.117198 0.281528 0.162467
H31   H     H_    0.538645 0.890696 0.279701 0.173217
H32   H     H_    0.371808 0.878393 0.727363 0.236643
H33   H     H_    0.522507 0.877358 0.829881 0.208283
H34   H     H_    0.370294 0.101120 0.730657 0.213284
H35   H     H_    0.522094 0.098990 0.833684 0.194689
N1    N     N_R   0.499150 0.499140 0.142800 -0.157162
N2    N     N_R   0.499150 0.499180 0.857150 -0.140814
O1    O     O_R   0.500020 0.316790 0.614690 -0.618272
O2    O     O_3   0.229845 0.314641 0.130008 -0.642003
O3    O     O_R   0.500000 0.316760 0.385350 -0.635861
O4    O     O_R   0.314800 0.500000 0.614670 -0.626066
O5    O     O_R   0.314790 0.499960 0.385330 -0.597778
O6    O     O_R   0.500000 0.683240 0.614650 -0.594139
O7    O     O_R   0.499980 0.683210 0.385310 -0.618277
O8    O     O_R   0.685210 0.500040 0.614670 -0.580194
O9    O     O_R   0.685200 0.500000 0.385330 -0.641880
O10   O     O_3   0.705254 0.590778 0.864278 -0.618250
Zn1   Zn    Zn3+2 0.500010 0.500020 0.653130 0.981691
Zn2   Zn    Zn3+2 0.499990 0.499980 0.346870 0.948430

loop_
_geom_bond_atom_site_label_1
_geom_bond_atom_site_label_2
_ccdc_geom_bond_type
C6    N1    A    
C15   H3    S    
C13   C32   S    
C5    H34   S    
C6    C9    A    
C7    C8    A    
C22   H21   S    
C24   H22   S    
C15   C19   S    
C12   C23   S    
C1    O1    A    
C10   H4    S    
C28   C29   A    
C26   H28   S    
C30   C31   A    
C15   C16   S    
C5    C28   S    
C23   H10   S    
C2    C32   A    
C18   C19   S    
N2    Zn1   S    
C17   H9    S    
C4    O5    A    
N1    Zn2   S    
C4    C19   S    
C12   C16   S    
C24   H24   S    
C9    C10   S    
C15   H1    S    
C4    O4    A    
C27   H12   S    
C30   H30   S    
C3    H32   S    
C17   Cl1   S    
C5    H35   S    
C18   H13   S    
C21   H17   S    
C22   H20   S    
C13   O7    A    
C20   O10   S    
C12   C27   S    
C23   H23   S    
C9    N2    A    
C6    C11   S    
C11   O2    S    
C25   C26   S    
C29   C30   A    
C18   H11   S    
C20   H16   S    
C31   C32   A    
C13   O6    A    
C1    C29   S    
C17   C23   S    
C14   O9    A    
C24   C25   S    
C11   H6    S    
C20   H15   S    
C16   H7    S    
C12   C14   S    
C3    H33   S    
C25   H25   S    
O4    Zn1   S    
O3    Zn2   S    
C21   H18   S    
C24   O2    S    
C22   H19   S    
C27   H14   S    
C7    H2    S    
C31   H31   S    
C18   C27   S    
C3    C5    S    
O6    Zn1   S    
C7    N1    A    
O9    Zn2   S    
O5    Zn2   S    
C8    N2    A    
C10   H5    S    
C1    O3    A    
C2    C3    S    
C26   H29   S    
O8    Zn1   S    
O7    Zn2   S    
C17   C19   S    
C14   O8    A    
C10   C11   S    
C20   C21   S    
C8    O10   S    
C2    C28   A    
C25   H26   S    
C21   C22   S    
C26   H27   S    
C16   H8    S    
O1    Zn1   S    
