data_mof_unit_49076.cif
_audit_creation_date              2012-12-11T15:26:37-0500
_audit_creation_method            fapswitch 2.2
_symmetry_space_group_name_H-M    P1
_symmetry_Int_Tables_number       1
_space_group_crystal_system       triclinic
_cell_length_a                    8.352118
_cell_length_b                    14.949137
_cell_length_c                    19.061166
_cell_angle_alpha                 96.397424
_cell_angle_beta                  94.369974
_cell_angle_gamma                 98.820376
_cell_volume                      2326.56143465

loop_
_atom_site_label
_atom_site_type_symbol
_atom_type_description
_atom_site_fract_x
_atom_site_fract_y
_atom_site_fract_z
_atom_type_partial_charge
Ba1   Ba    Ba6+2 0.161750 0.544670 0.467760 1.664639
Ba2   Ba    Ba6+2 0.648430 0.455320 0.532180 1.656693
C1    C     C_3   0.452389 0.777425 0.211120 -0.237590
C2    C     C_3   0.446726 0.743680 0.284587 0.280158
C3    C     C_3   0.593658 0.732405 0.647575 0.348165
C4    C     C_3   0.696682 0.821152 0.683254 -0.278436
C5    C     C_3   0.893264 0.217171 0.733730 0.311453
C6    C     C_3   0.808079 0.122292 0.744371 -0.163291
C7    C     C_3   0.370251 0.256906 0.722456 0.400223
C8    C     C_3   0.385542 0.228035 0.796339 -0.336992
C9    C     C_R   0.634950 0.831353 0.468374 0.025411
C10   C     C_R   0.883360 0.793802 0.523816 0.042619
C11   C     C_R   0.066999 0.237563 0.525065 -0.262831
C12   C     C_3   0.027714 0.795709 0.303462 0.383269
C13   C     C_R   0.156597 0.176514 0.554260 -0.006927
C14   C     C_R   0.090180 0.084685 0.550905 -0.153985
C15   C     C_R   0.933938 0.050102 0.516034 0.017159
C16   C     C_R   0.847163 0.112333 0.482496 -0.016840
C17   C     C_R   0.864110 0.954929 0.510921 0.003873
C18   C     C_R   0.703667 0.925343 0.476905 -0.006529
C19   C     C_R   0.619850 0.988968 0.447564 -0.088079
C20   C     C_R   0.693688 0.078377 0.446542 -0.051316
C21   C     C_R   0.950399 0.887145 0.535460 -0.143841
C22   C     C_R   0.726071 0.767264 0.491214 -0.303141
C23   C     C_3   0.117207 0.875452 0.269308 -0.315734
C24   C     C_R   0.915952 0.206925 0.486131 0.050443
C25   C     C_R   0.619103 0.532673 0.299736 -0.315874
C26   C     C_R   0.460156 0.491448 0.277081 0.049481
C27   C     C_R   0.406053 0.479495 0.204618 -0.056392
C28   C     C_R   0.517046 0.493375 0.153019 0.000705
C29   C     C_R   0.681436 0.530325 0.177593 -0.152959
C30   C     C_R   0.729728 0.553245 0.250518 0.030247
C31   C     C_R   0.532465 0.541943 0.031892 -0.143445
C32   C     C_R   0.477029 0.540247 0.960861 -0.071819
C33   C     C_R   0.352510 0.471634 0.927441 -0.010414
C34   C     C_3   0.725166 0.332036 0.314589 0.269169
C35   C     C_R   0.285848 0.404720 0.967817 -0.106301
C36   C     C_R   0.336774 0.406729 0.040214 0.461078
C37   C     C_R   0.461164 0.478393 0.074507 -0.029593
C38   C     C_R   0.133185 0.429187 0.823847 -0.143937
C39   C     C_R   0.082184 0.424701 0.751466 -0.007763
C40   C     C_R   0.345137 0.506024 0.731967 0.014807
C41   C     C_R   0.399558 0.507256 0.803228 -0.118487
C42   C     C_R   0.294595 0.468734 0.850601 0.015042
C43   C     C_R   0.189598 0.461748 0.705875 -0.261120
C44   C     C_3   0.698117 0.304468 0.234162 -0.199178
C45   C     C_3   0.143444 0.717334 0.690446 0.799852
C46   C     C_3   0.111032 0.674990 0.758316 -0.317617
C47   C     C_3   0.204785 0.259105 0.349173 0.328964
C48   C     C_3   0.309820 0.225382 0.405424 -0.323531
H1    H     H_    0.348474 0.683665 0.280890 0.078401
H2    H     H_    0.621041 0.349343 0.210989 0.117218
H3    H     H_    0.816044 0.317097 0.211267 0.117381
H4    H     H_    0.215337 0.674576 0.658852 -0.075017
H5    H     H_    0.047012 0.718928 0.793638 0.138955
H6    H     H_    0.226815 0.666125 0.787227 0.086723
H7    H     H_    0.031916 0.607571 0.745129 0.045925
H8    H     H_    0.117890 0.298676 0.374218 0.037463
H9    H     H_    0.328761 0.761230 0.182201 0.110665
H10   H     H_    0.241257 0.166827 0.426861 0.030404
H11   H     H_    0.353406 0.282070 0.448239 0.147310
H12   H     H_    0.413158 0.199962 0.380932 0.122877
H13   H     H_    0.563643 0.722194 0.300854 -0.014166
H14   H     H_    0.676758 0.690270 0.622295 0.022946
H15   H     H_    0.505580 0.747274 0.605540 0.049870
H16   H     H_    0.780836 0.806949 0.727090 0.154001
H17   H     H_    0.768803 0.855261 0.644749 0.047449
H18   H     H_    0.619713 0.869392 0.704954 0.187801
H19   H     H_    0.490778 0.852735 0.218096 0.131435
H20   H     H_    0.039422 0.895227 0.225734 0.106432
H21   H     H_    0.945435 0.212414 0.681601 -0.015722
H22   H     H_    0.992185 0.242071 0.776937 -0.010320
H23   H     H_    0.736008 0.090582 0.693820 0.122731
H24   H     H_    0.721236 0.127356 0.785492 0.136215
H25   H     H_    0.240871 0.262842 0.708797 -0.132538
H26   H     H_    0.448254 0.324393 0.723371 0.074824
H27   H     H_    0.307192 0.161211 0.797235 0.110418
H28   H     H_    0.347070 0.279508 0.835130 0.072588
H29   H     H_    0.116244 0.773756 0.341325 0.107396
H30   H     H_    0.513605 0.222214 0.812185 0.142175
H31   H     H_    0.673693 0.695639 0.483685 0.071188
H32   H     H_    0.498730 0.969321 0.420807 0.101052
H33   H     H_    0.070828 0.903968 0.562557 0.136737
H34   H     H_    0.121314 0.308546 0.527948 0.065360
H35   H     H_    0.165234 0.042065 0.575276 0.099806
H36   H     H_    0.626453 0.120296 0.417296 0.091312
H37   H     H_    0.523266 0.539038 0.820919 0.087136
H38   H     H_    0.531189 0.594625 0.932955 0.082325
H39   H     H_    0.629739 0.596163 0.053752 0.089892
H40   H     H_    0.278502 0.455534 0.189084 0.166409
H41   H     H_    0.193986 0.349069 0.942634 0.125572
H42   H     H_    0.045749 0.403483 0.858793 0.072615
H43   H     H_    0.771538 0.543579 0.140565 0.100763
H44   H     H_    0.148123 0.461725 0.650662 0.065517
H45   H     H_    0.659037 0.544848 0.355836 0.079058
H46   H     H_    0.159816 0.935501 0.309887 0.078770
H47   H     H_    0.223035 0.857984 0.245118 0.123629
H48   H     H_    0.606453 0.335107 0.335488 0.047504
H49   H     H_    0.803177 0.400209 0.325615 0.021912
O1    O     O_2   0.164990 0.721870 0.541490 -0.449372
O2    O     O_3   0.308067 0.311880 0.309242 -0.617945
O3    O     O_3   0.963042 0.722528 0.250675 -0.626176
O4    O     O_2   0.645300 0.278070 0.458480 -0.485153
O5    O     O_3   0.917280 0.391520 0.460790 -0.482283
O6    O     O_3   0.421200 0.332510 0.586090 -0.484854
O7    O     O_3   0.802145 0.267859 0.345783 -0.662980
O8    O     O_3   0.383620 0.545480 0.584560 -0.486314
O9    O     O_3   0.845920 0.377940 0.622610 -0.457544
O10   O     O_2   0.760365 0.446949 0.746958 -0.475544
O11   O     O_3   0.778436 0.276129 0.735499 -0.582254
O12   O     O_3   0.893010 0.608480 0.539150 -0.479379
O13   O     O_3   0.426680 0.454510 0.415380 -0.497007
O14   O     O_2   0.638220 0.542340 0.670930 -0.438191
O15   O     O_3   0.508792 0.689639 0.698924 -0.611461
O16   O     O_2   0.487537 0.170357 0.541890 -0.468628
O17   O     O_3   0.422363 0.191849 0.674170 -0.570115
O18   O     O_3   0.389100 0.667490 0.413860 -0.487847
O19   O     O_2   0.295519 0.824598 0.457069 -0.479898
O20   O     O_3   0.992271 0.719932 0.654712 -0.664533
O21   O     O_3   0.414243 0.814861 0.333963 -0.647872
O22   O     O_2   0.172070 0.457600 0.329050 -0.460820
O23   O     O_3   0.964370 0.622050 0.377340 -0.499088
O24   O     O_2   0.064608 0.564963 0.251704 -0.485248
P1    P     P_3+3 0.990670 0.707470 0.561860 1.025288
P2    P     P_3+3 0.340140 0.430100 0.338890 0.996248
P3    P     P_3+3 0.933643 0.615367 0.283859 0.931576
P4    P     P_3+3 0.819620 0.292520 0.438080 0.956088
P5    P     P_3+3 0.869838 0.381779 0.715184 0.978780
P6    P     P_3+3 0.433387 0.785475 0.420315 0.929342
P7    P     P_3+3 0.466246 0.571794 0.673313 0.956819
P8    P     P_3+3 0.371303 0.215911 0.588392 0.980796
C49   C     C_3   0.615996 0.204553 0.213384 -0.168235
C50   C     C_3   0.618613 0.174465 0.134200 -0.357210
H50   H     H_    0.564775 0.221109 0.101516 0.212517
H51   H     H_    0.745385 0.173728 0.120936 0.131442
H52   H     H_    0.548451 0.104614 0.120031 0.115826
H53   H     H_    0.679006 0.158068 0.242965 0.125711
H54   H     H_    0.488086 0.196469 0.227063 0.158099
S1    S     S_3+6 0.250069 0.831411 0.713710 -0.105270
O25   O     O_2   0.382110 0.833853 0.772382 -0.322489
O26   O     O_2   0.322154 0.866311 0.650152 -0.351936
O27   O     O_3   0.119918 0.898881 0.742271 -0.558103
H55   H     H_    0.188183 0.959818 0.753578 0.354086
C51   C     C_3   0.108183 0.173932 0.301748 -0.220361
C52   C     C_3   0.062000 0.190308 0.226032 -0.236060
H56   H     H_    0.042270 0.261419 0.224056 0.185141
H57   H     H_    0.160751 0.176701 0.192783 0.175857
H58   H     H_    0.950561 0.142313 0.203854 0.068807
H59   H     H_    0.179138 0.116528 0.298321 0.074801
H60   H     H_    0.996217 0.149653 0.326657 0.078378
C53   C     C_3   0.564480 0.733087 0.163704 -0.274872
C54   C     C_3   0.600820 0.786700 0.101395 -0.395177
H61   H     H_    0.486751 0.787116 0.067492 0.146068
H62   H     H_    0.658262 0.858093 0.120818 0.129582
H63   H     H_    0.686627 0.754982 0.068823 0.132493
H64   H     H_    0.680577 0.727809 0.193749 0.161945
H65   H     H_    0.500663 0.664113 0.143066 0.131750
C55   C     C_3   0.930015 0.061066 0.765238 -0.282861
C56   C     C_3   0.985636 0.077634 0.844667 -0.374380
H66   H     H_    0.044639 0.149332 0.861102 0.146383
H67   H     H_    0.880028 0.061932 0.875831 0.146286
H68   H     H_    0.074822 0.032492 0.857258 0.158683
H69   H     H_    0.870729 0.988929 0.752113 0.171466
H70   H     H_    0.036646 0.072135 0.733916 0.123158
C57   C     C_3   0.893670 0.829803 0.344675 -0.179645
C58   C     C_3   0.801783 0.895834 0.307820 -0.446776
H71   H     H_    0.685979 0.900582 0.330374 0.152446
H72   H     H_    0.775187 0.873166 0.250414 0.146731
H73   H     H_    0.874348 0.965580 0.315518 0.115651
H74   H     H_    0.807953 0.770616 0.356383 0.065992
H75   H     H_    0.953488 0.866757 0.395546 0.083289
S2    S     S_3+6 0.240209 0.314919 0.081013 -0.158722
O28   O     O_2   0.342235 0.298260 0.144767 -0.369487
O29   O     O_2   0.079584 0.336705 0.102422 -0.344640
O30   O     O_3   0.205806 0.219491 0.022553 -0.541532
H76   H     H_    0.139194 0.173488 0.046426 0.352857

loop_
_geom_bond_atom_site_label_1
_geom_bond_atom_site_label_2
_ccdc_geom_bond_type
C57   H75   S    
C46   H5    S    
C57   C58   S    
C3    O15   S    
Ba2   O8    S    
C25   H45   S    
C17   C18   A    
C16   C24   A    
C41   C42   A    
C6    C55   S    
C52   H56   S    
C8    H28   S    
C46   H7    S    
O6    P8    S    
O16   P8    D    
O20   P1    S    
S2    O28   D    
O5    P4    S    
C11   H34   S    
Ba2   O13   S    
C31   C37   A    
C21   H33   S    
C53   H65   S    
C26   C27   A    
C33   C35   A    
C35   C36   A    
Ba1   P2    S    
C32   C33   A    
Ba1   O13   S    
C5    H21   S    
C3    C4    S    
Ba2   O14   S    
C12   O3    S    
C49   H54   S    
C13   C14   A    
Ba2   O9    S    
C47   C51   S    
C44   H2    S    
C9    C22   A    
Ba1   Ba2   S    
C30   P3    S    
Ba1   O23   S    
C51   H60   S    
C15   C17   A    
C45   C46   S    
C14   C15   A    
C32   H38   S    
C50   H52   S    
O2    P2    S    
C53   C54   S    
C56   H67   S    
C34   C44   S    
C7    H26   S    
O18   P6    S    
C7    C8    S    
C38   C42   A    
S2    O30   S    
C55   H70   S    
Ba2   P4    S    
C45   O20   S    
O12   P1    S    
C19   C20   A    
C58   H72   S    
O15   P7    S    
C39   P5    S    
C58   H71   S    
O8    P7    S    
C43   H44   S    
C9    P6    S    
Ba1   O1    S    
C27   H40   S    
C52   H57   S    
C8    H27   S    
S2    O29   D    
C31   C32   A    
C9    C18   A    
Ba2   O12   S    
O14   P7    D    
C35   H41   S    
C2    H1    S    
C34   O7    S    
O21   P6    S    
C5    C6    S    
C3    H15   S    
C5    H22   S    
C8    H30   S    
C49   C50   S    
O24   P3    D    
C10   C21   A    
C49   H53   S    
C12   H29   S    
O7    P4    S    
O9    P5    S    
C47   H8    S    
C3    H14   S    
O1    P1    D    
C40   C43   A    
C55   C56   S    
O23   P3    S    
C17   C21   A    
C22   H31   S    
O22   P2    D    
C27   C28   A    
C31   H39   S    
C50   H50   S    
O10   P5    D    
C56   H66   S    
C10   P1    S    
C54   H63   S    
Ba2   O5    S    
C28   C29   A    
C6    H24   S    
C15   C16   A    
C56   H68   S    
C40   P7    S    
Ba1   O18   S    
C53   H64   S    
C38   H42   S    
C12   C57   S    
C33   C42   S    
Ba1   O5    S    
O13   P2    S    
C55   H69   S    
Ba1   O8    S    
C45   H4    S    
C23   H47   S    
C38   C39   A    
C54   H62   S    
C11   C13   A    
C14   H35   S    
C48   H12   S    
C11   C24   A    
C40   C41   A    
C1    C2    S    
C52   H58   S    
O4    P4    D    
C26   P2    S    
C50   H51   S    
C57   H74   S    
C46   H6    S    
C4    H17   S    
C51   H59   S    
C1    H19   S    
C25   C30   A    
C16   C20   A    
C7    O17   S    
C29   C30   A    
C58   H73   S    
C51   C52   S    
O3    P3    S    
S1    O25   D    
C36   S2    S    
C23   H20   S    
C10   C22   A    
Ba2   O6    S    
C1    C53   S    
C5    O11   S    
C41   H37   S    
Ba1   P1    S    
C48   H10   S    
O30   H76   S    
C29   H43   S    
Ba1   O12   S    
C44   C49   S    
C19   H32   S    
S1    O26   D    
C36   C37   A    
O17   P8    S    
Ba2   O4    S    
C2    H13   S    
C44   H3    S    
C4    H18   S    
C6    H23   S    
S1    O27   S    
C28   C37   S    
C34   H49   S    
C24   P4    S    
C20   H36   S    
C12   C23   S    
Ba1   O22   S    
C4    H16   S    
C13   P8    S    
C18   C19   A    
C23   H46   S    
C47   C48   S    
C45   S1    S    
C25   C26   A    
O19   P6    D    
C48   H11   S    
C39   C43   A    
O27   H55   S    
C2    O21   S    
C34   H48   S    
C54   H61   S    
C7    H25   S    
C47   O2    S    
O11   P5    S    
C1    H9    S    
