data_mof_unit_43639.cif
_audit_creation_date              2012-12-11T15:09:17-0500
_audit_creation_method            fapswitch 2.2
_symmetry_space_group_name_H-M    P1
_symmetry_Int_Tables_number       1
_space_group_crystal_system       triclinic
_cell_length_a                    25.9433
_cell_length_b                    27.603082
_cell_length_c                    8.528897
_cell_angle_alpha                 89.472651
_cell_angle_beta                  97.017553
_cell_angle_gamma                 90.066711
_cell_volume                      6061.66065316

loop_
_atom_site_label
_atom_site_type_symbol
_atom_type_description
_atom_site_fract_x
_atom_site_fract_y
_atom_site_fract_z
_atom_type_partial_charge
Ba1   Ba    Ba6+2 0.999910 0.465960 0.844870 1.631287
Ba2   Ba    Ba6+2 0.999910 0.534040 0.344870 1.657344
Ba3   Ba    Ba6+2 0.499910 0.965960 0.844870 1.638096
Ba4   Ba    Ba6+2 0.499910 0.034040 0.344870 1.651108
C1    C     C_3   0.047801 0.246429 0.629589 -0.392419
C2    C     C_R   0.851537 0.644209 0.584693 -0.125135
C3    C     C_3   0.452434 0.247761 0.033646 0.266517
C4    C     C_R   0.915014 0.383686 0.298319 -0.244084
C5    C     C_R   0.916963 0.616728 0.793941 -0.251050
C6    C     C_R   0.415150 0.883111 0.296935 -0.242177
C7    C     C_R   0.414697 0.115868 0.792996 -0.248337
C8    C     C_3   0.259983 0.480223 0.386741 -0.180074
C9    C     C_3   0.236034 0.623011 0.697057 -0.256435
C10   C     C_3   0.754283 0.887164 0.259883 -0.264309
C11   C     C_3   0.732849 0.065344 0.868081 -0.193110
C12   C     C_3   0.760541 0.535725 0.797995 -0.224437
C13   C     C_R   0.346012 0.858047 0.096986 -0.095495
C14   C     C_3   0.778491 0.448092 0.295951 -0.242325
C15   C     C_3   0.257954 0.032098 0.800948 -0.225929
C16   C     C_3   0.278997 0.947484 0.295968 -0.240586
C17   C     C_3   0.221460 0.607261 0.284224 -0.208322
C18   C     C_3   0.197630 0.331034 0.853479 -0.172476
C19   C     C_3   0.725001 0.106817 0.289815 -0.178064
C20   C     C_3   0.694040 0.816688 0.837007 -0.158953
C21   C     C_3   0.684394 0.364482 0.162352 -0.268800
C22   C     C_3   0.714407 0.629030 0.408703 -0.251962
C23   C     C_3   0.185290 0.864749 0.160207 -0.271847
C24   C     C_R   0.344892 0.140134 0.592261 -0.145690
C25   C     C_3   0.205890 0.126479 0.418187 -0.251391
C26   C     C_3   0.949355 0.218446 0.901589 -0.136714
C27   C     C_3   0.947184 0.781465 0.570385 -0.200392
C28   C     C_3   0.451469 0.717822 0.899536 -0.137683
C29   C     C_3   0.422359 0.237575 0.518482 -0.278315
C30   C     C_3   0.964106 0.255467 0.247049 -0.265572
C31   C     C_3   0.066914 0.803142 0.805356 -0.335483
C32   C     C_3   0.464369 0.754932 0.245837 -0.264529
C33   C     C_3   0.563961 0.277998 0.793423 -0.298972
C34   C     C_R   0.832963 0.320170 0.197781 0.015479
C35   C     C_R   0.837826 0.682475 0.679439 -0.016991
C36   C     C_R   0.332678 0.819827 0.195550 0.015249
C37   C     C_R   0.330086 0.177131 0.690423 -0.021363
C38   C     C_R   0.860553 0.315444 0.350508 -0.146695
C39   C     C_R   0.863877 0.686767 0.834082 -0.151916
C40   C     C_R   0.360493 0.814832 0.348319 -0.147301
C41   C     C_3   0.914574 0.778115 0.117276 -0.368053
C42   C     C_R   0.357036 0.181462 0.843367 -0.151666
C43   C     C_R   0.901089 0.347555 0.401508 0.000559
C44   C     C_R   0.903899 0.654286 0.891520 -0.042672
C45   C     C_R   0.401236 0.846900 0.399851 -0.001042
C46   C     C_R   0.399611 0.151178 0.894335 -0.016618
C47   C     C_R   0.801927 0.235296 0.146718 -0.128585
C48   C     C_R   0.804573 0.766835 0.622894 -0.125069
C49   C     C_R   0.300266 0.735054 0.143207 -0.130727
C50   C     C_R   0.298470 0.261964 0.635385 -0.134451
C51   C     C_R   0.261610 0.701492 0.088860 -0.091567
C52   C     C_3   0.550524 0.747686 0.628268 -0.390446
C53   C     C_R   0.260362 0.296127 0.581225 -0.075881
C54   C     C_R   0.763563 0.201233 0.095840 -0.083709
C55   C     C_R   0.765412 0.800285 0.570502 -0.088656
C56   C     C_R   0.211079 0.716797 0.031695 0.023437
C57   C     C_R   0.209193 0.281552 0.531650 0.034157
C58   C     C_R   0.712535 0.215933 0.043464 0.033120
C59   C     C_R   0.714810 0.784596 0.517075 0.029306
C60   C     C_R   0.201207 0.766680 0.022133 -0.111596
C61   C     C_R   0.198291 0.231645 0.524483 -0.093902
C62   C     C_R   0.701632 0.265665 0.034183 -0.100479
C63   C     C_3   0.408148 0.276201 0.091772 -0.399413
C64   C     C_R   0.705174 0.734550 0.509200 -0.092157
C65   C     C_R   0.739798 0.300416 0.084965 0.196607
C66   C     C_R   0.744259 0.700374 0.559185 0.201092
C67   C     C_R   0.239514 0.800910 0.077180 0.196212
C68   C     C_R   0.236686 0.196657 0.572814 0.204434
C69   C     C_3   0.032350 0.244800 0.072043 0.703138
C70   C     C_3   0.038355 0.754067 0.564547 0.701592
C71   C     C_3   0.533432 0.745164 0.072853 0.705103
C72   C     C_3   0.519183 0.235746 0.553651 0.689016
C73   C     C_R   0.790761 0.285156 0.142706 0.047411
C74   C     C_R   0.886619 0.390376 0.149082 0.095059
C75   C     C_R   0.794825 0.716666 0.619641 0.031437
C76   C     C_R   0.289988 0.785115 0.138959 0.050473
C77   C     C_R   0.287533 0.211967 0.632861 0.030170
C78   C     C_R   0.138981 0.686002 0.833248 -0.119996
C79   C     C_R   0.135739 0.312564 0.342341 -0.178507
C80   C     C_R   0.642949 0.183189 0.843614 -0.148708
C81   C     C_R   0.640281 0.815475 0.331446 -0.187375
C82   C     C_R   0.097860 0.654250 0.783963 -0.002483
C83   C     C_R   0.093606 0.343102 0.294564 0.003843
C84   C     C_R   0.601154 0.152127 0.797881 0.018902
C85   C     C_R   0.889434 0.610287 0.643508 0.113537
C86   C     C_R   0.596888 0.844841 0.288211 -0.000659
C87   C     C_R   0.116418 0.609231 0.033951 0.066885
C88   C     C_R   0.115370 0.389992 0.538288 0.013002
C89   C     C_R   0.616528 0.109715 0.046351 0.085258
C90   C     C_R   0.617836 0.890262 0.536235 -0.018444
C91   C     C_R   0.156056 0.643037 0.085862 0.136089
C92   C     C_R   0.156873 0.357216 0.587942 0.116977
C93   C     C_R   0.657102 0.142529 0.099438 0.120445
C94   C     C_R   0.658715 0.856463 0.585256 0.123537
C95   C     C_R   0.168216 0.681260 0.983428 -0.008535
C96   C     C_R   0.386681 0.890083 0.148016 0.097297
C97   C     C_R   0.166416 0.317648 0.488916 0.009897
C98   C     C_R   0.670332 0.180065 0.996172 -0.038542
C99   C     C_R   0.670678 0.819655 0.478615 0.016307
C100  C     C_R   0.087132 0.616116 0.885262 -0.266038
C101  C     C_R   0.083316 0.381277 0.394939 -0.290959
C102  C     C_R   0.587908 0.116189 0.899357 -0.282638
C103  C     C_R   0.586561 0.882512 0.390578 -0.270557
C104  C     C_3   0.089925 0.228884 0.072791 -0.393676
C105  C     C_3   0.085117 0.766134 0.474685 -0.269494
C106  C     C_3   0.591360 0.730230 0.076249 -0.395037
C107  C     C_R   0.386412 0.109034 0.644648 0.114621
C108  C     C_3   0.519785 0.284873 0.464862 -0.275557
C109  C     C_3   0.145868 0.467613 0.220616 0.288651
C110  C     C_3   0.167227 0.509291 0.806050 0.340237
C111  C     C_3   0.656060 0.968897 0.163201 0.262313
C112  C     C_3   0.689323 0.989095 0.578229 0.279347
C113  C     C_3   0.192575 0.433270 0.222314 -0.054077
C114  C     C_3   0.211671 0.545563 0.805763 -0.080727
C115  C     C_3   0.705012 0.950008 0.100043 -0.052261
C116  C     C_3   0.741381 0.011617 0.643317 -0.020327
C117  C     C_3   0.838997 0.532066 0.999099 0.497196
C118  C     C_R   0.846090 0.358211 0.098415 -0.096779
C119  C     C_3   0.842738 0.467378 0.527730 0.476793
C120  C     C_3   0.338085 0.031348 0.996064 0.497679
C121  C     C_3   0.343427 0.966791 0.527119 0.476231
C122  C     C_3   0.809381 0.556780 0.122095 -0.343945
C123  C     C_3   0.806104 0.441762 0.630435 -0.301063
C124  C     C_3   0.309931 0.056788 0.120942 -0.343100
C125  C     C_3   0.307047 0.940978 0.630238 -0.298775
C126  C     C_3   0.020671 0.295303 0.617625 0.360153
C127  C     C_3   0.958383 0.748818 0.060363 0.302922
C128  C     C_3   0.522114 0.795982 0.613996 0.361132
H1    H     H_    0.042369 0.319992 0.704202 0.107968
H2    H     H_    0.244985 0.527690 0.758873 0.079825
H3    H     H_    0.259059 0.917547 0.351361 0.110884
H4    H     H_    0.022086 0.309878 0.496513 -0.032133
H5    H     H_    0.948975 0.738353 0.935117 -0.054906
H6    H     H_    0.523043 0.810227 0.492135 -0.036015
H7    H     H_    0.442027 0.235161 0.911356 -0.000665
H8    H     H_    0.022522 0.218108 0.569254 0.120097
H9    H     H_    0.899618 0.804939 0.025039 0.058214
H10   H     H_    0.525874 0.718661 0.569538 0.119385
H11   H     H_    0.387385 0.297429 0.992308 0.072462
H12   H     H_    0.084293 0.248915 0.575022 0.068216
H13   H     H_    0.700844 0.955670 0.970416 0.093927
H14   H     H_    0.929340 0.797854 0.226199 0.126769
H15   H     H_    0.586997 0.750584 0.573218 0.067661
H16   H     H_    0.423808 0.301879 0.184948 0.096537
H17   H     H_    0.186046 0.674766 0.299009 0.201400
H18   H     H_    0.257267 0.626285 0.335438 0.067404
H19   H     H_    0.230234 0.586693 0.179663 0.093265
H20   H     H_    0.210105 0.581597 0.373424 0.135314
H21   H     H_    0.197791 0.402126 0.761752 0.184319
H22   H     H_    0.237789 0.316624 0.869301 0.090705
H23   H     H_    0.169772 0.300563 0.829828 0.114716
H24   H     H_    0.766371 0.013281 0.546504 0.030657
H25   H     H_    0.191763 0.348394 0.966573 0.118275
H26   H     H_    0.687593 0.172822 0.313162 0.207450
H27   H     H_    0.759722 0.126255 0.347132 0.073676
H28   H     H_    0.735054 0.089438 0.181000 0.083291
H29   H     H_    0.715012 0.077990 0.370981 0.135723
H30   H     H_    0.688390 0.892156 0.795911 0.209828
H31   H     H_    0.735090 0.804710 0.853815 0.100345
H32   H     H_    0.668570 0.786712 0.787668 0.093374
H33   H     H_    0.684029 0.824174 0.955913 0.126986
H34   H     H_    0.163074 0.779022 0.974640 0.075771
H35   H     H_    0.880080 0.544453 0.016308 0.017441
H36   H     H_    0.159139 0.219738 0.485402 0.070338
H37   H     H_    0.662971 0.277460 0.989290 0.062817
H38   H     H_    0.666143 0.721983 0.471280 0.070771
H39   H     H_    0.722523 0.363789 0.962593 0.182232
H40   H     H_    0.680571 0.404527 0.160104 0.098220
H41   H     H_    0.691865 0.352028 0.287343 0.118500
H42   H     H_    0.647057 0.349207 0.106607 0.100913
H43   H     H_    0.754250 0.628403 0.636685 0.193928
H44   H     H_    0.704787 0.590215 0.424474 0.102718
H45   H     H_    0.746109 0.631589 0.332537 0.103328
H46   H     H_    0.882875 0.456312 0.573858 0.064597
H47   H     H_    0.679265 0.647441 0.348944 0.110673
H48   H     H_    0.221255 0.864346 0.956537 0.181969
H49   H     H_    0.181105 0.904764 0.158047 0.099605
H50   H     H_    0.193990 0.852343 0.284972 0.117080
H51   H     H_    0.147719 0.849117 0.107823 0.098943
H52   H     H_    0.246057 0.124309 0.645187 0.196293
H53   H     H_    0.195568 0.087732 0.431624 0.102543
H54   H     H_    0.237754 0.128974 0.342564 0.103036
H55   H     H_    0.171123 0.145645 0.359183 0.110722
H56   H     H_    0.149040 0.714256 0.754258 0.064425
H57   H     H_    0.379084 0.043959 0.007781 0.012257
H58   H     H_    0.147607 0.286471 0.261532 0.066417
H59   H     H_    0.654807 0.209221 0.759375 0.082741
H60   H     H_    0.653021 0.790980 0.246854 0.063384
H61   H     H_    0.005848 0.172806 0.022173 0.158551
H62   H     H_    0.947486 0.207748 0.776017 0.127707
H63   H     H_    0.938808 0.257227 0.907994 0.174536
H64   H     H_    0.919966 0.196556 0.955006 0.047695
H65   H     H_    0.008231 0.824719 0.512559 0.158254
H66   H     H_    0.918456 0.807264 0.509524 0.080699
H67   H     H_    0.950161 0.788274 0.699118 0.076223
H68   H     H_    0.383680 0.955983 0.572834 0.064749
H69   H     H_    0.932567 0.744165 0.545164 0.155878
H70   H     H_    0.508298 0.672886 0.021285 0.156788
H71   H     H_    0.450110 0.707192 0.774028 0.125307
H72   H     H_    0.440256 0.756442 0.905625 0.175653
H73   H     H_    0.422263 0.695485 0.952175 0.043075
H74   H     H_    0.469114 0.188701 0.413956 0.267626
H75   H     H_    0.388781 0.214526 0.477048 0.143204
H76   H     H_    0.419420 0.269622 0.439223 0.103665
H77   H     H_    0.420126 0.249084 0.641393 0.109922
H78   H     H_    0.031531 0.215987 0.299702 0.160575
H79   H     H_    0.767070 0.549729 0.100733 0.078108
H80   H     H_    0.958726 0.260187 0.371770 0.117065
H81   H     H_    0.939502 0.224080 0.207286 0.101968
H82   H     H_    0.950722 0.288726 0.180219 0.120223
H83   H     H_    0.026940 0.737849 0.798867 0.165126
H84   H     H_    0.034592 0.829567 0.784053 0.114160
H85   H     H_    0.101922 0.817560 0.758319 0.116695
H86   H     H_    0.075983 0.798626 0.935187 0.111851
H87   H     H_    0.531891 0.715604 0.299013 0.160169
H88   H     H_    0.458716 0.759300 0.370604 0.117864
H89   H     H_    0.439960 0.723568 0.204486 0.100570
H90   H     H_    0.764976 0.452006 0.595110 0.068120
H91   H     H_    0.451018 0.788305 0.179608 0.122018
H92   H     H_    0.520508 0.213344 0.793942 0.149092
H93   H     H_    0.548105 0.315217 0.775405 0.109348
H94   H     H_    0.600553 0.275415 0.739228 0.114973
H95   H     H_    0.572210 0.271300 0.922585 0.108076
H96   H     H_    0.093475 0.196800 0.997024 0.084789
H97   H     H_    0.074612 0.759184 0.346619 0.111291
H98   H     H_    0.595680 0.695907 0.011954 0.082021
H99   H     H_    0.507368 0.279978 0.337054 0.114245
H100  H     H_    0.132736 0.468972 0.339001 0.021144
H101  H     H_    0.267397 0.050954 0.101701 0.077121
H102  H     H_    0.179582 0.481243 0.896364 -0.009716
H103  H     H_    0.652291 0.952077 0.279401 -0.046591
H104  H     H_    0.672235 0.010413 0.474773 0.071984
H105  H     H_    0.992833 0.772830 0.063158 0.038129
H106  H     H_    0.265789 0.950629 0.594544 0.067412
H107  H     H_    0.815837 0.596517 0.120650 0.085311
H108  H     H_    0.810126 0.401833 0.622329 0.080200
H109  H     H_    0.317629 0.096329 0.119844 0.087644
H110  H     H_    0.311630 0.901081 0.623254 0.079758
H111  H     H_    0.820946 0.542391 0.240648 0.146917
H112  H     H_    0.814845 0.451974 0.753904 0.156227
H113  H     H_    0.321605 0.041887 0.238765 0.148050
H114  H     H_    0.315452 0.951592 0.753352 0.156621
H115  H     H_    0.107779 0.217734 0.192502 0.058502
H116  H     H_    0.543362 0.821326 0.699234 0.109357
H117  H     H_    0.096298 0.804847 0.487753 0.031539
H118  H     H_    0.609925 0.723265 0.198448 0.060833
H119  H     H_    0.494147 0.311866 0.512267 0.054960
H120  H     H_    0.271548 0.663502 0.089741 0.069454
H121  H     H_    0.270536 0.334190 0.583080 0.097006
H122  H     H_    0.774171 0.163443 0.095305 0.068520
H123  H     H_    0.774153 0.838594 0.578116 0.080249
H124  H     H_    0.840822 0.222686 0.187330 0.065382
H125  H     H_    0.842680 0.780265 0.667954 0.068095
H126  H     H_    0.338716 0.721871 0.186683 0.064267
H127  H     H_    0.485221 0.273240 0.027090 0.056502
H128  H     H_    0.336832 0.274827 0.679628 0.068319
H129  H     H_    0.824114 0.363538 0.983223 0.074689
H130  H     H_    0.830919 0.639308 0.467901 0.091408
H131  H     H_    0.324033 0.863661 0.981947 0.075248
H132  H     H_    0.323640 0.134873 0.476496 0.086910
H133  H     H_    0.850295 0.287132 0.429819 0.069138
H134  H     H_    0.852138 0.714708 0.910073 0.062097
H135  H     H_    0.350198 0.786447 0.427287 0.066460
H136  H     H_    0.344644 0.208278 0.922114 0.066690
H137  H     H_    0.056876 0.590460 0.845611 0.068448
H138  H     H_    0.213261 0.439749 0.117586 0.084888
H139  H     H_    0.052298 0.406396 0.356059 0.070274
H140  H     H_    0.557482 0.090789 0.858375 0.071949
H141  H     H_    0.555257 0.907469 0.353096 0.069400
H142  H     H_    0.057572 0.235680 0.754423 0.140165
H143  H     H_    0.882287 0.754169 0.143541 0.114938
H144  H     H_    0.560572 0.737596 0.753800 0.138961
H145  H     H_    0.380180 0.251613 0.140898 0.129534
H146  H     H_    0.945442 0.409053 0.339115 0.060643
H147  H     H_    0.945782 0.590272 0.839950 0.063787
H148  H     H_    0.445663 0.908384 0.337852 0.058835
H149  H     H_    0.224404 0.556705 0.928965 0.048109
H150  H     H_    0.446144 0.091438 0.834308 0.062915
H151  H     H_    0.113823 0.257312 0.024399 0.101117
H152  H     H_    0.119628 0.744016 0.516694 0.063908
H153  H     H_    0.613976 0.757456 0.017228 0.098789
H154  H     H_    0.559698 0.300130 0.476331 0.083431
H155  H     H_    0.114199 0.452842 0.134828 0.049017
H156  H     H_    0.131814 0.527930 0.834824 0.007601
H157  H     H_    0.621308 0.959112 0.082169 0.095631
H158  H     H_    0.697742 0.951672 0.542216 -0.098384
H159  H     H_    0.214511 0.425283 0.466957 0.196169
H160  H     H_    0.739481 0.971633 0.149022 0.094658
H161  H     H_    0.296188 0.471833 0.465587 0.083999
H162  H     H_    0.238517 0.508224 0.444357 0.118319
H163  H     H_    0.270670 0.494026 0.272207 0.104749
H164  H     H_    0.173515 0.580547 0.604881 0.238197
H165  H     H_    0.219535 0.655179 0.629680 0.117785
H166  H     H_    0.266831 0.607008 0.633876 0.092062
H167  H     H_    0.253383 0.634935 0.815751 0.117295
H168  H     H_    0.679914 0.879469 0.139606 0.206624
H169  H     H_    0.759440 0.847268 0.266428 0.117472
H170  H     H_    0.744126 0.900459 0.374609 0.102014
H171  H     H_    0.761429 0.987764 0.737550 0.074050
H172  H     H_    0.791584 0.903561 0.234970 0.113437
H173  H     H_    0.709089 0.082062 0.631700 0.215870
H174  H     H_    0.735362 0.104282 0.898423 0.088573
H175  H     H_    0.765964 0.046331 0.937359 0.091265
H176  H     H_    0.695646 0.050716 0.899927 0.124077
H177  H     H_    0.821789 0.582921 0.820796 0.137211
H178  H     H_    0.735532 0.563665 0.843457 0.079275
H179  H     H_    0.751964 0.536151 0.667415 0.128337
H180  H     H_    0.750145 0.499657 0.843459 0.120735
H181  H     H_    0.855487 0.469754 0.299638 0.175779
H182  H     H_    0.178188 0.395496 0.212787 0.036653
H183  H     H_    0.776523 0.439383 0.169069 0.151160
H184  H     H_    0.757774 0.482708 0.309311 0.108344
H185  H     H_    0.758585 0.418038 0.350925 0.113194
H186  H     H_    0.317515 0.081048 0.816984 0.143712
H187  H     H_    0.232440 0.059358 0.847595 0.079804
H188  H     H_    0.248328 0.032056 0.670628 0.124549
H189  H     H_    0.249217 0.995821 0.848379 0.122200
H190  H     H_    0.355893 0.969282 0.299358 0.176533
H191  H     H_    0.276878 0.938551 0.169269 0.152548
H192  H     H_    0.258394 0.982191 0.308893 0.109438
N1    N     N_2   0.228687 0.436930 0.365660 -0.423515
N2    N     N_2   0.192130 0.366752 0.726781 -0.438821
N3    N     N_2   0.681511 0.139812 0.258226 -0.389244
N4    N     N_2   0.688682 0.859904 0.737147 -0.430172
N5    N     N_2   0.726911 0.350528 0.076868 -0.436524
N6    N     N_2   0.730465 0.650360 0.561386 -0.435243
N7    N     N_2   0.226931 0.851068 0.070756 -0.436621
N8    N     N_2   0.222164 0.146814 0.572212 -0.434128
N9    N     N_2   0.000956 0.207999 0.981033 -0.432588
N10   N     N_2   0.997087 0.788828 0.513435 -0.409162
N11   N     N_2   0.503075 0.708049 0.980133 -0.431287
N12   N     N_2   0.195389 0.587947 0.711109 -0.428745
N13   N     N_2   0.469976 0.210963 0.509738 -0.430204
N14   N     N_2   0.018192 0.245663 0.232476 -0.450839
N15   N     N_2   0.052087 0.756647 0.735848 -0.453754
N16   N     N_2   0.518589 0.745433 0.232467 -0.450319
N17   N     N_2   0.526140 0.243186 0.724527 -0.439483
N18   N     N_2   0.713371 0.899030 0.135037 -0.440650
N19   N     N_2   0.735242 0.060404 0.700801 -0.418462
N20   N     N_2   0.815123 0.547008 0.842808 -0.418608
N21   N     N_2   0.832199 0.451062 0.367019 -0.459752
N22   N     N_2   0.312318 0.045064 0.840877 -0.418591
N23   N     N_2   0.332761 0.950394 0.366638 -0.460049
N24   N     N_2   0.179644 0.641552 0.245629 -0.399745
O1    O     O_2   0.898940 0.431940 0.867860 -0.471639
O2    O     O_3   0.018899 0.707451 0.521286 -0.567518
O3    O     O_3   0.523631 0.791208 0.998428 -0.570509
O4    O     O_3   0.560346 0.208405 0.503198 -0.601091
O5    O     O_3   0.058810 0.523750 0.066650 -0.501116
O6    O     O_3   0.058810 0.476250 0.566650 -0.463117
O7    O     O_3   0.558810 0.023750 0.066650 -0.499471
O8    O     O_3   0.558810 0.976250 0.566650 -0.460732
O9    O     O_3   0.941140 0.476130 0.123050 -0.499021
O10   O     O_3   0.941140 0.523870 0.623050 -0.496350
O11   O     O_3   0.441140 0.976130 0.123050 -0.497522
O12   O     O_2   0.898940 0.568060 0.367860 -0.476465
O13   O     O_3   0.441140 0.023870 0.623050 -0.493935
O14   O     O_3   0.982430 0.389880 0.635700 -0.485332
O15   O     O_3   0.982430 0.610120 0.135700 -0.445769
O16   O     O_3   0.482430 0.889880 0.635700 -0.485288
O17   O     O_3   0.482430 0.110120 0.135700 -0.453049
O18   O     O_2   0.899022 0.349326 0.732131 -0.482309
O19   O     O_2   0.897999 0.649787 0.219824 -0.483519
O20   O     O_2   0.399773 0.848091 0.731548 -0.483099
O21   O     O_2   0.398573 0.151039 0.222981 -0.505621
O22   O     O_3   0.834979 0.481361 0.015190 -0.662615
O23   O     O_2   0.398940 0.931940 0.867860 -0.473911
O24   O     O_3   0.835579 0.518093 0.530039 -0.646528
O25   O     O_3   0.334689 0.980799 0.016226 -0.663286
O26   O     O_3   0.335930 0.017451 0.528918 -0.644356
O27   O     O_3   0.968978 0.289766 0.649466 -0.605236
O28   O     O_3   0.971964 0.709336 0.162561 -0.542746
O29   O     O_3   0.470582 0.789628 0.646923 -0.605257
O30   O     O_3   0.469898 0.210268 0.140087 -0.592139
O31   O     O_2   0.100770 0.431440 0.821660 -0.473981
O32   O     O_2   0.100770 0.568560 0.321660 -0.427551
O33   O     O_2   0.600770 0.931440 0.821660 -0.456462
O34   O     O_2   0.398940 0.068060 0.367860 -0.477172
O35   O     O_2   0.600770 0.068560 0.321660 -0.414121
O36   O     O_3   0.017130 0.389790 0.053700 -0.446139
O37   O     O_3   0.017130 0.610210 0.553700 -0.437887
O38   O     O_3   0.517130 0.889790 0.053700 -0.445426
O39   O     O_3   0.517130 0.110210 0.553700 -0.471307
O40   O     O_2   0.098818 0.351233 0.972709 -0.506950
O41   O     O_2   0.095746 0.652844 0.448812 -0.469996
O42   O     O_2   0.597629 0.851787 0.963486 -0.508587
O43   O     O_2   0.614089 0.131513 0.508857 -0.449039
O44   O     O_3   0.158111 0.487952 0.657173 -0.658457
O45   O     O_3   0.160100 0.514124 0.174544 -0.665423
O46   O     O_3   0.655107 0.990221 0.692984 -0.620333
O47   O     O_3   0.663013 0.018715 0.182506 -0.679096
O48   O     O_3   0.023278 0.290889 0.997174 -0.572875
P1    P     P_3+3 0.893960 0.447890 0.040050 0.964084
P2    P     P_3+3 0.060538 0.658517 0.581381 0.986077
P3    P     P_3+3 0.559748 0.840970 0.084871 0.936341
P4    P     P_3+3 0.569852 0.151208 0.594591 0.982072
P5    P     P_3+3 0.937109 0.657021 0.098426 0.984626
P6    P     P_3+3 0.936047 0.344314 0.604011 0.945281
P7    P     P_3+3 0.435771 0.155996 0.094972 0.934589
P8    P     P_3+3 0.436617 0.843766 0.602578 0.943442
P9    P     P_3+3 0.893960 0.552110 0.540050 0.974721
P10   P     P_3+3 0.393960 0.947890 0.040050 0.964365
P11   P     P_3+3 0.393960 0.052110 0.540050 0.973774
P12   P     P_3+3 0.105800 0.447360 0.649510 0.978326
P13   P     P_3+3 0.105800 0.552640 0.149510 0.996303
P14   P     P_3+3 0.605800 0.947360 0.649510 0.997249
P15   P     P_3+3 0.605800 0.052640 0.149510 0.998274
P16   P     P_3+3 0.058872 0.340358 0.087941 0.939584

loop_
_geom_bond_atom_site_label_1
_geom_bond_atom_site_label_2
_ccdc_geom_bond_type
Ba1   O31   S    
C29   H76   S    
O3    P3    S    
C50   H128  S    
C3    H127  S    
C15   H188  S    
C63   H11   S    
C44   P5    S    
C119  N21   S    
C110  H102  S    
C105  H117  S    
C115  N18   S    
C86   C103  A    
O15   P5    S    
C91   C95   A    
C25   H54   S    
C82   P2    S    
C17   H20   S    
C100  H137  S    
Ba3   P10   S    
C106  H98   S    
C22   N6    S    
H17   N24   S    
H164  N12   S    
C31   H84   S    
C36   C40   A    
C81   C99   A    
Ba4   O34   S    
O28   P5    S    
Ba3   O23   S    
C92   N2    S    
C20   H32   S    
C119  H46   S    
C47   H124  S    
C27   H67   S    
C120  H57   S    
C15   H189  S    
C24   C107  A    
Ba1   P1    S    
C55   H123  S    
C39   H134  S    
Ba4   O7    S    
O35   P15   D    
C12   N20   S    
C83   P16   S    
C69   C104  S    
C104  H96   S    
Ba1   O10   S    
C18   N2    S    
O20   P8    D    
Ba3   O38   S    
C70   O2    S    
C26   H63   S    
C94   N4    S    
C9    H165  S    
C10   H170  S    
C25   N8    S    
C30   H80   S    
C1    C126  S    
C121  C125  S    
H61   N9    S    
C65   N5    S    
Ba2   O15   S    
O1    P1    D    
C109  H100  S    
C8    H161  S    
C69   N9    S    
C49   H126  S    
C66   C75   A    
C26   N9    S    
C80   C84   A    
C30   H81   S    
C88   P12   S    
C81   C86   A    
C53   C57   A    
H190  N23   S    
C18   H25   S    
C55   C59   A    
O14   P6    S    
Ba1   O14   S    
C56   C60   A    
Ba2   P9    S    
C85   P9    S    
C20   H33   S    
C4    C43   A    
C109  H155  S    
C110  H156  S    
C28   H71   S    
H186  N22   S    
O23   P10   D    
C112  H158  S    
C54   H122  S    
H70   N11   S    
C103  H141  S    
C13   C96   A    
C23   H51   S    
C9    N12   S    
C19   N3    S    
C5    C44   A    
Ba1   O5    S    
C120  O25   S    
C7    H150  S    
C6    C45   A    
C50   C77   A    
O39   P4    S    
H43   N6    S    
C80   C98   A    
H173  N19   S    
C79   H58   S    
C65   C73   A    
C90   P14   S    
C82   C100  A    
O6    P12   S    
C11   H176  S    
C61   H36   S    
C108  H99   S    
C124  H113  S    
C14   H184  S    
C119  O24   S    
Ba2   P13   S    
C122  H79   S    
O19   P5    D    
C120  N22   S    
C125  H110  S    
C69   N14   S    
C88   C92   A    
C27   N10   S    
O42   P3    D    
O9    P1    S    
C19   H27   S    
C72   N13   S    
C52   H144  S    
Ba3   O33   S    
C14   H185  S    
O25   P10   S    
C22   H44   S    
C48   C75   A    
C93   N3    S    
C116  H171  S    
C114  H2    S    
C33   H94   S    
C8    H163  S    
C12   H179  S    
C28   N11   S    
C64   H38   S    
C32   N16   S    
H168  N18   S    
C31   H85   S    
O44   P12   S    
C40   H135  S    
C18   H23   S    
O13   P11   S    
C90   C103  A    
C58   C62   A    
O45   P13   S    
C49   C76   A    
Ba2   O6    S    
C70   N10   S    
O37   P2    S    
O30   P7    S    
C29   N13   S    
C112  C116  S    
C78   H56   S    
H78   N14   S    
C46   P7    S    
C57   C97   S    
C23   H49   S    
C21   H41   S    
C89   C102  A    
O4    P4    S    
O34   P11   D    
C16   H191  S    
C119  C123  S    
C83   C101  A    
C89   P15   S    
C68   N8    S    
C71   O3    S    
C2    H130  S    
Ba3   O13   S    
O38   P3    S    
C109  C113  S    
C33   N17   S    
C111  C115  S    
Ba3   Ba4   S    
Ba4   O11   S    
C89   C93   A    
C63   H16   S    
C108  H119  S    
C22   H45   S    
C124  H101  S    
O31   P12   D    
C29   H75   S    
C71   C106  S    
C79   C97   A    
H83   N15   S    
Ba3   O8    S    
C68   C77   A    
C15   H187  S    
C66   N6    S    
C114  N12   S    
C61   C68   A    
Ba2   O9    S    
C52   H15   S    
C23   N7    S    
C121  N23   S    
C25   H53   S    
H177  N20   S    
C112  O46   S    
C17   H19   S    
C57   C61   A    
C53   H121  S    
O26   P11   S    
C3    C63   S    
H30   N4    S    
C123  H108  S    
C113  N1    S    
C42   H136  S    
C74   P1    S    
C51   H120  S    
C96   P10   S    
C51   C56   A    
C32   H89   S    
C58   C98   S    
C50   C53   A    
C54   C58   A    
C79   C83   A    
C78   C95   A    
C62   H37   S    
Ba2   O12   S    
C111  H103  S    
C106  H118  S    
H74   N13   S    
C128  O29   S    
Ba4   O8    S    
C11   H174  S    
C90   C94   A    
C3    O30   S    
C128  H6    S    
C94   C99   A    
C24   C37   A    
C116  H24   S    
O32   P13   D    
C80   H59   S    
C11   N19   S    
C60   C67   A    
Ba4   P11   S    
C60   H34   S    
C123  H90   S    
C59   C64   A    
C14   N21   S    
C105  H97   S    
C26   H64   S    
C121  H68   S    
C69   O48   S    
C63   H145  S    
C93   C98   A    
C120  C124  S    
C52   H10   S    
O46   P14   S    
C33   H93   S    
C92   C97   A    
C72   O4    S    
C67   N7    S    
C124  H109  S    
C122  H107  S    
O24   P9    S    
C125  H114  S    
C8    H162  S    
C117  H35   S    
C12   H178  S    
C7    C107  A    
O22   P1    S    
C114  H149  S    
C59   C99   S    
C30   H82   S    
C5    C85   A    
C128  H116  S    
C1    H12   S    
C22   H47   S    
C71   N11   S    
C72   N17   S    
C84   P4    S    
H92   N17   S    
C25   H55   S    
C81   H60   S    
C13   C36   A    
C35   C75   S    
C115  H160  S    
C28   H72   S    
C8    N1    S    
C47   C73   A    
C127  H5    S    
C70   N15   S    
C37   C77   S    
C112  H104  S    
C47   C54   A    
C38   H133  S    
C6    C96   A    
C32   H91   S    
C121  O26   S    
C34   C118  A    
C104  H151  S    
C41   H9    S    
C21   H40   S    
Ba1   O1    S    
C41   C127  S    
C117  O22   S    
C71   N16   S    
C20   H31   S    
C117  N20   S    
Ba2   O37   S    
Ba1   P12   S    
C4    H146  S    
C118  H129  S    
C34   C73   S    
C11   H175  S    
C115  H13   S    
C86   P3    S    
C43   P6    S    
C7    C46   A    
C41   H143  S    
C116  N19   S    
C78   C82   A    
C26   H62   S    
C106  H153  S    
C48   H125  S    
C9    H166  S    
C10   H169  S    
O36   P16   S    
O10   P9    S    
C88   C101  A    
C33   H95   S    
H159  N1    S    
C122  H111  S    
C2    C35   A    
C5    H147  S    
C1    H142  S    
C6    H148  S    
C28   H73   S    
Ba3   P14   S    
C40   C45   A    
C101  H139  S    
C126  O27   S    
C12   H180  S    
C102  H140  S    
C125  H106  S    
C9    H167  S    
C87   C100  A    
C56   C95   S    
C32   H88   S    
C70   C105  S    
C113  H138  S    
C27   H66   S    
O27   P6    S    
C104  H115  S    
O41   P2    D    
H181  N21   S    
C111  O47   S    
C34   C38   A    
C109  O45   S    
C62   C65   A    
C127  O28   S    
C20   N4    S    
Ba1   Ba2   S    
H21   N2    S    
O11   P10   S    
C29   H77   S    
C21   H42   S    
C16   H192  S    
H87   N16   S    
O7    P15   S    
Ba1   O6    S    
C111  H157  S    
C37   C42   A    
C36   C76   S    
H52   N8    S    
Ba2   O32   S    
Ba3   O16   S    
Ba4   O39   S    
C39   C44   A    
Ba4   O35   S    
H48   N7    S    
H26   N3    S    
C15   N22   S    
C4    C74   A    
O17   P7    S    
C108  H154  S    
C67   C76   A    
C16   N23   S    
C21   N5    S    
C113  H182  S    
C49   C51   A    
C41   H14   S    
O2    P2    S    
Ba3   O7    S    
C14   H183  S    
Ba4   P15   S    
C105  H152  S    
C110  O44   S    
C35   C39   A    
C30   N14   S    
C24   H132  S    
C87   C91   A    
C107  P11   S    
C17   N24   S    
O12   P9    D    
C13   H131  S    
Ba4   O17   S    
H39   N5    S    
C48   C55   A    
C84   C102  A    
Ba1   O36   S    
O47   P15   S    
C72   C108  S    
C19   H28   S    
H65   N10   S    
O29   P8    S    
C52   C128  S    
C17   H18   S    
C110  C114  S    
O48   P16   S    
O5    P13   S    
C31   H86   S    
O33   P14   D    
C1    H8    S    
C18   H22   S    
O8    P14   S    
O43   P4    D    
C126  H4    S    
C123  H112  S    
Ba2   O5    S    
C87   P13   S    
C2    C85   A    
C42   C46   A    
O21   P7    D    
C23   H50   S    
C117  C122  S    
C3    H7    S    
C127  H105  S    
O40   P16   D    
C91   N24   S    
C38   C43   A    
C16   H3    S    
C74   C118  A    
C27   H69   S    
C126  H1    S    
C10   N18   S    
C64   C66   A    
C31   N15   S    
C10   H172  S    
O16   P8    S    
O18   P6    D    
C45   P8    S    
C19   H29   S    
