data_mof_unit_67077.cif
_audit_creation_date              2013-03-05T15:58:17-0500
_audit_creation_method            fapswitch 2.2
_symmetry_space_group_name_H-M    P1
_symmetry_Int_Tables_number       1
_space_group_crystal_system       triclinic
_cell_length_a                    8.240509
_cell_length_b                    12.846344
_cell_length_c                    14.3802
_cell_angle_alpha                 93.780894
_cell_angle_beta                  90.97897
_cell_angle_gamma                 97.958
_cell_volume                      1503.82320527

loop_
_atom_site_label
_atom_site_type_symbol
_atom_site_description
_atom_site_fract_x
_atom_site_fract_y
_atom_site_fract_z
_atom_type_partial_charge
P1    P     P_3+3 0.054400 0.427280 0.286870 0.476476
O1    O     O_2   0.887370 0.460630 0.272300 -0.317720
O2    O     O_3   0.129410 0.451380 0.388510 -0.387831
O3    O     O_3   0.670210 0.653170 0.329170 -0.423730
O4    O     O_2   0.816743 0.603123 0.171815 -0.371100
O5    O     O_3   0.004846 0.289672 0.274932 -0.583719
O6    O     O_3   0.694927 0.779298 0.175996 -0.565581
H1    H     H_    0.772072 0.830986 0.312193 0.179900
C1    C     C_3   0.729730 0.958889 0.235103 -1.110504
H2    H     H_    0.676075 0.008318 0.288631 0.223336
H3    H     H_    0.864412 0.981431 0.238029 0.287885
P2    P     P_3+3 0.668300 0.742890 0.573060 0.475662
P3    P     P_3+3 0.132892 0.840903 0.373910 0.474057
O7    O     O_2   0.845380 0.761330 0.544970 -0.296270
O8    O     O_3   0.088930 0.704860 0.376040 -0.368569
O9    O     O_2   0.999718 0.887857 0.431258 -0.365125
O10   O     O_3   0.681880 0.761513 0.694487 -0.621710
O11   O     O_3   0.097778 0.871010 0.258679 -0.551999
C2    C     C_3   0.235594 0.854051 0.206110 0.245748
H4    H     H_    0.267582 0.773528 0.214316 0.024134
H5    H     H_    0.341128 0.913051 0.230921 0.018867
C3    C     C_3   0.203147 0.866858 0.101121 0.744228
C4    C     C_3   0.254939 0.763187 0.673260 0.985529
H6    H     H_    0.357663 0.722239 0.648373 -0.003135
C5    C     C_3   0.325527 0.871288 0.716377 -0.910428
H7    H     H_    0.415943 0.862689 0.772270 0.247175
H8    H     H_    0.385787 0.920586 0.662931 0.219090
H9    H     H_    0.225802 0.911701 0.746650 0.268899
Ba1   Ba    Ba6+2 0.855630 0.555280 0.454520 1.572370
C6    C     C_3   0.120154 0.241819 0.222409 0.361244
H10   H     H_    0.157514 0.177498 0.262214 0.151561
H11   H     H_    0.232747 0.294659 0.207051 0.099494
C7    C     C_3   0.040748 0.192882 0.131222 -1.072425
H12   H     H_    0.937561 0.131006 0.144244 0.268006
H13   H     H_    0.133237 0.159066 0.088233 0.295382
H14   H     H_    0.992826 0.253462 0.092346 0.245777
C8    C     C_3   0.709553 0.671806 0.738258 0.406815
H15   H     H_    0.819087 0.641117 0.710067 0.045478
H16   H     H_    0.601300 0.610137 0.728848 0.120863
C9    C     C_3   0.738207 0.706160 0.841945 0.568063
H17   H     H_    0.858393 0.758553 0.849708 0.029240
P4    P     P_3+3 0.135310 0.572810 0.713130 0.495740
O12   O     O_2   0.302330 0.539400 0.727760 -0.389597
O13   O     O_3   0.060300 0.548700 0.611500 -0.350169
O14   O     O_3   0.519500 0.346920 0.670840 -0.326177
O15   O     O_3   0.167794 0.708898 0.742054 -0.617795
P5    P     P_3+3 0.065356 0.157277 0.618325 0.480463
O16   O     O_3   0.614310 0.373510 0.452640 -0.363216
O17   O     O_3   0.100780 0.295230 0.623970 -0.397444
O18   O     O_2   0.208098 0.117026 0.565077 -0.337037
O19   O     O_3   0.097080 0.120595 0.731512 -0.512151
Ba2   Ba    Ba6+2 0.334200 0.444810 0.545490 1.594710
P6    P     P_3+3 0.663751 0.649031 0.207226 0.432024
C10   C     C_3   0.684733 0.845414 0.256678 0.561002
H18   H     H_    0.558183 0.833493 0.282802 -0.008321
H19   H     H_    0.682675 0.971185 0.164882 0.273026
O20   O     O_3   0.575400 0.626570 0.547370 -0.411617
C11   C     C_3   0.592439 0.214421 0.239387 0.997045
H20   H     H_    0.686437 0.175429 0.274501 -0.017234
C12   C     C_3   0.519693 0.145098 0.154755 -1.097661
H21   H     H_    0.448249 0.072548 0.177941 0.261439
H22   H     H_    0.436671 0.187303 0.114172 0.283306
H23   H     H_    0.619031 0.124418 0.108990 0.219712
P7    P     P_3+3 0.521187 0.242640 0.414467 0.423401
O21   O     O_2   0.344320 0.238700 0.455090 -0.341148
O22   O     O_3   0.463609 0.232745 0.296664 -0.625490
C13   C     C_3   0.051954 0.199396 0.794357 0.547412
H24   H     H_    0.147309 0.269790 0.798477 0.152203
H25   H     H_    0.932991 0.223375 0.773525 -0.078654
C14   C     C_3   0.033886 0.157781 0.890279 -1.012603
H26   H     H_    0.154198 0.141480 0.917231 0.299173
H27   H     H_    0.987762 0.218081 0.937317 0.219406
H28   H     H_    0.944643 0.084396 0.887627 0.264596
P8    P     P_3+3 0.537578 0.348723 0.791460 0.478371
C15   C     C_3   0.558690 0.153689 0.815149 0.389203
H29   H     H_    0.685785 0.188034 0.836433 0.037620
O23   O     O_2   0.421795 0.424153 0.830807 -0.371960
O24   O     O_3   0.447709 0.226757 0.826834 -0.508286
H30   H     H_    0.554270 0.122027 0.741134 0.093172
H31   H     H_    0.522730 0.095383 0.951863 0.267361
C16   C     C_3   0.510133 0.064529 0.877910 -0.963415
H32   H     H_    0.591179 0.002899 0.866635 0.232995
H33   H     H_    0.380567 0.029824 0.863624 0.288495
C17   C     C_R   0.991258 0.452898 0.061584 -0.150462
C18   C     C_R   0.195120 0.487441 0.193970 0.156491
C19   C     C_R   0.362171 0.518093 0.219609 -0.188946
C20   C     C_R   0.468596 0.574527 0.159375 0.257525
C21   C     C_R   0.418839 0.584284 0.067239 -0.366698
C22   C     C_R   0.260119 0.542587 0.034542 0.081128
C23   C     C_R   0.147049 0.494459 0.097639 -0.030016
C24   C     C_R   0.058299 0.502339 0.902625 -0.137868
C25   C     C_R   0.945576 0.452617 0.965906 0.042929
C26   C     C_R   0.013159 0.498256 0.804666 0.191813
C27   C     C_R   0.866208 0.436446 0.773773 0.135035
C28   C     C_R   0.748210 0.397659 0.837163 0.102026
C29   C     C_R   0.786529 0.405325 0.933438 0.122601
C30   C     C_R   0.212613 0.551106 0.940006 -0.056107
H34   H     H_    0.504095 0.625454 0.021264 0.205960
H35   H     H_    0.906306 0.417025 0.108555 0.176388
H36   H     H_    0.299523 0.593336 0.895669 0.195323
C31   C     C_R   0.793330 0.165944 0.495908 -0.221792
C32   C     C_R   0.427180 0.816147 0.465123 -0.483097
C33   C     C_R   0.404207 0.993372 0.425002 -0.223008
C34   C     C_R   0.338310 0.887718 0.425311 0.263626
C35   C     C_R   0.572490 0.849669 0.516688 0.242069
C36   C     C_R   0.636665 0.960819 0.522301 -0.059668
C37   C     C_R   0.556090 0.030919 0.469539 -0.078456
C38   C     C_R   0.629959 0.136870 0.462682 0.147230
C39   C     C_R   0.863289 0.103971 0.558682 0.205039
C40   C     C_R   0.773956 0.006811 0.579952 0.129554
H37   H     H_    0.336791 0.044735 0.387821 0.163477
H38   H     H_    0.378933 0.733254 0.459114 0.147424
O25   O     O_3   0.741417 0.618343 0.893628 -0.808872
H39   H     H_    0.785071 0.645231 0.956726 0.327303
O26   O     O_3   0.611502 0.761116 0.873427 -0.756389
H40   H     H_    0.651416 0.800117 0.933200 0.315855
O27   O     O_3   0.663652 0.310280 0.209642 -0.746119
H41   H     H_    0.762110 0.294297 0.176715 0.313498
C41   C     C_3   0.360675 0.859259 0.047115 -0.905371
H42   H     H_    0.453841 0.928304 0.066283 0.244685
H43   H     H_    0.413195 0.787689 0.062682 0.222842
H44   H     H_    0.336413 0.857795 0.970737 0.277569
C42   C     C_3   0.432253 0.482432 0.307752 -0.533623
H45   H     H_    0.372378 0.403993 0.323228 0.226459
H46   H     H_    0.561759 0.470361 0.299885 0.273979
H47   H     H_    0.419123 0.539616 0.367448 0.224529
C43   C     C_3   0.660252 0.362016 0.001520 -0.858011
H48   H     H_    0.533793 0.342516 0.973473 0.281819
H49   H     H_    0.696424 0.288388 0.025736 0.218149
H50   H     H_    0.651563 0.421097 0.060318 0.269355
O28   O     O_3   0.837130 0.416547 0.679687 -0.691935
H51   H     H_    0.804158 0.339410 0.669451 0.295850
C44   C     C_3   0.792200 0.973761 0.677110 -0.802795
H52   H     H_    0.817124 0.042924 0.727223 0.194349
H53   H     H_    0.672686 0.937471 0.701106 0.241861
H54   H     H_    0.891030 0.923736 0.682406 0.301058
C45   C     C_3   0.893110 0.263797 0.464819 -0.559458
H55   H     H_    0.019428 0.249240 0.448691 0.246759
H56   H     H_    0.841104 0.287923 0.400565 0.235247
H57   H     H_    0.894124 0.330562 0.517280 0.260704
C46   C     C_3   0.067469 0.780566 0.060395 -0.889411
H58   H     H_    0.093224 0.701811 0.077462 0.235244
H59   H     H_    0.947745 0.792366 0.089458 0.285957
H60   H     H_    0.056555 0.782555 0.983482 0.231653
O29   O     O_3   0.158400 0.966701 0.088728 -0.739570
H61   H     H_    0.048867 0.968971 0.115523 0.340602
O30   O     O_3   0.148603 0.777639 0.600138 -0.714413
H62   H     H_    0.151082 0.718104 0.553208 0.323785

loop_
_geom_bond_atom_site_label_1
_geom_bond_atom_site_label_2
_geom_bond_distance
_ccdc_geom_bond_type
C20   C21   1.398879 A    
C26   C27   1.401106 A    
P2    Ba1   3.416963 S    
P4    C26   1.899415 S    
C32   H38   1.081185 S    
C28   C29   1.408758 A    
C16   H32   1.110105 S    
C42   H45   1.097276 S    
P5    O17   1.751982 S    
C18   C19   1.414003 A    
C5    H9    1.111273 S    
C45   H56   1.092926 S    
P4    O13   1.571716 S    
P3    O11   1.754487 S    
C12   H23   1.108766 S    
C33   H37   1.080625 S    
C2    H5    1.108729 S    
O11   C2    1.408831 S    
C8    C9    1.531680 S    
C46   H59   1.103694 S    
O29   H61   0.990814 S    
C6    H10   1.109946 S    
O3    P6    1.750551 S    
O12   Ba2   2.847353 S    
C42   H46   1.106068 S    
C9    O26   1.404157 S    
C36   C37   1.437344 A    
C11   C12   1.522468 S    
O26   H40   0.992946 S    
C25   C29   1.423388 A    
C7    H14   1.099570 S    
C32   C35   1.397815 A    
C12   H22   1.110575 S    
P1    O1    1.512358 D    
P4    O15   1.752621 S    
O2    Ba1   2.917599 S    
O30   H62   0.988695 S    
C11   O22   1.390825 S    
C2    H4    1.115348 S    
P8    O23   1.539996 D    
P2    O10   1.746312 S    
C44   H54   1.109646 S    
C4    H6    1.109128 S    
P7    C38   1.889603 S    
C14   H26   1.109983 S    
C1    H2    1.102767 S    
O3    Ba1   2.811069 S    
O13   Ba2   2.918363 S    
C31   C38   1.412608 A    
C31   C39   1.408945 A    
C4    O15   1.399050 S    
C17   C23   1.397478 A    
C16   H33   1.108849 S    
O8    Ba1   2.828303 S    
P5    O18   1.544107 D    
C41   H43   1.103057 S    
P1    C18   1.915097 S    
C3    C41   1.535346 S    
C45   H57   1.103297 S    
Ba1   O16   2.848143 S    
C13   H24   1.110548 S    
C2    C3    1.552125 S    
C46   H60   1.110397 S    
H1    C10   1.107465 S    
C24   C25   1.428348 A    
C31   C45   1.502201 S    
C19   C20   1.406293 A    
C15   C16   1.519312 S    
C42   H47   1.109187 S    
P5    O19   1.749382 S    
O14   Ba2   2.810481 S    
C11   H20   1.110530 S    
P5    C39   1.880224 S    
C4    O30   1.395456 S    
C11   O27   1.386269 S    
P1    O5    1.754683 S    
C29   C43   1.515645 S    
C22   C30   1.423606 A    
O14   P8    1.736739 S    
P1    O2    1.571837 S    
P7    O22   1.743112 S    
C15   H29   1.108388 S    
C43   H49   1.105768 S    
C8    H15   1.106548 S    
C24   C26   1.446513 A    
C9    O25   1.394239 S    
C3    O29   1.404169 S    
C18   C23   1.446246 A    
O17   Ba2   2.828889 S    
C14   H28   1.110562 S    
P1    Ba1   3.399531 S    
C7    H12   1.108081 S    
P6    C20   1.850654 S    
C1    H19   1.104366 S    
O19   C13   1.405290 S    
C24   C30   1.417783 A    
P3    C34   1.841243 S    
C32   C34   1.396759 A    
C1    H3    1.106886 S    
P2    O20   1.598815 S    
C9    H17   1.117181 S    
O5    C6    1.405798 S    
P2    O7    1.511847 D    
P3    O8    1.737411 S    
Ba1   O13   2.807513 S    
C44   H52   1.100408 S    
P4    O12   1.512724 D    
O6    P6    1.747038 S    
C37   C38   1.422372 A    
C43   H48   1.100631 S    
C19   C42   1.508245 S    
C30   H36   1.080440 S    
O25   H39   0.992534 S    
C35   C36   1.448875 A    
C41   H44   1.111486 S    
O4    P6    1.544262 D    
C10   H18   1.108533 S    
C6    C7    1.513572 S    
C17   H35   1.061401 S    
P8    C28   1.855869 S    
Ba1   O20   2.912687 S    
H31   C16   1.108176 S    
C14   H27   1.106025 S    
O2    Ba2   2.808076 S    
O10   C8    1.392747 S    
C5    H8    1.108381 S    
C17   C25   1.419866 A    
C45   H55   1.108472 S    
O27   H41   0.985434 S    
C27   O28   1.371004 S    
C13   C14   1.514216 S    
P7    O21   1.574995 D    
C5    H7    1.107875 S    
C43   H50   1.108416 S    
C8    H16   1.108036 S    
C46   H58   1.104216 S    
C6    H11   1.105795 S    
P2    C35   1.893877 S    
C3    C46   1.539706 S    
C7    H13   1.106402 S    
C4    C5    1.517147 S    
C27   C28   1.407381 A    
C15   O24   1.402801 S    
O16   P7    1.795354 S    
Ba2   O20   2.847473 S    
O16   Ba2   2.911903 S    
O1    Ba1   2.846826 S    
C21   C22   1.403740 A    
C36   C40   1.426393 A    
C41   H42   1.106389 S    
P8    O24   1.748939 S    
P3    O9    1.548179 D    
C33   C34   1.390638 A    
C44   H53   1.100929 S    
C12   H21   1.105512 S    
C40   C44   1.497859 S    
C33   C37   1.404998 A    
C1    C10   1.507536 S    
O7    Ba1   2.883936 S    
O6    C10   1.402742 S    
C13   H25   1.109685 S    
C22   C23   1.420223 A    
C39   C40   1.413147 A    
C15   H30   1.112236 S    
C21   H34   1.081423 S    
Ba2   O21   2.884166 S    
O28   H51   0.991102 S    
P4    Ba2   3.399987 S    
Ba1   Ba2   4.571205 S    
