data_mof_unit_64831.cif
_audit_creation_date              2012-10-26T18:35:10-0400
_audit_creation_method            fapswitch 2.2
_symmetry_space_group_name_H-M    P1
_symmetry_Int_Tables_number       1
_space_group_crystal_system       triclinic
_cell_length_a                    10.765529
_cell_length_b                    14.426814
_cell_length_c                    13.132043
_cell_angle_alpha                 90.000044
_cell_angle_beta                  89.999457
_cell_angle_gamma                 89.999189
_cell_volume                      2039.56759811

loop_
_atom_site_label
_atom_site_type_symbol
_atom_type_description
_atom_site_fract_x
_atom_site_fract_y
_atom_site_fract_z
_atom_type_partial_charge
C1    C     C_R   0.499997 0.328703 0.500000 0.577785
C2    C     C_R   0.742086 0.489389 0.499999 0.605749
C3    C     C_R   0.500001 0.671312 0.500000 0.555501
C4    C     C_3   0.072243 0.436032 0.597633 0.219482
C5    C     C_3   0.072250 0.436364 0.402176 0.220044
C6    C     C_3   0.927771 0.436385 0.597874 0.219916
C7    C     C_3   0.927778 0.435905 0.402423 0.219333
C8    C     C_3   0.071362 0.587336 0.500179 -0.371671
C9    C     C_3   0.928520 0.587295 0.499733 -0.371451
C10   C     C_3   0.120976 0.486451 0.500002 0.021422
C11   C     C_3   0.878999 0.486380 0.500004 0.021411
C12   C     C_1   0.499999 0.957678 0.500001 -0.006532
C13   C     C_1   0.499998 0.227191 0.500001 -0.067084
C14   C     C_1   0.499997 0.142387 0.500001 -0.076495
C15   C     C_1   0.499998 0.042503 0.500001 -0.012421
C16   C     C_3   0.174784 0.323244 0.694826 0.003260
C17   C     C_3   0.210180 0.221281 0.697084 -0.349826
C18   C     C_3   0.174474 0.324601 0.303373 0.003207
C19   C     C_3   0.211063 0.222892 0.300266 -0.350005
C20   C     C_3   0.825343 0.324682 0.696633 0.003037
C21   C     C_3   0.788799 0.222966 0.699796 -0.350049
C22   C     C_3   0.825041 0.323024 0.305488 0.003054
C23   C     C_1   0.500000 0.857750 0.500000 -0.049316
C24   C     C_3   0.789913 0.221010 0.303285 -0.349910
C25   C     C_1   0.500000 0.772913 0.500000 -0.054193
C26   C     C_1   0.500000 0.499918 0.173603 0.089178
C27   C     C_1   0.500000 0.499918 0.826397 0.089138
C28   C     C_1   0.500000 0.499839 0.050686 -0.065307
C29   C     C_1   0.500000 0.499839 0.949314 -0.065312
C30   C     C_R   0.257890 0.489515 0.500002 0.605956
Cu1   Cu    Cu3+1 0.500000 0.499990 0.592680 0.947278
Cu2   Cu    Cu3+1 0.500000 0.499990 0.407320 0.947259
H1    H     H_    0.103175 0.478038 0.664772 0.031421
H2    H     H_    0.260594 0.365157 0.704918 0.149312
H3    H     H_    0.275013 0.205480 0.633675 0.169043
H4    H     H_    0.256314 0.204595 0.770451 0.083614
H5    H     H_    0.125720 0.177683 0.689058 0.161891
H6    H     H_    0.259616 0.367124 0.292530 0.148946
H7    H     H_    0.108716 0.338250 0.239775 0.096908
H8    H     H_    0.127305 0.178693 0.309222 0.161851
H9    H     H_    0.255968 0.206749 0.226242 0.083556
H10   H     H_    0.277319 0.207345 0.362759 0.168605
H11   H     H_    0.740137 0.367187 0.707205 0.149189
H12   H     H_    0.102486 0.478995 0.335295 0.031390
H13   H     H_    0.890854 0.338431 0.760376 0.096796
H14   H     H_    0.872637 0.178779 0.691274 0.161648
H15   H     H_    0.743449 0.206933 0.773668 0.083635
H16   H     H_    0.722934 0.207291 0.637065 0.168694
H17   H     H_    0.889275 0.336970 0.240926 0.096832
H18   H     H_    0.739076 0.364813 0.295658 0.149557
H19   H     H_    0.725453 0.205075 0.366908 0.169083
H20   H     H_    0.743450 0.204296 0.230064 0.083712
H21   H     H_    0.874534 0.177536 0.310990 0.161730
H22   H     H_    0.897489 0.479033 0.664729 0.031421
H23   H     H_    0.896795 0.477825 0.335234 0.031469
H24   H     H_    0.105504 0.625036 0.568660 0.135462
H25   H     H_    0.106121 0.625446 0.432181 0.135679
H26   H     H_    0.893724 0.625438 0.567696 0.135745
H27   H     H_    0.894342 0.624924 0.431218 0.135558
H28   H     H_    0.110236 0.337076 0.759205 0.096966
N1    N     N_1   0.500000 0.500020 0.268070 -0.188256
N2    N     N_1   0.500000 0.500020 0.731930 -0.188282
O1    O     O_R   0.500000 0.376050 0.578280 -0.481658
O2    O     O_3   0.119354 0.344217 0.398533 -0.458857
O3    O     O_3   0.880809 0.344199 0.601583 -0.458939
O4    O     O_3   0.881808 0.343411 0.399797 -0.458168
O5    O     O_R   0.500000 0.376050 0.421720 -0.481708
O6    O     O_R   0.317680 0.499980 0.578260 -0.503216
O7    O     O_R   0.317680 0.499980 0.421740 -0.502346
O8    O     O_R   0.682320 0.499980 0.578260 -0.502485
O9    O     O_R   0.682320 0.499980 0.421740 -0.503387
O10   O     O_R   0.500000 0.623940 0.578240 -0.468394
O11   O     O_R   0.500000 0.623940 0.421760 -0.468388
O12   O     O_3   0.118360 0.343581 0.600367 -0.458066

loop_
_geom_bond_atom_site_label_1
_geom_bond_atom_site_label_2
_ccdc_geom_bond_type
C24   H20   S    
C18   H7    S    
C19   H10   S    
C22   O4    S    
Cu2   O7    S    
C6    O3    S    
C27   N2    T    
C8    H25   S    
C27   C29   S    
C10   C30   S    
C9    H27   S    
C4    O12   S    
Cu1   Cu2   S    
C12   C23   S    
C12   C15   T    
C7    H23   S    
C22   H18   S    
C21   H16   S    
C8    H24   S    
C24   H19   S    
C3    O10   A    
C18   H6    S    
C5    C10   S    
C17   H5    S    
C13   C14   T    
C7    O4    S    
C7    C11   S    
C9    C11   S    
Cu1   N2    S    
C18   O2    S    
C16   C17   S    
C2    O8    A    
C6    H22   S    
Cu2   O5    S    
C16   O12   S    
C2    C11   S    
C1    O1    A    
C8    C10   S    
Cu1   O10   S    
C1    O5    A    
C5    H12   S    
Cu2   N1    S    
C18   C19   S    
Cu2   O9    S    
C23   C25   T    
C17   H4    S    
Cu1   O6    S    
C3    O11   A    
C22   C24   S    
C20   H11   S    
C1    C13   S    
C19   H8    S    
C6    C11   S    
C4    C10   S    
C2    O9    A    
C21   H14   S    
Cu1   O1    S    
C20   O3    S    
C3    C25   S    
C30   O7    A    
C20   C21   S    
C4    C6    S    
C9    H26   S    
C16   H28   S    
C20   H13   S    
C22   H17   S    
Cu2   O11   S    
C5    C7    S    
C4    H1    S    
C28   C29   T    
C17   H3    S    
C16   H2    S    
C24   H21   S    
C14   C15   S    
C26   C28   S    
C26   N1    T    
Cu1   O8    S    
C30   O6    A    
C19   H9    S    
C5    O2    S    
C8    C9    S    
C21   H15   S    
