data_mof_unit_45022.cif
_audit_creation_date              2013-03-05T15:50:10-0500
_audit_creation_method            fapswitch 2.2
_symmetry_space_group_name_H-M    P1
_symmetry_Int_Tables_number       1
_space_group_crystal_system       triclinic
_cell_length_a                    18.587981
_cell_length_b                    26.154545
_cell_length_c                    18.416935
_cell_angle_alpha                 89.702154
_cell_angle_beta                  89.89524
_cell_angle_gamma                 89.736451
_cell_volume                      8953.35026223

loop_
_atom_site_label
_atom_site_type_symbol
_atom_site_description
_atom_site_fract_x
_atom_site_fract_y
_atom_site_fract_z
_atom_type_partial_charge
Zn1   Zn    Zn3+2 0.249990 0.293780 0.913250 1.081742
Zn2   Zn    Zn3+2 0.249990 0.706220 0.086750 1.074020
Zn3   Zn    Zn3+2 0.249990 0.706220 0.913250 1.070481
Zn4   Zn    Zn3+2 0.249990 0.293780 0.086750 1.059185
Zn5   Zn    Zn3+2 0.749990 0.793780 0.413250 1.072600
Zn6   Zn    Zn3+2 0.749990 0.206220 0.586750 1.077169
Zn7   Zn    Zn3+2 0.749990 0.206220 0.413250 1.076457
Zn8   Zn    Zn3+2 0.749990 0.793780 0.586750 1.079362
Zn9   Zn    Zn3+2 0.336760 0.206240 0.000000 1.012714
Zn10  Zn    Zn3+2 0.336760 0.793760 0.000000 1.012795
Zn11  Zn    Zn3+2 0.836760 0.706240 0.500000 1.011880
Zn12  Zn    Zn3+2 0.836760 0.293760 0.500000 1.006204
Zn13  Zn    Zn3+2 0.163250 0.206230 0.000000 1.031318
Zn14  Zn    Zn3+2 0.163250 0.793770 0.000000 1.018702
Zn15  Zn    Zn3+2 0.663250 0.706230 0.500000 1.018450
Zn16  Zn    Zn3+2 0.663250 0.293770 0.500000 1.015298
O1    O     O_3   0.249990 0.250010 0.000000 -0.517760
O2    O     O_3   0.249990 0.749990 0.000000 -0.515539
O3    O     O_3   0.749990 0.750010 0.500000 -0.518788
O4    O     O_3   0.749990 0.249990 0.500000 -0.519667
O5    O     O_R   0.335430 0.280650 0.146160 -0.604511
O6    O     O_R   0.335430 0.719350 0.853840 -0.592708
O7    O     O_R   0.335430 0.719350 0.146160 -0.600950
O8    O     O_R   0.335430 0.280650 0.853840 -0.594061
O9    O     O_R   0.835430 0.780650 0.646160 -0.589015
O10   O     O_R   0.835430 0.219350 0.353840 -0.592541
O11   O     O_R   0.835430 0.219350 0.646160 -0.595276
O12   O     O_R   0.835430 0.780650 0.353840 -0.597197
O13   O     O_R   0.164550 0.280640 0.853840 -0.623727
O14   O     O_R   0.164550 0.719360 0.146160 -0.640744
O15   O     O_R   0.164550 0.719360 0.853840 -0.655900
O16   O     O_R   0.164550 0.280640 0.146160 -0.653404
O17   O     O_R   0.664550 0.780640 0.353840 -0.648168
O18   O     O_R   0.664550 0.219360 0.646160 -0.649338
O19   O     O_R   0.664550 0.219360 0.353840 -0.646616
O20   O     O_R   0.664550 0.780640 0.646160 -0.656420
O21   O     O_R   0.396160 0.219380 0.914560 -0.660027
O22   O     O_R   0.396160 0.780620 0.085440 -0.656405
O23   O     O_R   0.396160 0.780620 0.914560 -0.655488
O24   O     O_R   0.396160 0.219380 0.085440 -0.644185
O25   O     O_R   0.896160 0.719380 0.414560 -0.666671
O26   O     O_R   0.896160 0.280620 0.585440 -0.658799
O27   O     O_R   0.896160 0.280620 0.414560 -0.662843
O28   O     O_R   0.896160 0.719380 0.585440 -0.655605
O29   O     O_R   0.103840 0.219370 0.085450 -0.613526
O30   O     O_R   0.103840 0.780630 0.914550 -0.624898
O31   O     O_R   0.103840 0.780630 0.085450 -0.629368
O32   O     O_R   0.103840 0.219370 0.914550 -0.620159
O33   O     O_R   0.603840 0.719370 0.585450 -0.624625
O34   O     O_R   0.603840 0.280630 0.414550 -0.624702
O35   O     O_R   0.603840 0.280630 0.585450 -0.625961
O36   O     O_R   0.603840 0.719370 0.414550 -0.625062
O37   O     O_R   0.310730 0.133160 0.000000 -0.622941
O38   O     O_R   0.310730 0.866840 0.000000 -0.622306
O39   O     O_R   0.810730 0.633160 0.500000 -0.628193
O40   O     O_R   0.810730 0.366840 0.500000 -0.626687
O41   O     O_R   0.249970 0.366860 0.060720 -0.611338
O42   O     O_R   0.249970 0.633140 0.939280 -0.590956
O43   O     O_R   0.249970 0.633140 0.060720 -0.588944
O44   O     O_R   0.249970 0.366860 0.939280 -0.566326
O45   O     O_R   0.749970 0.866860 0.560720 -0.583742
O46   O     O_R   0.749970 0.133140 0.439280 -0.587702
O47   O     O_R   0.749970 0.133140 0.560720 -0.593905
O48   O     O_R   0.749970 0.866860 0.439280 -0.599770
O49   O     O_R   0.189290 0.133150 0.000000 -0.630141
O50   O     O_R   0.189290 0.866850 0.000000 -0.642233
O51   O     O_R   0.689290 0.633150 0.500000 -0.643833
O52   O     O_R   0.689290 0.366850 0.500000 -0.643385
C1    C     C_R   0.389294 0.250084 0.140047 0.857241
C2    C     C_R   0.389836 0.750102 0.860529 0.829941
C3    C     C_R   0.390068 0.749875 0.139751 0.866583
C4    C     C_R   0.390289 0.250394 0.860276 0.837147
C5    C     C_R   0.889627 0.749699 0.639953 0.877147
C6    C     C_R   0.891435 0.248192 0.361125 0.850200
C7    C     C_R   0.891387 0.248278 0.639019 0.880224
C8    C     C_R   0.890079 0.750152 0.360098 0.864543
C9    C     C_R   0.110342 0.250632 0.860098 0.826450
C10   C     C_R   0.110801 0.749902 0.140849 0.842843
C11   C     C_R   0.111410 0.750864 0.858265 0.844450
C12   C     C_R   0.112397 0.249094 0.142270 0.842869
C13   C     C_R   0.611070 0.750010 0.358775 0.839751
C14   C     C_R   0.611110 0.249898 0.641250 0.841431
C15   C     C_R   0.610637 0.250588 0.358863 0.829786
C16   C     C_R   0.611409 0.749277 0.641683 0.839573
C17   C     C_R   0.250342 0.108926 0.001282 0.861359
C18   C     C_R   0.248710 0.890611 0.005773 0.866325
C19   C     C_R   0.749177 0.608873 0.501406 0.855182
C20   C     C_R   0.749029 0.390563 0.507069 0.857384
C21   C     C_R   0.252393 0.391225 0.999652 1.019185
C22   C     C_R   0.252043 0.608913 0.000384 1.032205
C23   C     C_R   0.750143 0.891162 0.500081 1.001408
C24   C     C_R   0.750613 0.108811 0.499672 1.002690
C25   C     C_3   0.227895 0.469494 0.078100 0.204848
C26   C     C_3   0.205979 0.530952 0.934292 0.192821
C27   C     C_3   0.221078 0.529959 0.076343 0.210044
C28   C     C_3   0.200323 0.470477 0.938246 0.196451
C29   C     C_3   0.702678 0.970110 0.566258 0.216125
C30   C     C_3   0.710171 0.030218 0.427737 0.221824
C31   C     C_3   0.709712 0.030369 0.569129 0.204061
C32   C     C_3   0.717517 0.969741 0.424939 0.208397
H1    H     H_    0.096432 0.916275 0.032582 0.212893
H2    H     H_    0.131848 0.084196 0.923969 0.200520
H3    H     H_    0.605394 0.410928 0.556110 0.211128
H4    H     H_    0.605678 0.584720 0.459931 0.217715
C33   C     C_3   0.339935 0.469224 0.979411 0.400138
C34   C     C_3   0.341577 0.531806 0.994287 0.403879
C35   C     C_3   0.838397 0.968142 0.510094 0.423561
C36   C     C_3   0.839173 0.030886 0.496556 0.432074
C37   C     C_3   0.256435 0.448872 0.998800 -0.426880
C38   C     C_3   0.256355 0.551562 0.001087 -0.435229
C39   C     C_3   0.753354 0.948557 0.500401 -0.445837
C40   C     C_3   0.753746 0.051302 0.498411 -0.444264
H5    H     H_    0.037461 0.073114 0.802389 0.196298
H6    H     H_    0.962753 0.909533 0.145135 0.203880
H7    H     H_    0.910860 0.846289 0.940454 0.210924
H8    H     H_    0.000366 0.078079 0.161126 0.197352
H9    H     H_    0.463244 0.587835 0.336926 0.218984
H10   H     H_    0.483106 0.419502 0.681616 0.218723
H11   H     H_    0.405568 0.353992 0.432956 0.216360
H12   H     H_    0.404272 0.659155 0.560060 0.212822
C41   C     C_R   0.058271 0.343379 0.777541 -0.131676
C42   C     C_R   0.089593 0.662768 0.251955 -0.142726
C43   C     C_R   0.122766 0.686945 0.717978 -0.146743
C44   C     C_R   0.112169 0.323207 0.273539 -0.151236
C45   C     C_R   0.595258 0.835040 0.242724 -0.133591
C46   C     C_R   0.600183 0.166463 0.761858 -0.147619
C47   C     C_R   0.610876 0.183220 0.220438 -0.138563
C48   C     C_R   0.623388 0.811580 0.783346 -0.152396
C49   C     C_R   0.051779 0.381987 0.724403 0.262828
C50   C     C_R   0.088933 0.630678 0.313752 0.253361
C51   C     C_R   0.134257 0.668359 0.647822 0.218327
C52   C     C_R   0.119152 0.348206 0.340270 0.233416
C53   C     C_R   0.594759 0.866779 0.180794 0.238656
C54   C     C_R   0.602707 0.137392 0.826656 0.242687
C55   C     C_R   0.618779 0.164938 0.149146 0.236124
C56   C     C_R   0.634754 0.829599 0.853683 0.226607
C57   C     C_R   0.568664 0.848036 0.115960 -0.186166
C58   C     C_R   0.573006 0.156891 0.889381 -0.180008
C59   C     C_R   0.591437 0.193256 0.091466 -0.156996
C60   C     C_R   0.597104 0.808049 0.911189 -0.142738
C61   C     C_R   0.044979 0.367517 0.652038 -0.181246
C62   C     C_R   0.066999 0.650278 0.380015 -0.172032
C63   C     C_R   0.096156 0.689280 0.590166 -0.158029
C64   C     C_R   0.084380 0.329197 0.401130 -0.157546
C65   C     C_R   0.530100 0.802965 0.116158 -0.143995
C66   C     C_R   0.531425 0.200585 0.886207 -0.158575
C67   C     C_R   0.539487 0.230034 0.105034 -0.154334
C68   C     C_R   0.539945 0.775501 0.897286 -0.153634
C69   C     C_R   0.018815 0.319154 0.636368 -0.130793
C70   C     C_R   0.030362 0.696417 0.381646 -0.151149
C71   C     C_R   0.039214 0.722411 0.603725 -0.142077
C72   C     C_R   0.035566 0.289798 0.393795 -0.135169
C73   C     C_R   0.511564 0.779367 0.182809 0.090752
C74   C     C_R   0.512570 0.222048 0.818353 0.086895
C75   C     C_R   0.516439 0.237707 0.176917 0.073842
C76   C     C_R   0.518102 0.766191 0.825050 0.076023
C77   C     C_R   0.003619 0.284978 0.693843 0.085380
C78   C     C_R   0.011420 0.720838 0.315826 0.079133
C79   C     C_R   0.017503 0.732801 0.675861 0.080742
C80   C     C_R   0.017580 0.270781 0.324361 0.075704
C81   C     C_R   0.041430 0.292508 0.758622 0.030221
C82   C     C_R   0.055111 0.711374 0.254986 0.043323
C83   C     C_R   0.067527 0.723653 0.732084 0.058558
C84   C     C_R   0.065658 0.280276 0.266399 0.054412
C85   C     C_R   0.556860 0.788129 0.242637 0.048244
C86   C     C_R   0.558576 0.212540 0.759019 0.044849
C87   C     C_R   0.563787 0.224893 0.233577 0.045192
C88   C     C_R   0.568028 0.775570 0.768725 0.061430
C89   C     C_R   0.447541 0.750557 0.194673 -0.132816
C90   C     C_R   0.448802 0.251308 0.806147 -0.141461
C91   C     C_R   0.445321 0.251361 0.195592 -0.106915
C92   C     C_R   0.446947 0.751354 0.805850 -0.119555
C93   C     C_R   0.951087 0.245388 0.692755 -0.136074
C94   C     C_R   0.947696 0.750411 0.305148 -0.129888
C95   C     C_R   0.946577 0.748958 0.694968 -0.108210
C96   C     C_R   0.953545 0.242679 0.310203 -0.130492
C97   C     C_R   0.442446 0.721524 0.259362 -0.066736
C98   C     C_R   0.445910 0.282827 0.743302 -0.069890
C99   C     C_R   0.431293 0.266728 0.268023 -0.033656
C100  C     C_R   0.432975 0.738215 0.733158 -0.030391
C101  C     C_R   0.960440 0.204207 0.743935 -0.062247
C102  C     C_R   0.942919 0.780701 0.241226 -0.047552
C103  C     C_R   0.933383 0.764750 0.767293 -0.034543
C104  C     C_R   0.955111 0.207809 0.250250 -0.042504
C105  C     C_R   0.027171 0.201912 0.780035 0.009077
C106  C     C_R   0.007794 0.791081 0.205722 -0.009657
C107  C     C_R   0.993731 0.780726 0.806091 -0.022827
C108  C     C_R   0.021510 0.201294 0.214499 -0.019998
C109  C     C_R   0.507285 0.710107 0.294178 -0.005692
C110  C     C_R   0.511604 0.292255 0.708957 -0.002632
C111  C     C_R   0.491611 0.281395 0.308561 -0.027299
C112  C     C_R   0.492267 0.721943 0.692826 -0.033242
C113  C     C_R   0.058964 0.248641 0.799940 -0.103102
C114  C     C_R   0.058523 0.750796 0.201072 -0.117657
C115  C     C_R   0.058537 0.752413 0.797751 -0.124294
C116  C     C_R   0.066262 0.244311 0.207739 -0.117634
C117  C     C_R   0.559099 0.749403 0.297971 -0.113227
C118  C     C_R   0.560428 0.250996 0.703059 -0.113840
C119  C     C_R   0.556194 0.252628 0.299720 -0.129825
C120  C     C_R   0.558256 0.748159 0.702118 -0.125047
C121  C     C_R   0.379780 0.697458 0.286062 0.166598
C122  C     C_R   0.386506 0.313115 0.721568 0.163003
C123  C     C_R   0.363150 0.268059 0.303906 0.158618
C124  C     C_R   0.365749 0.742126 0.696314 0.142793
C125  C     C_R   0.911630 0.163879 0.759666 0.184966
C126  C     C_R   0.880037 0.804058 0.212649 0.169394
C127  C     C_R   0.866453 0.763509 0.805865 0.147073
C128  C     C_R   0.897884 0.176269 0.226071 0.198152
C129  C     C_R   0.387677 0.649643 0.320396 0.181202
C130  C     C_R   0.400016 0.362926 0.696091 0.203889
C131  C     C_R   0.357401 0.295557 0.369479 0.166046
C132  C     C_R   0.359533 0.718259 0.627749 0.174614
C133  C     C_R   0.940270 0.116234 0.783029 0.239542
C134  C     C_R   0.887904 0.849806 0.172689 0.194553
C135  C     C_R   0.862851 0.787666 0.874571 0.174057
C136  C     C_R   0.915299 0.129048 0.192923 0.170467
C137  C     C_R   0.014575 0.110437 0.791045 -0.235402
C138  C     C_R   0.956490 0.870825 0.164249 -0.216142
C139  C     C_R   0.917691 0.821033 0.894645 -0.219594
C140  C     C_R   0.986652 0.115734 0.181241 -0.223572
C141  C     C_R   0.456684 0.627992 0.325129 -0.224480
C142  C     C_R   0.471460 0.379467 0.690356 -0.218220
C143  C     C_R   0.414097 0.326644 0.390689 -0.213607
C144  C     C_R   0.413273 0.684054 0.605610 -0.209886
C145  C     C_R   0.058410 0.153462 0.792767 0.138579
C146  C     C_R   0.017311 0.840903 0.178203 0.171642
C147  C     C_R   0.982992 0.819250 0.857642 0.210708
C148  C     C_R   0.039934 0.152066 0.188805 0.200086
C149  C     C_R   0.517417 0.659035 0.316705 0.164531
C150  C     C_R   0.527788 0.343690 0.692568 0.145289
C151  C     C_R   0.481585 0.320940 0.358705 0.218632
C152  C     C_R   0.479782 0.684391 0.640662 0.220161
H13   H     H_    0.071401 0.353149 0.832883 0.168533
H14   H     H_    0.111146 0.647967 0.201958 0.194326
H15   H     H_    0.155248 0.669369 0.759186 0.210243
H16   H     H_    0.143366 0.338869 0.229923 0.210215
H17   H     H_    0.621302 0.849063 0.290284 0.202241
H18   H     H_    0.628027 0.151475 0.715407 0.205653
H19   H     H_    0.635024 0.161670 0.264036 0.206925
H20   H     H_    0.655817 0.829224 0.742349 0.211601
H21   H     H_    0.573838 0.870084 0.066356 0.168281
H22   H     H_    0.578971 0.136414 0.940115 0.165805
H23   H     H_    0.603841 0.182862 0.036422 0.151034
H24   H     H_    0.610057 0.818240 0.966380 0.162980
H25   H     H_    0.053427 0.394438 0.608398 0.150734
H26   H     H_    0.072341 0.627797 0.429242 0.164091
H27   H     H_    0.108984 0.678496 0.535035 0.163228
H28   H     H_    0.094346 0.345396 0.454145 0.165206
H29   H     H_    0.513137 0.788647 0.064295 0.169187
H30   H     H_    0.513329 0.216132 0.937161 0.167997
H31   H     H_    0.513469 0.248663 0.059524 0.145215
H32   H     H_    0.512174 0.759195 0.943319 0.157651
H33   H     H_    0.010311 0.309680 0.580080 0.173120
H34   H     H_    0.014367 0.710750 0.434003 0.170158
H35   H     H_    0.011996 0.738727 0.557350 0.165963
H36   H     H_    0.013284 0.274085 0.443253 0.174233
C153  C     C_R   0.365461 0.050275 0.081999 0.198919
C154  C     C_R   0.357813 0.945456 0.092410 0.193151
C155  C     C_R   0.865000 0.552783 0.575757 0.206971
C156  C     C_R   0.866565 0.448163 0.578858 0.208504
C157  C     C_R   0.426648 0.022282 0.101129 -0.168123
C158  C     C_R   0.422254 0.969707 0.107676 -0.170775
C159  C     C_R   0.930257 0.527497 0.584272 -0.169554
C160  C     C_R   0.930951 0.474650 0.584721 -0.180149
C161  C     C_R   0.303594 0.971531 0.052053 -0.003652
C162  C     C_R   0.306709 0.025762 0.046720 0.000578
C163  C     C_R   0.806376 0.472819 0.547337 -0.001390
C164  C     C_R   0.805821 0.526902 0.544209 -0.010835
C165  C     C_R   0.243419 0.945581 0.023792 -0.132620
C166  C     C_R   0.249929 0.052587 0.009717 -0.125648
C167  C     C_R   0.744592 0.445604 0.526653 -0.135507
C168  C     C_R   0.745221 0.552918 0.514356 -0.129867
C169  C     C_R   0.179591 0.973911 0.008109 0.069521
C170  C     C_R   0.186957 0.025579 0.989111 0.039416
C171  C     C_R   0.678209 0.472457 0.521523 0.063748
C172  C     C_R   0.678987 0.525239 0.505229 0.060745
C173  C     C_R   0.108262 0.953790 0.011977 -0.171135
C174  C     C_R   0.127472 0.049856 0.955644 -0.195595
C175  C     C_R   0.610797 0.448267 0.532509 -0.169405
C176  C     C_R   0.611990 0.547813 0.483956 -0.183604
C177  C     C_R   0.048157 0.984707 0.996845 0.165544
C178  C     C_R   0.058552 0.034024 0.971095 0.171447
C179  C     C_R   0.546464 0.472826 0.517749 0.178980
C180  C     C_R   0.546871 0.522800 0.493904 0.188263
H37   H     H_    0.472466 0.041256 0.125079 0.198653
H38   H     H_    0.464436 0.949266 0.136012 0.190691
H39   H     H_    0.976782 0.547638 0.604635 0.189048
H40   H     H_    0.978273 0.455721 0.603639 0.172428
I1    I     I_    0.277730 0.438062 0.176959 -0.005569
I2    I     I_    0.219977 0.561305 0.823793 -0.028390
I3    I     I_    0.248443 0.565964 0.180787 -0.068055
I4    I     I_    0.197930 0.433128 0.831480 -0.068679
I5    I     I_    0.699774 0.932297 0.673611 -0.101815
I6    I     I_    0.719003 0.067452 0.320760 -0.067231
I7    I     I_    0.741711 0.058837 0.673359 -0.044696
I8    I     I_    0.760078 0.939803 0.322634 -0.027110
I9    I     I_    0.282183 0.740482 0.297958 -0.195841
I10   I     I_    0.285164 0.277868 0.699672 -0.181970
I11   I     I_    0.276368 0.219215 0.275574 -0.215999
I12   I     I_    0.283559 0.794402 0.730337 -0.254826
I13   I     I_    0.804503 0.182034 0.793670 -0.189116
I14   I     I_    0.782617 0.761160 0.202952 -0.224148
I15   I     I_    0.778475 0.716099 0.775317 -0.231390
I16   I     I_    0.797181 0.210271 0.198582 -0.245405
I17   I     I_    0.877196 0.052705 0.816350 -0.072474
I18   I     I_    0.800593 0.887925 0.122607 -0.147167
I19   I     I_    0.784452 0.770579 0.955141 -0.234614
I20   I     I_    0.841565 0.075807 0.151945 -0.113979
I21   I     I_    0.299185 0.610066 0.366487 -0.146256
I22   I     I_    0.315499 0.414407 0.669405 -0.053642
I23   I     I_    0.268874 0.290830 0.442095 -0.242137
I24   I     I_    0.277247 0.735657 0.551695 -0.237320
I25   I     I_    0.171864 0.141548 0.793664 -0.316584
I26   I     I_    0.118414 0.878056 0.183612 -0.273453
I27   I     I_    0.052495 0.883361 0.858512 -0.246631
I28   I     I_    0.146504 0.124013 0.179211 -0.227458
I29   I     I_    0.619970 0.623090 0.310501 -0.289713
I30   I     I_    0.634526 0.371831 0.700627 -0.273824
I31   I     I_    0.554284 0.383538 0.360146 -0.219720
I32   I     I_    0.547109 0.618513 0.641179 -0.188347
I33   I     I_    0.978886 0.092082 0.977443 -0.239115
I34   I     I_    0.942607 0.955843 0.005377 -0.246450
I35   I     I_    0.449249 0.563799 0.485092 -0.244606
I36   I     I_    0.449950 0.431681 0.525093 -0.263356
I37   I     I_    0.352606 0.112722 0.153584 -0.242115
I38   I     I_    0.335709 0.882735 0.163156 -0.259953
I39   I     I_    0.849237 0.610064 0.655265 -0.241313
I40   I     I_    0.852255 0.388993 0.657368 -0.272037
I41   I     I_    0.132817 0.431524 0.126822 -0.202424
I42   I     I_    0.102789 0.571419 0.916953 -0.187406
I43   I     I_    0.111906 0.558484 0.096855 -0.222759
I44   I     I_    0.090341 0.442827 0.951292 -0.220358
I45   I     I_    0.591197 0.943552 0.565983 -0.194993
I46   I     I_    0.599505 0.058894 0.419002 -0.198157
I47   I     I_    0.609654 0.071208 0.598866 -0.224458
I48   I     I_    0.618659 0.931548 0.389039 -0.223895
S1    S     S_3+6 0.411307 0.430480 0.026809 0.121364
O53   O     O_2   0.484676 0.448720 0.004479 -0.167598
O54   O     O_2   0.412664 0.428948 0.107611 -0.213163
O55   O     O_3   0.404728 0.369135 0.000398 -0.600874
H41   H     H_    0.449590 0.352335 0.017293 0.357409
S2    S     S_3+6 0.394998 0.571156 0.927654 0.149354
O56   O     O_2   0.471388 0.552276 0.924044 -0.163870
O57   O     O_2   0.369413 0.574479 0.851158 -0.209792
O58   O     O_3   0.398988 0.631944 0.957115 -0.548589
H42   H     H_    0.439044 0.647807 0.929660 0.360264
S3    S     S_3+6 0.396777 0.548776 0.075611 0.129643
O59   O     O_2   0.383281 0.518032 0.142419 -0.234027
O60   O     O_2   0.475777 0.542625 0.060373 -0.160231
O61   O     O_3   0.384750 0.610624 0.097378 -0.515814
H43   H     H_    0.418243 0.616980 0.138109 0.373679
S4    S     S_3+6 0.370227 0.453578 0.884620 0.134321
O62   O     O_2   0.335496 0.484150 0.825990 -0.205029
O63   O     O_2   0.449439 0.462574 0.874758 -0.190291
O64   O     O_3   0.357688 0.391599 0.864630 -0.489941
H44   H     H_    0.406156 0.376829 0.856336 0.370198
S5    S     S_3+6 0.877155 0.947965 0.600293 0.132778
O65   O     O_2   0.873554 0.890874 0.608319 -0.267795
O66   O     O_2   0.955485 0.961249 0.604578 -0.156551
O67   O     O_3   0.842820 0.972287 0.676195 -0.479059
H45   H     H_    0.866739 0.953318 0.716221 0.401335
S6    S     S_3+6 0.885879 0.050845 0.410296 0.124576
O68   O     O_2   0.879769 0.107739 0.400571 -0.274039
O69   O     O_2   0.964896 0.039005 0.414611 -0.165358
O70   O     O_3   0.860919 0.025112 0.331810 -0.486362
H46   H     H_    0.900226 0.033030 0.297200 0.393384
S7    S     S_3+6 0.900268 0.066763 0.559735 0.131190
O71   O     O_2   0.894244 0.123277 0.545512 -0.330682
O72   O     O_2   0.890222 0.058804 0.639115 -0.236357
O73   O     O_3   0.987095 0.051171 0.545491 -0.403730
H47   H     H_    0.015094 0.075105 0.575890 0.380243
S8    S     S_3+6 0.904955 0.931640 0.452587 0.133552
O74   O     O_2   0.896372 0.875201 0.465755 -0.333940
O75   O     O_2   0.904181 0.939515 0.372425 -0.226531
O76   O     O_3   0.989836 0.946188 0.476204 -0.404822
H48   H     H_    0.020171 0.918571 0.455651 0.385144
I49   I     I_    0.031738 0.459747 0.750416 -0.218432
I50   I     I_    0.105865 0.551068 0.311164 -0.180630
I51   I     I_    0.209104 0.608972 0.627408 -0.187601
I52   I     I_    0.185833 0.412389 0.353496 -0.169469
I53   I     I_    0.622919 0.944628 0.181461 -0.196300
I54   I     I_    0.647113 0.063612 0.838791 -0.146887
I55   I     I_    0.651030 0.090046 0.125671 -0.197721
I56   I     I_    0.706932 0.890300 0.873667 -0.185770

loop_
_geom_bond_atom_site_label_1
_geom_bond_atom_site_label_2
_geom_bond_distance
_ccdc_geom_bond_type
C52   C64   1.384113 A    
C53   C57   1.382651 A    
S5    O65   1.501514 D    
C33   S4    1.879857 S    
C166  C170  1.423068 A    
C156  C160  1.390227 A    
C91   C99   1.418564 A    
H4    C176  1.065836 S    
S1    O53   1.502835 D    
C131  I23   2.122209 S    
C145  I25   2.130450 S    
C54   I54   2.106309 S    
O26   C7    1.299534 A    
C90   C98   1.418437 A    
C153  C157  1.394550 A    
C122  C130  1.405964 A    
C14   C118  1.476582 S    
C155  C159  1.387651 A    
O30   C11   1.306623 A    
C70   H34   1.077221 S    
C151  I31   2.127951 S    
C109  C117  1.413796 A    
C152  I32   2.124877 S    
S8    O74   1.503845 D    
C74   C90   1.425472 A    
C89   C97   1.412714 A    
C26   I2    2.196021 S    
Zn12  O26   1.952043 S    
C78   C94   1.425068 A    
C172  C176  1.430226 A    
C75   C87   1.404565 A    
C62   H26   1.082493 S    
C175  C179  1.381590 A    
C67   C75   1.405813 A    
C56   C60   1.387025 A    
C57   H21   1.082152 S    
C126  C134  1.409503 A    
C63   C71   1.387935 A    
C124  C132  1.416677 A    
O11   C7    1.295113 A    
C135  C139  1.396533 A    
O34   C15   1.300830 A    
C157  H37   1.083377 S    
C12   C116  1.483410 S    
C35   S8    1.886426 S    
C68   H32   1.078770 S    
C159  H39   1.083261 S    
C100  C112  1.394092 A    
O55   H41   0.990658 S    
C52   I52   2.106655 S    
Zn1   O44   1.972990 S    
C72   H36   1.080011 S    
S2    O56   1.502690 D    
C46   C86   1.429705 A    
C153  I37   2.116709 S    
Zn5   O48   1.972990 S    
C60   H24   1.080038 S    
C17   C166  1.480947 S    
C5    C95   1.466664 S    
C155  I39   2.119352 S    
C86   C118  1.436810 A    
Zn7   O46   1.968159 S    
C6    C96   1.493017 S    
O16   C12   1.278237 A    
C43   C83   1.426907 A    
O64   H44   0.990510 S    
C66   C74   1.411403 A    
Zn16  O4    1.973251 S    
C131  C143  1.391753 A    
S4    O62   1.486907 D    
Zn12  O4    1.982146 S    
Zn1   O13   1.962855 S    
C47   C87   1.416274 A    
C26   C28   1.586969 S    
Zn4   O16   1.957619 S    
C42   H14   1.076632 S    
C28   I44   2.184046 S    
S5    O67   1.663819 S    
C123  I11   2.129608 S    
C34   S2    1.882278 S    
C46   H18   1.073965 S    
S1    O55   1.684042 S    
C51   C63   1.386236 A    
C95   C103  1.417241 A    
C57   C65   1.382462 A    
C96   C104  1.435925 A    
C101  C105  1.409293 A    
C88   C120  1.436284 A    
C28   I4    2.200723 S    
C47   C55   1.406874 A    
S2    O58   1.684602 S    
O76   H48   0.990606 S    
C165  C169  1.425151 A    
C28   C37   1.625773 S    
S8    O76   1.683171 S    
Zn10  O22   1.952043 S    
O70   H46   0.990631 S    
O25   C8    1.287545 A    
Zn13  O29   1.951922 S    
Zn10  O2    1.982146 S    
C98   C110  1.396554 A    
C76   C92   1.425773 A    
S7    O73   1.683274 S    
S2    O57   1.489734 D    
Zn15  O33   1.951922 S    
O61   H43   0.990901 S    
C44   H16   1.070713 S    
C99   C111  1.404132 A    
C46   C54   1.412417 A    
C32   C39   1.635307 S    
C111  C151  1.401722 A    
O37   C17   1.291727 A    
O48   C23   1.290474 A    
C154  I38   2.130619 S    
C138  C146  1.395529 A    
C161  C165  1.412595 A    
C130  C142  1.402221 A    
H10   C142  1.081371 S    
C103  C127  1.431905 A    
C101  C125  1.422777 A    
Zn16  O35   1.950830 S    
C94   C102  1.418263 A    
O73   H47   0.991909 S    
Zn7   O10   1.957575 S    
O33   C16   1.309263 A    
C65   H29   1.076055 S    
C148  I28   2.116678 S    
C149  I29   2.124743 S    
C10   C114  1.473468 S    
C157  C158  1.382516 A    
O40   C20   1.308066 A    
S6    O68   1.501668 D    
C76   C88   1.411868 A    
C69   H33   1.079203 S    
S4    O64   1.681524 S    
C11   C115  1.487538 S    
C44   C52   1.401602 A    
C53   I53   2.104740 S    
C125  I13   2.138369 S    
C155  C164  1.420948 A    
C164  C168  1.423178 A    
Zn5   O17   1.962855 S    
C61   H25   1.077506 S    
C35   C36   1.658701 S    
C27   I3    2.207347 S    
H8    C140  1.083207 S    
C59   H23   1.075257 S    
C130  I22   2.121071 S    
C55   I55   2.092873 S    
C112  C120  1.419052 A    
Zn15  O51   1.969549 S    
H12   C144  1.078429 S    
C123  C131  1.412425 A    
C154  C158  1.387870 A    
H6    C138  1.076873 S    
C121  C129  1.405623 A    
O67   H45   0.991266 S    
C150  I30   2.125052 S    
C169  C170  1.401389 A    
Zn8   O3    1.970301 S    
C30   C40   1.633930 S    
C160  H40   1.065620 S    
C180  I35   2.109576 S    
C33   S1    1.879225 S    
C133  I17   2.125249 S    
C134  C138  1.398759 A    
O38   C18   1.311681 A    
C56   I56   2.117422 S    
O5    C1    1.283497 A    
C102  C126  1.417288 A    
C71   C79   1.415085 A    
O32   C9    1.296457 A    
C45   C85   1.422295 A    
C102  C106  1.397756 A    
C19   C168  1.483696 S    
C107  C147  1.401363 A    
C20   C167  1.487769 S    
C105  C145  1.410159 A    
C81   C113  1.410674 A    
Zn11  O28   1.956706 S    
C158  H38   1.080599 S    
C99   C123  1.427982 A    
C50   I50   2.105157 S    
C97   C121  1.412907 A    
C73   C89   1.427358 A    
O8    C4    1.293102 A    
C132  C144  1.399467 A    
C33   C37   1.680312 S    
C73   C85   1.408284 A    
C178  I33   2.119617 S    
C35   C39   1.674081 S    
C106  C114  1.413567 A    
C136  C140  1.386389 A    
C18   C165  1.479976 S    
C108  C148  1.414430 A    
O50   C18   1.274699 A    
C163  C164  1.415401 A    
C84   C116  1.436122 A    
O29   C12   1.317173 A    
Zn1   O1    1.960628 S    
C42   C82   1.422375 A    
Zn13  O1    1.981840 S    
Zn2   O14   1.957051 S    
C8    C94   1.472162 S    
C64   C72   1.383427 A    
S3    O61   1.682390 S    
C58   C66   1.377728 A    
S8    O75   1.489663 D    
O9    C5    1.294712 A    
O39   C19   1.311356 A    
O36   C13   1.306654 A    
C50   C62   1.386024 A    
C27   I43   2.191686 S    
O13   C9    1.284695 A    
C142  C150  1.401519 A    
Zn1   O8    1.957007 S    
C146  I26   2.122366 S    
Zn2   O7    1.962810 S    
C87   C119  1.427465 A    
Zn3   O6    1.957575 S    
O18   C14   1.274809 A    
O31   C10   1.301780 A    
O6    C2    1.301458 A    
C25   C37   1.645607 S    
C47   H19   1.076179 S    
C129  C141  1.402414 A    
C171  C172  1.411336 A    
C156  I40   2.129675 S    
C32   I8    2.189322 S    
C159  C160  1.382180 A    
Zn14  O30   1.956962 S    
Zn15  O3    1.981840 S    
C67   H31   1.081138 S    
O41   C21   1.290618 A    
C29   I5    2.206734 S    
C80   C84   1.412677 A    
H1    C173  1.073724 S    
Zn16  O34   1.956962 S    
C31   I7    2.148517 S    
C48   C56   1.397510 A    
C13   C117  1.480478 S    
C29   C39   1.635302 S    
C49   I49   2.122984 S    
C49   C61   1.393459 A    
C121  I9    2.141867 S    
C140  C148  1.383398 A    
C147  I27   2.121611 S    
Zn8   O20   1.957619 S    
C124  I12   2.140616 S    
C2    C92   1.462245 S    
Zn11  O3    1.973558 S    
C179  I36   2.100023 S    
C29   I45   2.188579 S    
C163  C167  1.408044 A    
C31   I47   2.209974 S    
S4    O63   1.502680 D    
C3    C89   1.472768 S    
H3    C175  1.071949 S    
C92   C100  1.408788 A    
C32   I48   2.199959 S    
C93   C101  1.437733 A    
S5    O66   1.500738 D    
Zn8   O9    1.958258 S    
S1    O54   1.488709 D    
C143  C151  1.392631 A    
C136  I20   2.102213 S    
C35   S5    1.883846 S    
O7    C3    1.299546 A    
C132  I24   2.122087 S    
S3    O59   1.487906 D    
C126  I14   2.142863 S    
O19   C15   1.293379 A    
C24   C40   1.505284 S    
C26   C38   1.642083 S    
Zn9   O24   1.956706 S    
C169  C173  1.430253 A    
C36   C40   1.673304 S    
Zn10  O23   1.951670 S    
C171  C175  1.419982 A    
C85   C117  1.433593 A    
C25   I41   2.217163 S    
C98   C122  1.413246 A    
C83   C115  1.436640 A    
C168  C172  1.441634 A    
C127  C135  1.418582 A    
S7    O72   1.487173 D    
Zn15  O36   1.952299 S    
O15   C11   1.286159 A    
O42   C22   1.289158 A    
C43   H15   1.071122 S    
Zn4   O1    1.970301 S    
C41   H13   1.080694 S    
Zn9   O37   1.973822 S    
O12   C8    1.293614 A    
C77   C81   1.401018 A    
C134  I18   2.111800 S    
Zn11  O39   1.973822 S    
C110  C118  1.411316 A    
C112  C152  1.397910 A    
C173  C177  1.403643 A    
C30   I46   2.192173 S    
C70   C78   1.411667 A    
C43   C51   1.398542 A    
C9    C113  1.465338 S    
Zn2   O43   1.972993 S    
O51   C19   1.279229 A    
C153  C162  1.428012 A    
C41   C49   1.407466 A    
C100  C124  1.426032 A    
C27   C38   1.631592 S    
Zn5   O3    1.960628 S    
C48   H20   1.069436 S    
Zn6   O4    1.960627 S    
C33   C34   1.661423 S    
C55   C59   1.387676 A    
C104  C128  1.422654 A    
C25   I1    2.198253 S    
C62   C70   1.383341 A    
S6    O69   1.501836 D    
C63   H27   1.081099 S    
O28   C5    1.287813 A    
Zn3   O42   1.968159 S    
Zn6   O18   1.957051 S    
Zn7   O4    1.970303 S    
O21   C4    1.288614 A    
C141  C149  1.401502 A    
C74   C86   1.408799 A    
C68   C76   1.414308 A    
C139  C147  1.391655 A    
C69   C77   1.410896 A    
C77   C93   1.426761 A    
C44   C84   1.427016 A    
S6    O70   1.665249 S    
Zn6   O47   1.972993 S    
C72   C80   1.415660 A    
C26   I42   2.209363 S    
C7    C93   1.489641 S    
Zn14  O2    1.973251 S    
H9    C141  1.077836 S    
S7    O71   1.503468 D    
C129  I21   2.121106 S    
C60   C68   1.389496 A    
C61   C69   1.389178 A    
Zn13  O49   1.969549 S    
O44   C21   1.285370 A    
C16   C120  1.487197 S    
C167  C171  1.420043 A    
C59   C67   1.383220 A    
C66   H30   1.077329 S    
C111  C119  1.423377 A    
Zn12  O27   1.951670 S    
C103  C107  1.397812 A    
C144  C152  1.395793 A    
C36   S6    1.881619 S    
C21   C37   1.509941 S    
Zn3   O2    1.970303 S    
C23   C39   1.502630 S    
O46   C24   1.278561 A    
O47   C24   1.294784 A    
C125  C133  1.417939 A    
Zn16  O52   1.973866 S    
C161  C162  1.422709 A    
C58   H22   1.080187 S    
C36   S7    1.884158 S    
Zn8   O45   1.968156 S    
C65   C73   1.413837 A    
O27   C6    1.305828 A    
C41   C81   1.413750 A    
C128  C136  1.416419 A    
C79   C95   1.426595 A    
C80   C96   1.426927 A    
H7    C139  1.081134 S    
C30   I6    2.199372 S    
H2    C174  1.071745 S    
H5    C137  1.082547 S    
C29   C31   1.583235 S    
C122  I10   2.140927 S    
C97   C109  1.396568 A    
O24   C1    1.295997 A    
C127  I15   2.134870 S    
C45   H17   1.068911 S    
C128  I16   2.129452 S    
C162  C166  1.435765 A    
C133  C137  1.396784 A    
C177  C178  1.386224 A    
C104  C108  1.407876 A    
O43   C22   1.282449 A    
C4    C90   1.474245 S    
Zn4   O41   1.968156 S    
Zn3   O15   1.958300 S    
S3    O60   1.502581 D    
Zn5   O12   1.957007 S    
Zn6   O11   1.962810 S    
C106  C146  1.407481 A    
C82   C114  1.429241 A    
Zn9   O21   1.950577 S    
C34   S3    1.873432 S    
Zn14  O50   1.973866 S    
C156  C163  1.412940 A    
O35   C14   1.308172 A    
Zn12  O40   1.969507 S    
Zn9   O1    1.973558 S    
C51   I51   2.115141 S    
C64   H28   1.082963 S    
O52   C20   1.281556 A    
C79   C83   1.411705 A    
C22   C38   1.501769 S    
C15   C119  1.488723 S    
C179  C180  1.376755 A    
C71   H35   1.078592 S    
C34   C38   1.668672 S    
C45   C53   1.407200 A    
H11   C143  1.070971 S    
O22   C3    1.285292 A    
C107  C115  1.419630 A    
C170  C174  1.413379 A    
Zn7   O19   1.958300 S    
C177  I34   2.110717 S    
C176  C180  1.389929 A    
C105  C113  1.410461 A    
Zn2   O2    1.960627 S    
C54   C58   1.378617 A    
Zn13  O32   1.952299 S    
O49   C17   1.297369 A    
Zn14  O31   1.950830 S    
C30   C32   1.588101 S    
C109  C149  1.408574 A    
Zn4   O5    1.958258 S    
O17   C13   1.282364 A    
O20   C16   1.289896 A    
C31   C40   1.630564 S    
O10   C6    1.295976 A    
O23   C2    1.284778 A    
Zn11  O25   1.950577 S    
C1    C91   1.461750 S    
Zn10  O38   1.969507 S    
C78   C82   1.404996 A    
C135  I19   2.125186 S    
O14   C10   1.279863 A    
C75   C91   1.410179 A    
C108  C116  1.407171 A    
C25   C27   1.586094 S    
C174  C178  1.376929 A    
C137  C145  1.392878 A    
C48   C88   1.425128 A    
O58   H42   0.990691 S    
C154  C161  1.422805 A    
C110  C150  1.410841 A    
C42   C50   1.410668 A    
O45   C23   1.282126 A    
