data_mof_unit_6109.cif
_audit_creation_date              2012-12-10T17:47:44-0500
_audit_creation_method            fapswitch 2.2
_symmetry_space_group_name_H-M    P1
_symmetry_Int_Tables_number       1
_space_group_crystal_system       triclinic
_cell_length_a                    10.750441
_cell_length_b                    10.69608
_cell_length_c                    9.958617
_cell_angle_alpha                 89.32187
_cell_angle_beta                  88.875253
_cell_angle_gamma                 93.120006
_cell_volume                      1143.10405819

loop_
_atom_site_label
_atom_site_type_symbol
_atom_type_description
_atom_site_fract_x
_atom_site_fract_y
_atom_site_fract_z
_atom_type_partial_charge
C1    C     C_R   0.516296 0.261813 0.500053 0.858626
C2    C     C_R   0.530252 0.063250 0.624921 0.034024
C3    C     C_R   0.543942 0.129966 0.501549 -0.130675
C4    C     C_R   0.258126 0.504143 0.500409 0.943162
C5    C     C_R   0.561800 0.063629 0.380533 0.169788
C6    C     C_R   0.540375 0.935344 0.385030 -0.264036
C7    C     C_R   0.494643 0.874265 0.501658 -0.114539
C8    C     C_R   0.347924 0.324064 0.151452 -0.169856
C9    C     C_R   0.279813 0.225712 0.092664 0.119373
C10   C     C_R   0.280521 0.220236 0.954857 -0.347365
C11   C     C_R   0.343481 0.313211 0.874559 0.452175
C12   C     C_3   0.878670 0.504464 0.495649 0.023193
C13   C     C_R   0.424620 0.409266 0.932352 0.108685
C14   C     C_R   0.425708 0.411234 0.076777 0.040662
C15   C     C_R   0.568335 0.586365 0.068382 -0.097522
C16   C     C_R   0.493678 0.739856 0.500210 0.886187
C17   C     C_R   0.568888 0.585970 0.925825 -0.059898
C18   C     C_R   0.742154 0.503454 0.498525 0.834374
C19   C     C_3   0.066013 0.391225 0.578157 -0.486678
C20   C     C_3   0.922510 0.389906 0.581400 -0.071464
C21   C     C_3   0.076524 0.627538 0.565522 0.152717
C22   C     C_3   0.074980 0.503066 0.350945 0.273233
C23   C     C_3   0.932348 0.624021 0.567004 -0.477454
C24   C     C_3   0.121402 0.506635 0.498950 0.045684
C25   C     C_3   0.888793 0.584765 0.231217 -0.413919
C26   C     C_3   0.875100 0.722422 0.263710 -0.832937
C27   C     C_3   0.600526 0.120754 0.244116 -0.384869
C28   C     C_3   0.726989 0.191059 0.243485 -0.893883
C29   C     C_3   0.194495 0.133789 0.173878 -0.367045
C30   C     C_3   0.260291 0.068077 0.286549 -0.826324
C31   C     C_3   0.866328 0.259280 0.542956 -0.394825
C32   C     C_3   0.888575 0.158805 0.649286 -0.884140
C33   C     C_3   0.932737 0.497916 0.347340 -0.027988
C34   C     C_R   0.563644 0.115182 0.749581 -0.173042
C35   C     C_R   0.526686 0.054968 0.869152 -0.400664
C36   C     C_R   0.451351 0.943990 0.867309 0.484568
C37   C     C_R   0.422545 0.889272 0.744058 0.447423
C38   C     C_R   0.479298 0.940625 0.622792 -0.140088
H1    H     H_    0.098570 0.393432 0.683486 0.193976
H2    H     H_    0.625421 0.656533 0.870424 0.131733
H3    H     H_    0.892254 0.404513 0.687610 0.182890
H4    H     H_    0.109360 0.631258 0.671083 0.151535
H5    H     H_    0.898817 0.623441 0.673541 0.146725
H6    H     H_    0.114931 0.589481 0.298440 0.180992
H7    H     H_    0.902531 0.403131 0.312321 0.149254
H8    H     H_    0.794879 0.733315 0.333539 0.254212
H9    H     H_    0.962448 0.764630 0.305006 0.291008
H10   H     H_    0.855731 0.774320 0.169836 0.231201
H11   H     H_    0.955466 0.581197 0.144665 0.184847
H12   H     H_    0.897949 0.710969 0.523904 0.199657
H13   H     H_    0.800645 0.545953 0.188810 0.227499
H14   H     H_    0.104381 0.808061 0.548450 0.335529
H15   H     H_    0.723437 0.274615 0.306809 0.271652
H16   H     H_    0.798774 0.128398 0.279055 0.255714
H17   H     H_    0.752607 0.222980 0.139565 0.240799
H18   H     H_    0.608628 0.046093 0.168670 0.177337
H19   H     H_    0.529134 0.180667 0.205038 0.236554
H20   H     H_    0.437161 0.933986 0.061437 0.310148
H21   H     H_    0.298484 0.785478 0.654742 0.331205
H22   H     H_    0.338115 0.016602 0.244502 0.266072
H23   H     H_    0.620222 0.201591 0.755812 0.185384
H24   H     H_    0.295193 0.136081 0.362038 0.249938
H25   H     H_    0.193752 0.999550 0.338236 0.260119
H26   H     H_    0.115213 0.182253 0.217560 0.243237
H27   H     H_    0.152980 0.060101 0.107956 0.213332
H28   H     H_    0.265715 0.236428 0.716966 0.302836
H29   H     H_    0.989428 0.143570 0.657771 0.255495
H30   H     H_    0.851213 0.186233 0.748758 0.251150
H31   H     H_    0.840228 0.069008 0.620340 0.259767
H32   H     H_    0.764717 0.263026 0.533020 0.197413
H33   H     H_    0.907420 0.229683 0.446298 0.229837
H34   H     H_    0.550734 0.099456 0.962335 0.156778
H35   H     H_    0.106571 0.414510 0.186403 0.324799
H36   H     H_    0.557914 0.882443 0.295079 0.166521
H37   H     H_    0.623569 0.658050 0.119296 0.138489
H38   H     H_    0.100903 0.305146 0.531999 0.224762
H39   H     H_    0.336331 0.330469 0.256536 0.266184
H40   H     H_    0.222746 0.147343 0.908333 0.154140
N1    N     N_R   0.498810 0.498800 0.142780 -0.105471
N2    N     N_R   0.498760 0.498720 0.857170 -0.094188
O1    O     O_R   0.500000 0.316780 0.614690 -0.563415
O2    O     O_3   0.403399 0.887412 0.983734 -0.729544
O3    O     O_3   0.332687 0.792225 0.745830 -0.716862
O4    O     O_3   0.314601 0.313764 0.742187 -0.721290
O5    O     O_3   0.116918 0.398443 0.283913 -0.830151
O6    O     O_R   0.499990 0.316750 0.385360 -0.651442
O7    O     O_R   0.314800 0.499990 0.614670 -0.551833
O8    O     O_R   0.314790 0.499970 0.385330 -0.607831
O9    O     O_R   0.500010 0.683250 0.614640 -0.594951
O10   O     O_R   0.500000 0.683220 0.385310 -0.618852
O11   O     O_R   0.685210 0.500030 0.614670 -0.646391
O12   O     O_R   0.685200 0.500010 0.385330 -0.634269
O13   O     O_3   0.125681 0.734234 0.494814 -0.821007
Zn1   Zn    Zn3+2 0.500010 0.500020 0.653130 0.998078
Zn2   Zn    Zn3+2 0.499990 0.499980 0.346870 0.944038

loop_
_geom_bond_atom_site_label_1
_geom_bond_atom_site_label_2
_ccdc_geom_bond_type
C15   H37   S    
C16   O10   A    
C33   H7    S    
C35   C36   A    
C20   H3    S    
C10   H40   S    
O10   Zn2   S    
C4    O7    A    
C12   C23   S    
C29   C30   S    
C13   N2    A    
C18   O11   A    
C19   H38   S    
H21   O3    S    
H20   O2    S    
C5    C6    A    
C4    C24   S    
C1    O1    A    
O7    Zn1   S    
C23   H5    S    
C34   C35   A    
C22   O5    S    
O9    Zn1   S    
C5    C27   S    
C31   H32   S    
C15   N1    A    
C19   C20   S    
C36   O2    S    
C8    C9    A    
C30   H22   S    
C9    C10   A    
C26   H10   S    
C32   H30   S    
C2    C34   A    
C31   H33   S    
C29   H26   S    
C16   O9    A    
C13   C14   A    
C28   H17   S    
C6    H36   S    
C22   H6    S    
C27   H19   S    
C28   H16   S    
C27   H18   S    
C23   H12   S    
C25   C26   S    
C17   N2    A    
C1    C3    S    
C17   H2    S    
C25   H13   S    
N1    Zn2   S    
C37   C38   A    
C2    C38   A    
C31   C32   S    
C12   C20   S    
H14   O13   S    
C14   N1    A    
H35   O5    S    
C32   H31   S    
C19   H1    S    
C26   H9    S    
C32   H29   S    
C29   H27   S    
C7    C16   S    
C35   H34   S    
C30   H24   S    
C8    H39   S    
C22   C24   S    
N2    Zn1   S    
C1    O6    A    
C15   C17   A    
C22   C33   S    
C36   C37   A    
C8    C14   A    
C3    C5    A    
C28   H15   S    
C6    C7    A    
C4    O8    A    
C9    C29   S    
C11   O4    S    
C18   O12   A    
C21   C23   S    
C19   C24   S    
O11   Zn1   S    
O1    Zn1   S    
C11   C13   A    
C21   O13   S    
O6    Zn2   S    
C7    C38   A    
C2    C3    A    
O12   Zn2   S    
C25   H11   S    
O8    Zn2   S    
C10   C11   A    
C26   H8    S    
H28   O4    S    
C21   H4    S    
C34   H23   S    
C21   C24   S    
C12   C18   S    
C27   C28   S    
C37   O3    S    
C12   C33   S    
C30   H25   S    
C25   C33   S    
C20   C31   S    
