data_mof_unit_60531.cif
_audit_creation_date              2013-03-05T16:27:20-0500
_audit_creation_method            fapswitch 2.2
_symmetry_space_group_name_H-M    P1
_symmetry_Int_Tables_number       1
_space_group_crystal_system       triclinic
_cell_length_a                    28.551546
_cell_length_b                    18.256526
_cell_length_c                    21.625381
_cell_angle_alpha                 89.014085
_cell_angle_beta                  140.278596
_cell_angle_gamma                 90.807902
_cell_volume                      7202.53222955

loop_
_atom_site_label
_atom_site_type_symbol
_atom_site_description
_atom_site_fract_x
_atom_site_fract_y
_atom_site_fract_z
_atom_type_partial_charge
O1    O     O_R   0.892670 0.439420 0.892670 -0.630911
O2    O     O_R   0.107330 0.560580 0.107330 -0.567522
O3    O     O_R   0.107330 0.439420 0.107330 -0.626631
O4    O     O_R   0.892670 0.560580 0.892670 -0.575353
O5    O     O_R   0.392670 0.939420 0.892670 -0.631070
O6    O     O_R   0.607330 0.060580 0.107330 -0.569033
O7    O     O_R   0.607330 0.939420 0.107330 -0.625331
O8    O     O_R   0.392670 0.060580 0.892670 -0.575993
C1    C     C_R   0.858817 0.499821 0.860505 0.944007
C2    C     C_R   0.141231 0.500060 0.140406 0.956195
C3    C     C_R   0.358817 0.999821 0.860505 0.943130
C4    C     C_R   0.641221 0.000060 0.140165 0.962148
O9    O     O_R   0.999990 0.439420 0.908380 -0.623213
O10   O     O_R   0.000010 0.560580 0.091620 -0.607470
O11   O     O_R   0.000010 0.439420 0.091620 -0.629965
O12   O     O_R   0.999990 0.560580 0.908380 -0.569970
O13   O     O_R   0.499990 0.939420 0.908380 -0.623710
O14   O     O_R   0.500010 0.060580 0.091620 -0.610863
O15   O     O_R   0.500010 0.939420 0.091620 -0.626991
O16   O     O_R   0.499990 0.060580 0.908380 -0.570741
C5    C     C_R   0.996256 0.500975 0.875658 0.888688
C6    C     C_R   0.008451 0.499416 0.128720 0.925529
C7    C     C_R   0.496247 0.000975 0.875649 0.888305
C8    C     C_R   0.507429 0.999419 0.127710 0.931011
Zn1   Zn    Zn3+2 1.000000 0.419100 0.000000 1.037659
Zn2   Zn    Zn3+2 0.000000 0.580900 0.000000 1.142751
Zn3   Zn    Zn3+2 0.500000 0.919100 0.000000 1.039337
Zn4   Zn    Zn3+2 0.500000 0.080900 0.000000 1.137296
H1    H     H_    0.113608 0.491358 0.926787 0.174307
H2    H     H_    0.983220 0.385128 0.177875 0.207717
H3    H     H_    0.613596 0.991374 0.926775 0.173923
H4    H     H_    0.465825 0.890679 0.159605 0.206992
C9    C     C_R   0.860719 0.520201 0.660621 0.165373
C10   C     C_R   0.085533 0.618279 0.280190 0.230983
C11   C     C_R   0.360699 0.020162 0.660612 0.165486
C12   C     C_R   0.592819 0.112291 0.287217 0.229062
C13   C     C_R   0.796382 0.493346 0.566736 0.228563
C14   C     C_R   0.090248 0.685980 0.315729 0.222156
C15   C     C_R   0.296364 0.993253 0.566760 0.227456
C16   C     C_R   0.603208 0.179368 0.328599 0.224855
C17   C     C_R   0.802729 0.445790 0.523528 -0.239166
C18   C     C_R   0.047249 0.696869 0.324543 -0.248021
C19   C     C_R   0.302723 0.945671 0.523579 -0.239107
C20   C     C_R   0.561831 0.193439 0.339384 -0.245501
H5    H     H_    0.754216 0.420487 0.455168 0.249470
H6    H     H_    0.044195 0.750595 0.341754 0.227582
H7    H     H_    0.254216 0.920280 0.455278 0.248809
H8    H     H_    0.562852 0.247291 0.360648 0.227663
C21   C     C_R   0.870521 0.433932 0.564626 0.274004
C22   C     C_R   0.009403 0.638667 0.313781 0.203659
C23   C     C_R   0.370512 0.933884 0.564637 0.274091
C24   C     C_R   0.520117 0.138154 0.324894 0.202529
C25   C     C_R   0.933902 0.468474 0.652515 -0.035451
C26   C     C_R   0.015354 0.567607 0.295449 -0.045310
C27   C     C_R   0.433886 0.968464 0.652502 -0.034357
C28   C     C_R   0.520617 0.066959 0.300989 -0.043534
C29   C     C_R   0.930223 0.498521 0.708018 -0.093934
C30   C     C_R   0.041098 0.561045 0.260818 -0.068512
C31   C     C_R   0.430207 0.998506 0.708005 -0.094122
C32   C     C_R   0.544317 0.058652 0.263977 -0.064627
C33   C     C_R   0.996286 0.503075 0.808953 -0.061824
C34   C     C_R   0.019414 0.497797 0.206452 -0.100359
C35   C     C_R   0.496272 0.003075 0.808940 -0.061639
C36   C     C_R   0.516159 0.997827 0.203089 -0.098308
C37   C     C_R   0.063682 0.491525 0.848840 -0.243417
C38   C     C_R   0.996727 0.434832 0.215826 -0.221341
C39   C     C_R   0.563668 0.991533 0.848827 -0.244610
C40   C     C_R   0.485145 0.938305 0.203673 -0.234718
C41   C     C_R   0.067322 0.479139 0.789423 0.311742
C42   C     C_R   0.988294 0.435719 0.270816 0.281249
C43   C     C_R   0.567309 0.979144 0.789413 0.311686
C44   C     C_R   0.479387 0.939009 0.261496 0.298822
C45   C     C_R   0.001275 0.473686 0.688532 -0.183494
C46   C     C_R   0.996004 0.502925 0.308951 -0.154403
C47   C     C_R   0.501264 0.973686 0.688522 -0.182646
C48   C     C_R   0.496503 0.004059 0.309617 -0.168667
C49   C     C_1   0.782324 0.499399 0.784761 -0.096185
C50   C     C_1   0.217685 0.500158 0.216294 -0.089297
C51   C     C_1   0.282324 0.999398 0.784763 -0.095093
C52   C     C_1   0.717682 0.000149 0.216121 -0.083353
C53   C     C_1   0.717509 0.499450 0.719400 -0.109439
C54   C     C_1   0.282484 0.500149 0.281083 -0.117414
C55   C     C_1   0.217509 0.999449 0.719402 -0.108898
C56   C     C_1   0.782483 0.000143 0.281020 -0.114966
O17   O     O_R   0.060590 0.607350 0.560620 -0.620784
O18   O     O_R   0.939410 0.392650 0.439380 -0.570094
O19   O     O_R   0.939410 0.607350 0.439380 -0.589765
O20   O     O_R   0.060590 0.392650 0.560620 -0.612995
O21   O     O_R   0.560590 0.107350 0.560620 -0.621642
O22   O     O_R   0.439410 0.892650 0.439380 -0.583381
O23   O     O_R   0.439410 0.107350 0.439380 -0.591189
O24   O     O_R   0.560590 0.892650 0.560620 -0.604683
C57   C     C_R   0.000165 0.641185 0.502351 0.951762
C58   C     C_R   0.999948 0.358727 0.499490 0.967418
C59   C     C_R   0.500180 0.141148 0.502869 0.952875
C60   C     C_R   0.499969 0.858704 0.500436 0.993455
O25   O     O_R   0.060610 0.500000 0.652240 -0.578852
O26   O     O_R   0.939390 0.500000 0.347760 -0.555762
O27   O     O_R   0.560610 0.000000 0.652240 -0.581140
O28   O     O_R   0.439390 0.000000 0.347760 -0.583159
O29   O     O_R   0.939430 0.500000 0.531050 -0.610486
O30   O     O_R   0.060570 0.500000 0.468950 -0.624290
O31   O     O_R   0.439430 0.000000 0.531050 -0.609827
O32   O     O_R   0.560570 0.000000 0.468950 -0.608524
C61   C     C_R   0.000614 0.488898 0.620776 0.904199
C62   C     C_R   0.998944 0.501936 0.378442 0.957547
C63   C     C_R   0.500612 0.988902 0.620775 0.900274
C64   C     C_R   0.499012 0.002760 0.378585 0.980899
Zn5   Zn    Zn3+2 0.080920 0.500000 0.580940 1.097019
Zn6   Zn    Zn3+2 0.919080 0.500000 0.419060 1.121284
Zn7   Zn    Zn3+2 0.580920 0.000000 0.580940 1.103924
Zn8   Zn    Zn3+2 0.419080 0.000000 0.419060 1.107454
O33   O     O_R   0.500010 0.607330 0.448300 -0.588269
O34   O     O_R   0.499990 0.392670 0.551700 -0.620547
O35   O     O_R   0.499990 0.607330 0.551700 -0.608454
O36   O     O_R   0.500010 0.392670 0.448300 -0.595572
O37   O     O_R   0.000010 0.107330 0.448300 -0.588563
O38   O     O_R   0.999990 0.892670 0.551700 -0.619271
O39   O     O_R   0.999990 0.107330 0.551700 -0.607030
O40   O     O_R   0.000010 0.892670 0.448300 -0.597853
C65   C     C_R   0.499945 0.641025 0.499528 0.914096
C66   C     C_R   0.500129 0.358967 0.500656 0.901913
C67   C     C_R   0.999939 0.141029 0.499491 0.914849
C68   C     C_R   0.000111 0.858970 0.500611 0.901926
O41   O     O_R   0.607330 0.500000 0.555630 -0.565040
O42   O     O_R   0.392670 0.500000 0.444370 -0.594593
O43   O     O_R   0.107330 0.000000 0.555630 -0.564759
O44   O     O_R   0.892670 0.000000 0.444370 -0.592434
O45   O     O_R   0.607340 0.500000 0.659080 -0.628065
O46   O     O_R   0.392660 0.500000 0.340920 -0.612072
O47   O     O_R   0.107340 0.000000 0.659080 -0.627842
O48   O     O_R   0.892660 0.000000 0.340920 -0.613163
C69   C     C_R   0.641029 0.499796 0.641598 0.905897
C70   C     C_R   0.358969 0.500063 0.358467 0.911667
C71   C     C_R   0.141029 0.999796 0.641598 0.905317
C72   C     C_R   0.858969 0.000062 0.358459 0.911179
Zn9   Zn    Zn3+2 0.500000 0.500000 0.430940 1.133887
Zn10  Zn    Zn3+2 0.500000 0.500000 0.569060 1.057431
Zn11  Zn    Zn3+2 0.000000 0.000000 0.430940 1.135296
Zn12  Zn    Zn3+2 0.000000 0.000000 0.569060 1.061217
C73   C     C_1   0.000391 0.717690 0.502730 -0.118566
C74   C     C_1   0.999844 0.282291 0.498756 -0.072967
C75   C     C_1   0.500432 0.217676 0.503229 -0.115268
C76   C     C_1   0.499867 0.782262 0.499439 -0.058477
C77   C     C_1   0.500368 0.282483 0.502253 -0.129087
C78   C     C_1   0.499870 0.717494 0.498876 -0.105151
C79   C     C_1   0.000327 0.782490 0.502014 -0.131405
C80   C     C_1   0.999852 0.217508 0.498615 -0.103260
N1    N     N_R   0.855992 0.576632 0.701174 0.221107
O49   O     O_R   0.803553 0.576270 0.688550 -0.358934
O50   O     O_R   0.896082 0.635277 0.735451 -0.329162
N2    N     N_R   0.130431 0.605679 0.272490 0.227319
O51   O     O_R   0.135706 0.655147 0.234010 -0.311464
O52   O     O_R   0.168685 0.545802 0.307793 -0.403009
N3    N     N_R   0.355961 0.076610 0.701141 0.221247
O53   O     O_R   0.303524 0.076257 0.688520 -0.359279
O54   O     O_R   0.396053 0.135253 0.735412 -0.329842
N4    N     N_R   0.635966 0.096339 0.277463 0.221942
O55   O     O_R   0.646042 0.145920 0.244571 -0.313996
O56   O     O_R   0.669824 0.033870 0.308367 -0.405699
N5    N     N_R   0.724583 0.514831 0.513494 0.247286
O57   O     O_R   0.707236 0.583919 0.496609 -0.286836
O58   O     O_R   0.672777 0.466034 0.465887 -0.338611
N6    N     N_R   0.138232 0.743698 0.343281 0.245423
O59   O     O_R   0.205522 0.728965 0.396292 -0.286776
O60   O     O_R   0.119192 0.811855 0.330125 -0.336320
N7    N     N_R   0.224560 0.014712 0.513520 0.247468
O61   O     O_R   0.207178 0.083793 0.496573 -0.283505
O62   O     O_R   0.172778 0.965893 0.465967 -0.334159
N8    N     N_R   0.655052 0.233368 0.359680 0.247662
O63   O     O_R   0.721272 0.213844 0.412199 -0.283993
O64   O     O_R   0.640619 0.302761 0.350374 -0.342849
Br1   Br    Br    0.875111 0.357791 0.509190 -0.394892
Br2   Br    Br    0.933875 0.664081 0.294114 -0.468954
Br3   Br    Br    0.375120 0.857765 0.509209 -0.404652
Br4   Br    Br    0.445654 0.168811 0.305287 -0.477427
N9    N     N_R   0.137721 0.467376 0.833069 0.227015
O65   O     O_R   0.147651 0.411431 0.807614 -0.346247
O66   O     O_R   0.194567 0.504034 0.909436 -0.349870
N10   N     N_R   0.970072 0.368618 0.284765 0.193295
O67   O     O_R   0.918992 0.367401 0.274848 -0.368992
O68   O     O_R   0.996798 0.306743 0.293255 -0.342646
N11   N     N_R   0.637710 0.967379 0.833062 0.227083
O69   O     O_R   0.647643 0.911429 0.807617 -0.347387
O70   O     O_R   0.694554 0.004043 0.909425 -0.351061
N12   N     N_R   0.454673 0.874187 0.268800 0.213585
O71   O     O_R   0.491991 0.848265 0.353337 -0.404213
O72   O     O_R   0.402964 0.834123 0.192826 -0.345916

loop_
_geom_bond_atom_site_label_1
_geom_bond_atom_site_label_2
_geom_bond_distance
_ccdc_geom_bond_type
C30   C34   1.416233 A    
O1    Zn1   1.994106 S    
O4    C1    1.269078 A    
O14   Zn4   2.009248 S    
C47   C63   1.472424 S    
O12   C5    1.266264 A    
C28   C48   1.412603 A    
C27   C31   1.403848 A    
O21   C59   1.266967 A    
N3    O54   1.301346 A    
O22   Zn8   1.995258 S    
C44   C48   1.405677 A    
C19   C23   1.393665 A    
C16   N8    1.437315 S    
N5    O57   1.301193 A    
C2    C50   1.395487 S    
N7    O62   1.301244 A    
O19   Zn6   1.994031 S    
O46   C70   1.277041 A    
O48   Zn11  2.001097 S    
H3    C39   1.084894 S    
O13   C7    1.278643 A    
O36   C66   1.276982 A    
O26   Zn6   2.022156 S    
O39   Zn12  1.988719 S    
C36   C40   1.398083 A    
N6    O59   1.301349 A    
O18   Zn6   1.995258 S    
C11   N3    1.437297 S    
C14   C18   1.396874 A    
O17   Zn5   1.995256 S    
N1    O50   1.301344 A    
O6    C4    1.267868 A    
C21   C25   1.415257 A    
O48   C72   1.276902 A    
O11   Zn1   2.021796 S    
C39   C43   1.388865 A    
C6    C34   1.453831 S    
N8    O63   1.301329 A    
O19   C57   1.268822 A    
O24   C60   1.267236 A    
O7    Zn3   1.992886 S    
C11   C31   1.422851 A    
C18   H6    1.083090 S    
C66   C77   1.396154 S    
O47   Zn12  2.001094 S    
O18   C58   1.267685 A    
C41   N9    1.436616 S    
O5    Zn3   1.994106 S    
O17   C57   1.266830 A    
O11   C6    1.275478 A    
O42   Zn10  1.987543 S    
O45   Zn10  2.001094 S    
N9    O66   1.301387 A    
C42   C46   1.407811 A    
O35   Zn10  1.988719 S    
C41   C45   1.413951 A    
O15   Zn3   2.021796 S    
C24   Br4   1.910930 S    
C5    C33   1.443030 S    
C12   N4    1.434889 S    
H4    C40   1.083882 S    
C27   C47   1.417329 A    
C20   C24   1.392224 A    
C7    C35   1.443019 S    
O37   C67   1.277094 A    
C48   C64   1.436891 S    
C26   C46   1.415220 A    
N4    O56   1.301085 A    
O9    Zn1   2.009248 S    
O37   Zn11  2.001401 S    
O43   Zn11  1.987542 S    
O38   Zn12  2.001402 S    
C17   C21   1.393560 A    
N5    O58   1.301250 A    
N10   O68   1.301413 A    
N3    O53   1.298937 A    
O20   C58   1.267225 A    
O29   C61   1.280577 A    
O7    C4    1.267278 A    
C68   C79   1.396059 S    
C35   C39   1.393939 A    
O28   C64   1.264045 A    
C34   C38   1.398245 A    
C52   C56   1.182523 T    
C58   C74   1.395756 S    
C43   N11   1.436620 S    
C12   C16   1.416881 A    
O1    C1    1.266270 A    
C76   C78   1.182716 T    
N7    O61   1.301198 A    
C25   C29   1.403859 A    
C21   Br1   1.921138 S    
C15   C19   1.397401 A    
O16   Zn4   2.021796 S    
O41   Zn9   1.987542 S    
O29   Zn6   2.009529 S    
O22   C60   1.267742 A    
C9    C13   1.417194 A    
C28   C32   1.400640 A    
O31   Zn8   2.009529 S    
O13   Zn3   2.009248 S    
O23   Zn8   1.994031 S    
C54   C70   1.395574 S    
C11   C15   1.417224 A    
N11   O69   1.301606 A    
C74   C80   1.182772 T    
C60   C76   1.396027 S    
N11   O70   1.301387 A    
O25   Zn5   2.022157 S    
C50   C54   1.182526 T    
C45   C61   1.472416 S    
O16   C7    1.266263 A    
C49   C53   1.182659 T    
C40   C44   1.381196 A    
O27   Zn7   2.022157 S    
O9    C5    1.278640 A    
O2    Zn2   1.994104 S    
O40   Zn11  1.988722 S    
O38   C68   1.276124 A    
O10   Zn2   2.009248 S    
C23   Br3   1.921033 S    
C20   H8    1.083062 S    
C44   N12   1.436942 S    
H2    C38   1.083769 S    
C3    C51   1.396341 S    
C18   C22   1.392862 A    
O45   C69   1.275799 A    
O20   Zn5   1.994033 S    
O44   C72   1.275713 A    
N2    O52   1.301152 A    
O28   Zn8   2.022156 S    
O5    C3    1.266269 A    
N4    O55   1.301276 A    
O8    Zn4   1.992888 S    
O14   C8    1.274010 A    
C31   C35   1.413345 A    
N12   O72   1.301349 A    
O2    C2    1.267751 A    
O32   C64   1.275143 A    
C57   C73   1.396768 S    
N10   O67   1.300614 A    
C13   N5    1.434616 S    
O36   Zn9   1.988722 S    
C26   C30   1.402794 A    
O41   C69   1.276791 A    
C75   C77   1.182976 T    
C56   C72   1.395577 S    
C9    C29   1.422844 A    
C10   C14   1.416081 A    
C55   C71   1.395481 S    
C53   C69   1.395479 S    
C25   C45   1.417245 A    
C59   C75   1.397174 S    
C43   C47   1.413952 A    
O43   C71   1.276794 A    
C12   C32   1.427337 A    
O12   Zn2   2.021796 S    
O32   Zn7   2.009529 S    
O4    Zn2   1.992888 S    
H1    C37   1.084885 S    
C29   C33   1.413326 A    
O39   C67   1.275467 A    
O27   C63   1.280794 A    
O21   Zn7   1.995256 S    
O47   C71   1.275796 A    
O26   C62   1.263433 A    
C32   C36   1.417709 A    
C10   N2    1.435943 S    
C22   Br2   1.912332 S    
O33   Zn9   2.001401 S    
O10   C6    1.275927 A    
N6    O60   1.301458 A    
O15   C8    1.273735 A    
C1    C49   1.396343 S    
O25   C61   1.280742 A    
O24   Zn7   1.994033 S    
C22   C26   1.412999 A    
O3    C2    1.267331 A    
C9    N1    1.437285 S    
N1    O49   1.298939 A    
C51   C55   1.182657 T    
C42   N10   1.439833 S    
C38   C42   1.383321 A    
N8    O64   1.301413 A    
O8    C3    1.269083 A    
C37   C41   1.388888 A    
C4    C52   1.395589 S    
C14   N6    1.437877 S    
O30   C62   1.276592 A    
C23   C27   1.415331 A    
C46   C62   1.439006 S    
O34   Zn10  2.001402 S    
C33   C37   1.393943 A    
C13   C17   1.397375 A    
C73   C79   1.182872 T    
O23   C59   1.269110 A    
O34   C66   1.275646 A    
C15   N7    1.434634 S    
C24   C28   1.411337 A    
O6    Zn4   1.994104 S    
C16   C20   1.396613 A    
O3    Zn1   1.992886 S    
O33   C65   1.277621 A    
C67   C80   1.396044 S    
O42   C70   1.275567 A    
C8    C36   1.446986 S    
N9    O65   1.301603 A    
O35   C65   1.274867 A    
C10   C30   1.427216 A    
C17   H5    1.082992 S    
C65   C78   1.395904 S    
O30   Zn5   2.009529 S    
O31   C63   1.280542 A    
N2    O51   1.301470 A    
N12   O71   1.299742 A    
O46   Zn9   2.001097 S    
C19   H7    1.083157 S    
O40   C68   1.276456 A    
O44   Zn12  1.987543 S    
