data_mof_unit_16798.cif
_audit_creation_date              2012-12-10T17:15:11-0500
_audit_creation_method            fapswitch 2.2
_symmetry_space_group_name_H-M    P1
_symmetry_Int_Tables_number       1
_space_group_crystal_system       triclinic
_cell_length_a                    10.178002
_cell_length_b                    10.450881
_cell_length_c                    12.847331
_cell_angle_alpha                 90.432083
_cell_angle_beta                  90.929619
_cell_angle_gamma                 94.184015
_cell_volume                      1362.68527327

loop_
_atom_site_label
_atom_site_type_symbol
_atom_type_description
_atom_site_fract_x
_atom_site_fract_y
_atom_site_fract_z
_atom_type_partial_charge
C1    C     C_R   0.446116 0.265471 0.498369 0.927465
C2    C     C_R   0.676059 0.543878 0.040860 -0.242699
C3    C     C_R   0.335974 0.479995 0.853217 -0.221424
C4    C     C_R   0.666134 0.529837 0.147683 -0.211333
C5    C     C_R   0.571145 0.537464 0.871715 -0.280781
C6    C     C_R   0.430422 0.475629 0.128062 -0.285718
C7    C     C_R   0.562651 0.525226 0.978122 0.179939
C8    C     C_R   0.439029 0.490417 0.022219 0.179677
C9    C     C_2   0.418937 0.128888 0.513724 -0.417633
C10   C     C_2   0.571186 0.870970 0.535231 -0.431447
C11   C     C_2   0.483829 0.068987 0.589281 -0.007643
C12   C     C_R   0.551807 0.734566 0.512187 0.926140
C13   C     C_2   0.478995 0.930192 0.588267 -0.001986
C14   C     C_R   0.375314 0.862529 0.651303 0.173938
C15   C     C_R   0.402335 0.833722 0.755588 -0.190063
C16   C     C_R   0.302016 0.780925 0.818560 -0.124844
C17   C     C_R   0.175137 0.753655 0.777161 -0.119082
C18   C     C_R   0.147643 0.782056 0.673304 -0.152944
C19   C     C_R   0.246828 0.838297 0.610833 -0.090412
C20   C     C_R   0.549786 0.135611 0.680150 0.174039
C21   C     C_R   0.475051 0.165892 0.766564 -0.200939
C22   C     C_R   0.537725 0.213785 0.857811 -0.121284
C23   C     C_2   0.068112 0.470992 0.490491 0.163898
C24   C     C_R   0.674869 0.234689 0.862456 -0.100675
C25   C     C_R   0.749712 0.205870 0.776289 -0.169996
C26   C     C_R   0.687658 0.154945 0.685638 -0.102150
C27   C     C_3   0.890629 0.712471 0.410369 -0.753963
C28   C     C_3   0.113675 0.337483 0.639453 -0.752139
C29   C     C_2   0.926334 0.500669 0.480449 0.158058
C30   C     C_R   0.474512 0.505761 0.698605 0.877201
C31   C     C_R   0.526037 0.496238 0.301424 0.872422
C32   C     C_R   0.542865 0.497539 0.190845 -0.049729
C33   C     C_R   0.458887 0.510581 0.809254 -0.021029
C34   C     C_R   0.325748 0.470391 0.959924 -0.262211
H1    H     H_    0.335341 0.448652 0.161702 0.157149
H2    H     H_    0.137572 0.638073 0.431193 0.145903
H3    H     H_    0.500300 0.854485 0.788501 0.136800
H4    H     H_    0.322941 0.760220 0.899310 0.148207
H5    H     H_    0.098050 0.711070 0.825686 0.118383
H6    H     H_    0.049166 0.761749 0.641668 0.117174
H7    H     H_    0.223848 0.862547 0.531105 0.109494
H8    H     H_    0.368781 0.148783 0.764220 0.131859
H9    H     H_    0.479959 0.234608 0.924983 0.147451
H10   H     H_    0.723124 0.272719 0.932966 0.129975
H11   H     H_    0.855874 0.221127 0.780510 0.116260
H12   H     H_    0.666043 0.563200 0.837375 0.154973
H13   H     H_    0.746744 0.129772 0.620236 0.113139
H14   H     H_    0.928938 0.550109 0.325251 0.187163
H15   H     H_    0.977844 0.760624 0.372314 0.186609
H16   H     H_    0.893706 0.738674 0.494413 0.237146
H17   H     H_    0.801809 0.749524 0.373546 0.243177
H18   H     H_    0.039313 0.273729 0.494999 0.193711
H19   H     H_    0.214315 0.309675 0.658311 0.256137
H20   H     H_    0.042729 0.261146 0.669104 0.187029
H21   H     H_    0.095974 0.428804 0.680003 0.219369
H22   H     H_    0.753284 0.547792 0.196340 0.161535
H23   H     H_    0.248738 0.461250 0.805646 0.159554
H24   H     H_    0.230407 0.444897 0.993398 0.140277
H25   H     H_    0.771381 0.569809 0.007535 0.134722
H26   H     H_    0.654325 0.925763 0.501114 0.139636
H27   H     H_    0.356590 0.074630 0.457025 0.140498
H28   H     H_    0.867988 0.394415 0.602899 0.153186
N1    N     N_2   0.162330 0.550370 0.457540 -0.199227
N2    N     N_2   0.837670 0.449630 0.542460 -0.205353
N3    N     N_2   0.886758 0.574755 0.394338 -0.248656
N4    N     N_2   0.098159 0.348458 0.527759 -0.248736
O1    O     O_R   0.567930 0.307680 0.508550 -0.597836
O2    O     O_R   0.432070 0.692320 0.491450 -0.599156
O3    O     O_R   0.351090 0.340020 0.481290 -0.574813
O4    O     O_R   0.648910 0.659980 0.518710 -0.589680
O5    O     O_R   0.590490 0.486480 0.665020 -0.612627
O6    O     O_R   0.409510 0.513520 0.334980 -0.618401
O7    O     O_R   0.373660 0.518820 0.637760 -0.600042
O8    O     O_R   0.626340 0.481180 0.362240 -0.590771
Zn1   Zn    Zn3+2 0.644780 0.478400 0.518200 0.947790
Zn2   Zn    Zn3+2 0.355220 0.521600 0.481800 0.950340

loop_
_geom_bond_atom_site_label_1
_geom_bond_atom_site_label_2
_ccdc_geom_bond_type
C28   N4    S    
C28   H19   S    
C24   C25   A    
C27   N3    S    
C25   H11   S    
H14   N3    S    
O2    Zn2   S    
H2    N1    S    
C11   C13   S    
C5    H12   S    
C2    C4    A    
C31   C32   S    
C14   C15   A    
C27   H16   S    
O6    Zn2   S    
C22   C24   A    
C23   N1    D    
C30   O5    A    
C25   C26   A    
C29   N2    D    
C1    C9    S    
C7    C8    A    
C8    C34   A    
C13   C14   S    
C20   C21   A    
O5    Zn1   S    
C12   O2    A    
C19   H7    S    
C4    C32   A    
C2    H25   S    
C20   C26   A    
C26   H13   S    
C29   N3    S    
C23   C29   S    
C23   N4    S    
C31   O6    A    
C1    O1    A    
C28   H21   S    
C27   H17   S    
C17   C18   A    
C10   C12   S    
C12   O4    A    
C9    C11   D    
C6    C8    A    
C17   H5    S    
C24   H10   S    
O7    Zn2   S    
C9    H27   S    
C11   C20   S    
O1    Zn1   S    
N1    Zn2   S    
C3    C33   A    
C27   H15   S    
C15   C16   A    
C3    H23   S    
C1    O3    A    
H18   N4    S    
C6    H1    S    
O3    Zn2   S    
C5    C7    A    
C18   C19   A    
O8    Zn1   S    
O4    Zn1   S    
C34   H24   S    
C30   O7    A    
C28   H20   S    
C10   H26   S    
C15   H3    S    
C31   O8    A    
H28   N2    S    
C21   H8    S    
C30   C33   S    
C18   H6    S    
C3    C34   A    
C21   C22   A    
C14   C19   A    
N2    Zn1   S    
C22   H9    S    
C4    H22   S    
C2    C7    A    
C16   H4    S    
C16   C17   A    
C6    C32   A    
C10   C13   D    
C5    C33   A    
