data_mof_unit_62100.cif
_audit_creation_date              2012-12-10T19:29:31-0500
_audit_creation_method            fapswitch 2.2
_symmetry_space_group_name_H-M    P1
_symmetry_Int_Tables_number       1
_space_group_crystal_system       monoclinic
_cell_length_a                    22.28699
_cell_length_b                    22.285039
_cell_length_c                    14.944569
_cell_angle_alpha                 90.0
_cell_angle_beta                  90.152719
_cell_angle_gamma                 90.0
_cell_volume                      7422.43953574

loop_
_atom_site_label
_atom_site_type_symbol
_atom_type_description
_atom_site_fract_x
_atom_site_fract_y
_atom_site_fract_z
_atom_type_partial_charge
C1    C     C_R   0.418777 0.918772 0.499893 0.905268
C2    C     C_R   0.581223 0.081229 0.500107 0.905278
C3    C     C_R   0.581226 0.918774 0.500107 0.905253
C4    C     C_R   0.418774 0.081226 0.499893 0.905244
C5    C     C_R   0.918777 0.418771 0.499893 0.905278
C6    C     C_R   0.081223 0.581228 0.500107 0.905268
C7    C     C_R   0.081226 0.418774 0.500107 0.905244
C8    C     C_R   0.918774 0.581226 0.499893 0.905253
C9    C     C_1   0.336804 0.163118 0.499051 -0.055342
C10   C     C_1   0.663196 0.836882 0.500949 -0.055323
C11   C     C_1   0.663157 0.163157 0.500950 -0.055436
C12   C     C_1   0.336837 0.836848 0.499050 -0.055426
C13   C     C_1   0.836804 0.663118 0.499051 -0.055323
C14   C     C_1   0.163196 0.336882 0.500949 -0.055342
C15   C     C_1   0.163163 0.663152 0.500949 -0.055426
C16   C     C_1   0.836843 0.336843 0.499051 -0.055436
C17   C     C_1   0.500017 0.000000 0.189691 0.032353
C18   C     C_1   0.499983 1.000000 0.810309 0.032363
C19   C     C_1   0.000017 0.500000 0.189691 0.032363
C20   C     C_1   0.999983 0.500000 0.810309 0.032353
C21   C     C_3   0.471835 0.950741 0.969781 -0.150606
C22   C     C_3   0.528165 0.049259 0.030219 -0.150623
C23   C     C_3   0.528578 0.950979 0.030221 -0.150422
C24   C     C_3   0.471422 0.049021 0.969779 -0.150428
C25   C     C_3   0.972209 0.450529 0.969782 -0.150637
C26   C     C_3   0.027791 0.549471 0.030218 -0.150617
C27   C     C_3   0.028949 0.451197 0.030222 -0.150415
C28   C     C_3   0.971051 0.548803 0.969778 -0.150410
C29   C     C_3   0.700745 0.728571 0.542529 -0.197475
C30   C     C_3   0.299292 0.271465 0.457608 -0.197472
C31   C     C_3   0.300268 0.727555 0.461442 -0.197619
C32   C     C_3   0.699586 0.272592 0.537939 -0.197638
C33   C     C_3   0.200708 0.228535 0.542392 -0.197471
C34   C     C_3   0.799255 0.771429 0.457471 -0.197473
C35   C     C_3   0.800414 0.227407 0.462062 -0.197639
C36   C     C_3   0.199732 0.772445 0.538557 -0.197620
C37   C     C_3   0.228754 0.200955 0.456312 -0.245874
C38   C     C_3   0.771283 0.799083 0.543552 -0.245867
C39   C     C_3   0.769969 0.202226 0.547954 -0.245845
C40   C     C_3   0.229849 0.797955 0.452622 -0.245855
C41   C     C_3   0.728717 0.700916 0.456448 -0.245867
C42   C     C_3   0.271246 0.299046 0.543688 -0.245875
C43   C     C_3   0.270151 0.702044 0.547378 -0.245854
C44   C     C_3   0.730031 0.297774 0.452046 -0.245845
C45   C     C_1   0.374385 0.125572 0.499559 -0.184608
C46   C     C_1   0.625614 0.874428 0.500440 -0.184596
C47   C     C_1   0.625592 0.125594 0.500441 -0.184685
C48   C     C_1   0.374404 0.874409 0.499559 -0.184677
C49   C     C_1   0.874385 0.625572 0.499559 -0.184596
C50   C     C_1   0.125614 0.374428 0.500441 -0.184609
C51   C     C_1   0.125595 0.625591 0.500441 -0.184677
C52   C     C_1   0.874407 0.374406 0.499559 -0.184684
C53   C     C_3   0.263910 0.235563 0.582409 0.163073
C54   C     C_3   0.736018 0.764365 0.417589 0.163070
C55   C     C_3   0.738379 0.233274 0.417773 0.163099
C56   C     C_3   0.261935 0.766412 0.582268 0.163097
C57   C     C_3   0.763982 0.735635 0.582411 0.163070
C58   C     C_3   0.236090 0.264437 0.417590 0.163073
C59   C     C_3   0.238065 0.733588 0.417731 0.163096
C60   C     C_3   0.761621 0.266726 0.582227 0.163097
C61   C     C_3   0.291470 0.208445 0.498540 0.164089
C62   C     C_3   0.708531 0.791555 0.501460 0.164088
C63   C     C_3   0.708481 0.208494 0.501461 0.164170
C64   C     C_3   0.291512 0.791513 0.498538 0.164164
C65   C     C_3   0.791469 0.708444 0.498540 0.164088
C66   C     C_3   0.208530 0.291555 0.501460 0.164090
C67   C     C_3   0.208488 0.708487 0.501461 0.164163
C68   C     C_3   0.791518 0.291506 0.498539 0.164169
C69   C     C_3   0.443266 0.999761 0.029900 -0.150685
C70   C     C_3   0.556734 0.000238 0.970100 -0.150692
C71   C     C_3   0.943270 0.499332 0.029900 -0.150693
C72   C     C_3   0.056730 0.500668 0.970100 -0.150687
C73   C     C_3   0.500009 0.000000 0.089228 0.119265
C74   C     C_3   0.499991 1.000000 0.910772 0.119262
C75   C     C_3   0.000009 0.500000 0.089228 0.119262
C76   C     C_3   0.999991 0.500000 0.910772 0.119266
H1    H     H_    0.603690 0.000436 0.945522 0.129248
H2    H     H_    0.396310 0.999564 0.054478 0.129252
H3    H     H_    0.103683 0.501222 0.945522 0.129252
H4    H     H_    0.896316 0.498778 0.054478 0.129247
H5    H     H_    0.212578 0.160969 0.419090 0.141872
H6    H     H_    0.787490 0.839102 0.580665 0.141880
H7    H     H_    0.785060 0.163321 0.588581 0.141825
H8    H     H_    0.214603 0.837015 0.412454 0.141826
H9    H     H_    0.712509 0.660898 0.419335 0.141881
H10   H     H_    0.287422 0.339031 0.580909 0.141873
H11   H     H_    0.285397 0.662985 0.587545 0.141825
H12   H     H_    0.714940 0.336679 0.411420 0.141824
H13   H     H_    0.660530 0.712288 0.578859 0.141673
H14   H     H_    0.339540 0.287779 0.421387 0.141667
H15   H     H_    0.341351 0.710402 0.428289 0.141561
H16   H     H_    0.658376 0.289872 0.570595 0.141546
H17   H     H_    0.160460 0.212221 0.578613 0.141666
H18   H     H_    0.839470 0.787711 0.421140 0.141672
H19   H     H_    0.841624 0.210128 0.429405 0.141547
H20   H     H_    0.158649 0.789598 0.571710 0.141561
H21   H     H_    0.552232 0.910408 0.055066 0.129955
H22   H     H_    0.447768 0.089592 0.944934 0.129942
H23   H     H_    0.448523 0.909972 0.944937 0.129744
H24   H     H_    0.551477 0.090028 0.055062 0.129710
H25   H     H_    0.052909 0.410806 0.055068 0.129962
H26   H     H_    0.947091 0.589194 0.944932 0.129974
H27   H     H_    0.949206 0.409585 0.944940 0.129692
H28   H     H_    0.050794 0.590415 0.055060 0.129725
N1    N     N_1   0.500020 0.000000 0.268010 -0.089385
N2    N     N_1   0.499980 0.000000 0.731990 -0.089383
N3    N     N_1   0.000020 0.500000 0.268010 -0.089383
N4    N     N_1   0.999980 0.500000 0.731990 -0.089385
O1    O     O_R   0.438390 0.938390 0.574460 -0.608490
O2    O     O_R   0.561610 0.061610 0.425540 -0.608513
O3    O     O_R   0.561610 0.938390 0.425540 -0.608320
O4    O     O_R   0.438390 0.061610 0.574460 -0.608330
O5    O     O_R   0.938390 0.438390 0.574460 -0.608511
O6    O     O_R   0.061610 0.561610 0.425540 -0.608488
O7    O     O_R   0.061610 0.438390 0.425540 -0.608332
O8    O     O_R   0.938390 0.561610 0.574460 -0.608321
O9    O     O_R   0.438400 0.938390 0.425520 -0.613878
O10   O     O_R   0.561600 0.061610 0.574480 -0.613875
O11   O     O_R   0.561600 0.938390 0.574480 -0.613933
O12   O     O_R   0.438400 0.061610 0.425520 -0.613933
O13   O     O_R   0.938400 0.438390 0.425520 -0.613876
O14   O     O_R   0.061600 0.561610 0.574480 -0.613879
O15   O     O_R   0.061600 0.438390 0.574480 -0.613932
O16   O     O_R   0.938400 0.561610 0.425520 -0.613931
Zn1   Zn    Zn3+2 0.500000 0.000000 0.599450 0.977279
Zn2   Zn    Zn3+2 0.500000 0.000000 0.400550 0.977270
Zn3   Zn    Zn3+2 1.000000 0.500000 0.599450 0.977270
Zn4   Zn    Zn3+2 0.000000 0.500000 0.400550 0.977279
N5    N     N_3   0.719616 0.781788 0.326877 -0.455869
H29   H     H_    0.744444 0.754934 0.283221 0.176501
H30   H     H_    0.674534 0.770441 0.317545 0.180844
N6    N     N_3   0.280233 0.218061 0.673119 -0.455878
H31   H     H_    0.255376 0.244886 0.716778 0.176498
H32   H     H_    0.325310 0.229388 0.682554 0.180849
N7    N     N_3   0.276085 0.786087 0.672791 -0.455919
H33   H     H_    0.250159 0.760329 0.716493 0.176444
H34   H     H_    0.320897 0.774995 0.685236 0.180928
N8    N     N_3   0.724574 0.213254 0.327302 -0.455923
H35   H     H_    0.750667 0.238845 0.283604 0.176435
H36   H     H_    0.679809 0.224299 0.314383 0.180939
N9    N     N_3   0.219767 0.281939 0.326881 -0.455885
H37   H     H_    0.244624 0.255114 0.283222 0.176496
H38   H     H_    0.174690 0.270612 0.317445 0.180849
N10   N     N_3   0.780384 0.718211 0.673123 -0.455875
H39   H     H_    0.755556 0.745066 0.716779 0.176499
H40   H     H_    0.825466 0.729559 0.682455 0.180844
N11   N     N_3   0.775426 0.286746 0.672699 -0.455917
H41   H     H_    0.749333 0.261155 0.716397 0.176438
H42   H     H_    0.820190 0.275701 0.685617 0.180940
N12   N     N_3   0.223915 0.713913 0.327208 -0.455912
H43   H     H_    0.249840 0.739671 0.283507 0.176446
H44   H     H_    0.179103 0.725005 0.314764 0.180929

loop_
_geom_bond_atom_site_label_1
_geom_bond_atom_site_label_2
_ccdc_geom_bond_type
C9    C45   T    
C4    O12   A    
C26   C72   S    
C40   H8    S    
C11   C47   T    
N11   H41   S    
C44   C55   S    
C72   C76   S    
C29   H13   S    
C2    O10   A    
C36   C67   S    
N7    H33   S    
C23   H21   S    
C13   C65   S    
N2    Zn1   S    
C55   N8    S    
C31   C43   S    
N1    Zn2   S    
C9    C61   S    
N11   H42   S    
N3    Zn4   S    
C72   H3    S    
C11   C63   S    
N9    H38   S    
C42   C53   S    
C12   C64   S    
O12   Zn2   S    
C7    O7    A    
C5    O13   A    
C20   C76   S    
C5    O5    A    
C31   C59   S    
O14   Zn3   S    
C6    O6    A    
C59   C67   S    
C53   C61   S    
C58   C66   S    
C3    O3    A    
N6    H31   S    
O8    Zn3   S    
C55   C63   S    
C70   C74   S    
C56   C64   S    
C5    C52   S    
C69   C73   S    
C42   H10   S    
O10   Zn1   S    
C15   C51   T    
C6    C51   S    
O9    Zn2   S    
C37   C58   S    
C12   C48   T    
O16   Zn4   S    
C1    O1    A    
C4    O4    A    
C18   C74   S    
C40   C59   S    
C38   H6    S    
C70   H1    S    
C17   C73   S    
C23   C70   S    
C37   H5    S    
C69   H2    S    
C10   C62   S    
C23   C73   S    
C27   C75   S    
C34   C65   S    
C71   H4    S    
C24   C69   S    
C4    C45   S    
C33   C53   S    
C22   H24   S    
O5    Zn3   S    
C14   C50   T    
C35   C55   S    
C34   H18   S    
C36   C40   S    
C32   C63   S    
O13   Zn4   S    
N10   H40   S    
C7    O15   A    
C25   H27   S    
C41   C65   S    
C54   C62   S    
C21   C74   S    
C27   H25   S    
C33   C37   S    
O7    Zn4   S    
C21   C69   S    
C35   C39   S    
C18   N2    T    
C43   C67   S    
C10   C46   T    
C36   C56   S    
C17   N1    T    
C38   C57   S    
O6    Zn4   S    
C36   H20   S    
O15   Zn3   S    
C30   H14   S    
C15   C67   S    
C33   C66   S    
O3    Zn2   S    
C26   C75   S    
C14   C66   S    
C53   N6    S    
C1    O9    A    
C25   C71   S    
C60   C68   S    
O4    Zn1   S    
C13   C49   T    
C3    O11   A    
O2    Zn2   S    
C16   C68   S    
O11   Zn1   S    
O1    Zn1   S    
C60   N11   S    
C29   C57   S    
C34   C54   S    
C31   H15   S    
C21   C23   S    
N12   H44   S    
C44   C68   S    
C28   C71   S    
C32   C60   S    
C28   C76   S    
C56   N7    S    
C41   H9    S    
N5    H29   S    
C59   N12   S    
N7    H34   S    
C54   N5    S    
C29   C62   S    
C2    O2    A    
C57   N10   S    
C29   C41   S    
C34   C38   S    
C31   C64   S    
C8    O16   A    
C16   C52   T    
C7    C50   S    
C57   C65   S    
N10   H39   S    
C33   H17   S    
C37   C61   S    
C1    C48   S    
N8    H36   S    
C35   H19   S    
C2    C47   S    
C25   C27   S    
C39   C63   S    
C3    C46   S    
C26   C28   S    
C40   C64   S    
C25   C76   S    
C43   H11   S    
C19   C75   S    
C39   H7    S    
N9    H37   S    
C71   C75   S    
C58   N9    S    
C24   C74   S    
C32   H16   S    
C35   C68   S    
C21   H23   S    
C39   C60   S    
C30   C58   S    
C22   C24   S    
N4    Zn3   S    
C26   H28   S    
C41   C54   S    
N8    H35   S    
C8    O8    A    
C24   H22   S    
C28   H26   S    
C43   C56   S    
C32   C44   S    
N6    H32   S    
C30   C61   S    
C42   C66   S    
C6    O14   A    
N12   H43   S    
C30   C42   S    
C22   C73   S    
C38   C62   S    
C44   H12   S    
C8    C49   S    
C22   C70   S    
C27   C72   S    
C20   N4    T    
N5    H30   S    
C19   N3    T    
