data_mof_unit_38026.cif
_audit_creation_date              2012-12-10T17:15:50-0500
_audit_creation_method            fapswitch 2.2
_symmetry_space_group_name_H-M    P1
_symmetry_Int_Tables_number       1
_space_group_crystal_system       triclinic
_cell_length_a                    10.10614
_cell_length_b                    10.657782
_cell_length_c                    10.839279
_cell_angle_alpha                 90.947455
_cell_angle_beta                  96.255939
_cell_angle_gamma                 83.314049
_cell_volume                      1152.63466839

loop_
_atom_site_label
_atom_site_type_symbol
_atom_type_description
_atom_site_fract_x
_atom_site_fract_y
_atom_site_fract_z
_atom_type_partial_charge
C1    C     C_R   0.442785 0.512408 0.267722 0.884611
C2    C     C_R   0.590691 0.044654 0.440910 -0.011064
C3    C     C_R   0.487701 0.125304 0.490392 -0.139705
C4    C     C_R   0.399854 0.076434 0.566043 0.045854
C5    C     C_R   0.414512 0.947510 0.589213 -0.043614
C6    C     C_R   0.520624 0.870731 0.543118 -0.193453
C7    C     C_2   0.406701 0.510753 0.134702 -0.103315
C8    C     C_2   0.499397 0.534174 0.060714 0.048328
C9    C     C_2   0.591578 0.501923 0.863175 -0.413339
C10   C     C_2   0.506247 0.469647 0.940197 0.158629
C11   C     C_2   0.083082 0.470430 0.497377 -0.089547
C12   C     C_R   0.495070 0.259854 0.492651 0.893041
C13   C     C_2   0.946569 0.449728 0.531673 0.079474
C14   C     C_R   0.556970 0.489976 0.732118 0.914906
C15   C     C_R   0.507481 0.738179 0.517397 0.895546
C16   C     C_R   0.669363 0.078876 0.348612 0.030907
C17   C     C_R   0.794875 0.011048 0.337906 -0.224399
C18   C     C_R   0.843576 0.912284 0.419666 -0.005770
C19   C     C_R   0.757656 0.869782 0.499632 0.013250
C20   C     C_R   0.623473 0.926047 0.494264 0.012358
H1    H     H_    0.118012 0.420344 0.416928 0.143481
H2    H     H_    0.856437 0.038171 0.269079 0.154284
H3    H     H_    0.669501 0.561602 0.891898 0.155340
N1    N     N_2   0.157290 0.551390 0.551110 -0.153856
N2    N     N_2   0.842740 0.448550 0.448960 -0.158601
O1    O     O_R   0.568950 0.489660 0.307530 -0.599240
O2    O     O_R   0.348880 0.522640 0.340350 -0.620219
O3    O     O_R   0.610060 0.300270 0.483590 -0.617838
O4    O     O_R   0.389990 0.333260 0.516410 -0.599353
O5    O     O_R   0.651120 0.477360 0.659650 -0.631898
O6    O     O_R   0.431050 0.510340 0.692470 -0.618343
O7    O     O_R   0.610010 0.666740 0.483590 -0.612477
O8    O     O_R   0.389940 0.699730 0.516410 -0.593131
Zn1   Zn    Zn3+2 0.646940 0.477980 0.478090 0.959490
Zn2   Zn    Zn3+2 0.353060 0.522020 0.521910 0.966093
N3    N     N_3   0.297448 0.157677 0.620187 -0.422120
H4    H     H_    0.204056 0.128415 0.589839 0.194477
H5    H     H_    0.314009 0.149696 0.716811 0.183949
N4    N     N_3   0.282530 0.465936 0.086329 -0.426969
H6    H     H_    0.278518 0.377491 0.125246 0.198239
H7    H     H_    0.204224 0.527908 0.116006 0.210729
N5    N     N_3   0.935906 0.419725 0.658307 -0.445177
H8    H     H_    0.881496 0.495075 0.699011 0.235725
H9    H     H_    0.885781 0.339419 0.660148 0.212352
C21   C     C_1   0.863051 0.462446 0.324953 0.302786
N6    N     N_1   0.880342 0.473423 0.222070 -0.233827
C22   C     C_1   0.135910 0.590982 0.670979 0.388570
N7    N     N_1   0.120263 0.622933 0.771460 -0.208441
C23   C     C_1   0.617074 0.170321 0.253904 0.173270
N8    N     N_1   0.575616 0.241955 0.176294 -0.201300
C24   C     C_1   0.980213 0.855328 0.418514 0.147909
N9    N     N_1   0.089844 0.810187 0.417110 -0.172990
C25   C     C_1   0.811069 0.791693 0.605056 0.183561
N10   N     N_1   0.850956 0.732000 0.692009 -0.219650
C26   C     C_1   0.327259 0.897095 0.668800 0.193215
N11   N     N_1   0.257677 0.857881 0.732983 -0.189949
N12   N     N_3   0.427201 0.366595 0.909469 -0.415240
H10   H     H_    0.486269 0.291390 0.871969 0.179390
H11   H     H_    0.344991 0.396002 0.845558 0.227676
C27   C     C_1   0.593411 0.624878 0.100533 0.158285
N13   N     N_1   0.667126 0.697487 0.131973 -0.180902

loop_
_geom_bond_atom_site_label_1
_geom_bond_atom_site_label_2
_ccdc_geom_bond_type
C9    C14   S    
C4    N3    S    
C24   N9    T    
C12   O4    A    
C2    C16   A    
C9    C10   D    
C14   O6    A    
C17   H2    S    
N2    Zn1   S    
C26   N11   T    
C19   C25   S    
N3    H5    S    
C17   C18   A    
O3    Zn1   S    
C7    C8    D    
N4    H7    S    
C1    C7    S    
C25   N10   T    
C8    C27   S    
C11   C13   S    
C13   N2    D    
N12   H10   S    
C5    C6    A    
N5    H9    S    
C14   O5    A    
C5    C26   S    
C4    C5    A    
N3    H4    S    
O8    Zn2   S    
C11   H1    S    
C18   C24   S    
C2    C3    A    
C1    O1    A    
O6    Zn2   S    
N12   H11   S    
N1    Zn2   S    
N5    H8    S    
O5    Zn1   S    
C2    C20   A    
C3    C4    A    
C22   N7    T    
N2    C21   S    
C11   N1    D    
C15   O7    A    
C10   N12   S    
C6    C20   A    
C16   C23   S    
C12   O3    A    
C8    C10   S    
C23   N8    T    
N4    H6    S    
C1    O2    A    
C18   C19   A    
O4    Zn2   S    
C13   N5    S    
C7    N4    S    
C3    C12   S    
O2    Zn2   S    
C6    C15   S    
C21   N6    T    
N1    C22   S    
O1    Zn1   S    
C27   N13   T    
C9    H3    S    
C19   C20   A    
C15   O8    A    
C16   C17   A    
O7    Zn1   S    
