data_mof_unit_64663.cif
_audit_creation_date              2012-12-10T16:54:21-0500
_audit_creation_method            fapswitch 2.2
_symmetry_space_group_name_H-M    P1
_symmetry_Int_Tables_number       1
_space_group_crystal_system       triclinic
_cell_length_a                    18.726551
_cell_length_b                    18.717667
_cell_length_c                    18.860014
_cell_angle_alpha                 109.366223
_cell_angle_beta                  109.701207
_cell_angle_gamma                 108.792912
_cell_volume                      5123.17611706

loop_
_atom_site_label
_atom_site_type_symbol
_atom_type_description
_atom_site_fract_x
_atom_site_fract_y
_atom_site_fract_z
_atom_type_partial_charge
C1    C     C_R   0.377610 0.380857 0.495976 0.900722
C2    C     C_2   0.183556 0.495822 0.174383 -0.338803
C3    C     C_2   0.247116 0.423367 0.238750 -0.162861
C4    C     C_R   0.617028 0.496896 0.619945 0.838117
C5    C     C_2   0.304846 0.494571 0.316000 -0.337951
C6    C     C_2   0.741329 0.820075 0.494454 -0.155401
C7    C     C_2   0.818065 0.823670 0.511129 -0.332803
C8    C     C_2   0.680204 0.758889 0.505631 -0.155306
C9    C     C_2   0.676534 0.682184 0.489005 -0.343549
C10   C     C_R   0.992594 0.381242 0.873242 0.928205
C11   C     C_R   0.874289 0.500871 0.874733 0.824683
C12   C     C_3   0.806711 0.500537 0.807358 0.184895
C13   C     C_R   0.995741 0.618873 0.114916 0.920514
C14   C     C_R   0.114828 0.498486 0.112839 0.924713
C15   C     C_R   0.996076 0.116502 0.617799 0.945662
C16   C     C_R   0.616977 0.618835 0.497561 0.943272
C17   C     C_R   0.118146 0.123682 0.505209 0.936434
C18   C     C_R   0.003681 0.883285 0.382141 0.954367
C19   C     C_R   0.881341 0.883205 0.502499 0.933156
C20   C     C_2   0.918105 0.185129 0.665058 -0.188934
C21   C     C_2   0.987567 0.173336 0.684091 -0.385919
C22   C     C_2   0.912466 0.245134 0.734333 0.273711
C23   C     C_3   0.846002 0.573059 0.787006 -0.372349
C24   C     C_2   0.986975 0.317563 0.799625 -0.429544
C25   C     C_2   0.074413 0.804937 0.332779 -0.174223
C26   C     C_2   0.011608 0.826576 0.315201 -0.382895
C27   C     C_2   0.078874 0.746498 0.261193 0.132661
C28   C     C_R   0.377460 0.498265 0.379820 0.919005
C29   C     C_2   0.002547 0.682414 0.189486 -0.384539
C30   C     C_3   0.685279 0.409667 0.652343 -0.375235
C31   C     C_3   0.756712 0.411276 0.724160 -0.424033
C32   C     C_3   0.773370 0.571851 0.716860 -0.416043
C33   C     C_3   0.669477 0.511700 0.765673 -0.396309
C34   C     C_3   0.742825 0.515342 0.837553 -0.400682
C35   C     C_3   0.684642 0.497191 0.687178 0.178301
C36   C     C_3   0.225378 0.246225 0.399376 -0.431595
C37   C     C_3   0.230720 0.251143 0.321315 -0.334078
C38   C     C_3   0.143429 0.188772 0.237794 -0.906296
C39   C     C_3   0.752429 0.151109 0.658482 -0.814044
C40   C     C_3   0.165629 0.755439 0.269399 -0.351021
C41   C     C_3   0.245331 0.823356 0.359271 -0.388320
C42   C     C_3   0.328911 0.828824 0.360550 -0.877791
C43   C     C_2   0.264863 0.231278 0.559972 -0.175378
C44   C     C_2   0.180243 0.204862 0.522031 -0.339778
C45   C     C_2   0.323705 0.304537 0.560124 -0.202445
C46   C     C_2   0.307220 0.312415 0.488596 -0.021925
C47   C     C_2   0.173595 0.423045 0.177382 -0.144876
H1    H     H_    0.697575 0.398063 0.596849 0.185599
H2    H     H_    0.251828 0.364306 0.221699 0.165095
H3    H     H_    0.620994 0.354911 0.628802 0.159610
H4    H     H_    0.294735 0.550267 0.336446 0.157840
H5    H     H_    0.724880 0.864246 0.476095 0.162452
H6    H     H_    0.838566 0.786762 0.539202 0.155451
H7    H     H_    0.636107 0.775280 0.523927 0.163943
H8    H     H_    0.713432 0.661817 0.461112 0.156880
H9    H     H_    0.865169 0.150158 0.598720 0.176231
H10   H     H_    0.037476 0.202334 0.750905 0.161976
H11   H     H_    0.046472 0.334481 0.796126 0.146692
H12   H     H_    0.777960 0.579566 0.897303 0.154672
H13   H     H_    0.122633 0.831111 0.399446 0.166229
H14   H     H_    0.726645 0.358315 0.736646 0.178609
H15   H     H_    0.966656 0.805872 0.248890 0.159810
H16   H     H_    0.941471 0.669518 0.189072 0.144283
H17   H     H_    0.802094 0.398792 0.702592 0.153592
H18   H     H_    0.784703 0.563231 0.661018 0.163521
H19   H     H_    0.891408 0.563145 0.764111 0.178716
H20   H     H_    0.667967 0.573605 0.792032 0.187658
H21   H     H_    0.605730 0.458115 0.745107 0.153489
H22   H     H_    0.714024 0.464861 0.853357 0.184163
H23   H     H_    0.774558 0.635269 0.743041 0.174171
H24   H     H_    0.122654 0.120947 0.224780 0.266799
H25   H     H_    0.093028 0.205832 0.242627 0.266379
H26   H     H_    0.149680 0.193233 0.182709 0.248996
H27   H     H_    0.249490 0.317990 0.331878 0.220022
H28   H     H_    0.279636 0.233417 0.312839 0.244870
H29   H     H_    0.209596 0.179330 0.387504 0.226354
H30   H     H_    0.170782 0.257335 0.399608 0.209462
H31   H     H_    0.822578 0.283434 0.749319 0.223198
H32   H     H_    0.697032 0.145026 0.670191 0.238944
H33   H     H_    0.759991 0.093204 0.652260 0.254650
H34   H     H_    0.883590 0.637818 0.846517 0.171981
H35   H     H_    0.737439 0.153820 0.597517 0.227156
H36   H     H_    0.326651 0.765095 0.344231 0.259233
H37   H     H_    0.338028 0.848294 0.313299 0.261058
H38   H     H_    0.385345 0.878014 0.426226 0.250447
H39   H     H_    0.250071 0.888253 0.377039 0.229163
H40   H     H_    0.239186 0.805321 0.408289 0.221653
H41   H     H_    0.162875 0.691475 0.253567 0.192891
H42   H     H_    0.174942 0.773335 0.221328 0.219653
H43   H     H_    0.291141 0.196664 0.587151 0.172895
H44   H     H_    0.155305 0.243735 0.501986 0.156596
H45   H     H_    0.387130 0.348285 0.618333 0.133754
H46   H     H_    0.113069 0.362324 0.131868 0.164587
H47   H     H_    0.246936 0.553850 0.212737 0.154447
N1    N     N_2   0.830608 0.229533 0.730376 -0.272504
O1    O     O_R   0.410160 0.358490 0.449530 -0.637745
O2    O     O_R   0.947260 0.090430 0.537750 -0.626982
O3    O     O_R   0.142120 0.090460 0.551650 -0.623095
O4    O     O_R   0.408940 0.460590 0.550490 -0.625737
O5    O     O_R   0.038780 0.090460 0.448320 -0.626977
O6    O     O_R   0.052740 0.909570 0.462250 -0.621685
O7    O     O_R   0.949410 0.909570 0.358910 -0.622054
O8    O     O_R   0.961220 0.909540 0.551680 -0.624408
O9    O     O_R   0.857880 0.909540 0.448350 -0.618743
O10   O     O_R   0.592130 0.448950 0.541040 -0.631457
O11   O     O_R   0.590910 0.551050 0.642000 -0.630363
O12   O     O_R   0.046300 0.460610 0.904690 -0.619223
O13   O     O_R   0.591060 0.539410 0.449510 -0.620148
O14   O     O_R   0.589840 0.641510 0.550470 -0.615039
O15   O     O_R   0.409090 0.448950 0.358000 -0.622610
O16   O     O_R   0.407870 0.551050 0.458960 -0.624923
O17   O     O_R   0.944170 0.358540 0.904780 -0.603506
O18   O     O_R   0.851630 0.449030 0.902680 -0.637052
O19   O     O_R   0.953760 0.551100 0.902590 -0.632078
O20   O     O_R   0.942140 0.539520 0.083620 -0.616261
O21   O     O_R   0.044270 0.641590 0.083530 -0.625783
O22   O     O_R   0.034680 0.449030 0.085720 -0.612960
O23   O     O_R   0.136800 0.551100 0.085630 -0.627328
O24   O     O_R   0.050590 0.090430 0.641090 -0.624169
Zn1   Zn    Zn3+2 0.500810 0.431830 0.432590 0.930286
Zn2   Zn    Zn3+2 0.499190 0.568170 0.567410 0.941953
Zn3   Zn    Zn3+2 0.926030 0.431910 0.994210 0.950005
Zn4   Zn    Zn3+2 0.062410 0.568220 0.994100 0.934458
Zn5   Zn    Zn3+2 0.069000 0.000000 0.569000 0.943733
Zn6   Zn    Zn3+2 0.931000 1.000000 0.431000 0.943038

loop_
_geom_bond_atom_site_label_1
_geom_bond_atom_site_label_2
_ccdc_geom_bond_type
C37   H27   S    
C29   H16   S    
C41   C42   S    
O21   Zn4   S    
C27   C29   D    
C22   N1    S    
O13   Zn1   S    
C18   C26   S    
O12   Zn4   S    
C20   H9    S    
O7    Zn6   S    
C1    O4    A    
C3    H2    S    
C45   C46   D    
O3    Zn5   S    
C41   H39   S    
C12   C23   S    
C30   C35   S    
C23   H19   S    
C30   H1    S    
C36   C37   S    
C9    C16   S    
C36   H30   S    
C30   C31   S    
C1    C46   S    
O16   Zn2   S    
C18   O7    A    
C11   O19   A    
C45   H45   S    
C31   H14   S    
C36   H29   S    
C19   O8    A    
O9    Zn6   S    
C8    C9    D    
C14   O23   A    
O10   Zn1   S    
C36   C46   S    
C9    H8    S    
C25   H13   S    
C40   H42   S    
C17   O3    A    
C27   C40   S    
O4    Zn2   S    
C37   H28   S    
C4    C35   S    
O20   Zn3   S    
C10   O12   A    
C15   O2    A    
C11   O18   A    
O8    Zn5   S    
C16   O14   A    
C28   O16   A    
C41   H40   S    
C38   H25   S    
C43   H43   S    
O18   Zn3   S    
O5    Zn6   S    
O6    Zn5   S    
C32   C35   S    
C2    H47   S    
C42   H37   S    
O2    Zn6   S    
O15   Zn1   S    
C6    C8    S    
C10   C24   S    
C25   C26   D    
O24   Zn5   S    
C4    O11   A    
C18   O6    A    
C39   H32   S    
O22   Zn3   S    
C21   H10   S    
C37   C38   S    
C5    C28   S    
C19   O9    A    
H31   N1    S    
C14   O22   A    
C33   C34   S    
C47   H46   S    
C42   H38   S    
C10   O17   A    
C43   C45   S    
C34   H22   S    
C39   N1    S    
C13   O20   A    
C44   H44   S    
O19   Zn4   S    
C40   C41   S    
C20   C22   S    
C7    C19   S    
C43   C44   D    
C34   H12   S    
C22   C24   D    
C7    H6    S    
C12   C34   S    
C33   H20   S    
C4    O10   A    
C13   C29   S    
C38   H24   S    
C23   H34   S    
C31   H17   S    
O1    Zn1   S    
C42   H36   S    
C39   H35   S    
C3    C5    D    
C32   H23   S    
C11   C12   S    
C6    C7    D    
C2    C47   D    
C25   C27   S    
O17   Zn3   S    
C8    H7    S    
C28   O15   A    
C39   H33   S    
C40   H41   S    
C26   H15   S    
C17   C44   S    
C12   C31   S    
C23   C32   S    
O14   Zn2   S    
C1    O1    A    
O11   Zn2   S    
C3    C47   S    
C33   C35   S    
C15   O24   A    
O23   Zn4   S    
C30   H3    S    
C2    C14   S    
C17   O5    A    
C13   O21   A    
C16   O13   A    
C15   C21   S    
C20   C21   D    
C24   H11   S    
C5    H4    S    
C6    H5    S    
C33   H21   S    
C32   H18   S    
C38   H26   S    
