data_mof_unit_7311.cif
_audit_creation_date              2012-12-10T16:52:39-0500
_audit_creation_method            fapswitch 2.2
_symmetry_space_group_name_H-M    P1
_symmetry_Int_Tables_number       1
_space_group_crystal_system       triclinic
_cell_length_a                    7.85504
_cell_length_b                    8.567746
_cell_length_c                    13.78206
_cell_angle_alpha                 93.501489
_cell_angle_beta                  93.228506
_cell_angle_gamma                 94.199035
_cell_volume                      921.592582348

loop_
_atom_site_label
_atom_site_type_symbol
_atom_type_description
_atom_site_fract_x
_atom_site_fract_y
_atom_site_fract_z
_atom_type_partial_charge
Br1   Br    Br    0.416296 0.588557 0.252064 -0.563950
Br2   Br    Br    0.583702 0.411443 0.747937 -0.563949
C1    C     C_R   0.045093 0.794595 0.497594 0.953884
C2    C     C_R   0.937109 0.488360 0.318072 0.877333
C3    C     C_R   0.094166 0.533878 0.786550 -0.063506
C4    C     C_R   0.905834 0.466122 0.213450 -0.063508
C5    C     C_R   0.063914 0.679765 0.938718 -0.179916
C6    C     C_R   0.936086 0.320235 0.061281 -0.179917
C7    C     C_R   0.007569 0.641066 0.842113 -0.171246
C8    C     C_R   0.992432 0.358935 0.157887 -0.171245
C9    C     C_R   0.230326 0.462935 0.828294 -0.207272
C10   C     C_R   0.769672 0.537063 0.171706 -0.207272
C11   C     C_R   0.308853 0.522690 0.917119 0.103485
C12   C     C_R   0.954907 0.205405 0.502406 0.953884
C13   C     C_R   0.691145 0.477308 0.082881 0.103485
C14   C     C_R   0.215424 0.622349 0.976210 0.112951
C15   C     C_R   0.784575 0.377650 0.023790 0.112951
C16   C     C_R   0.472986 0.481383 0.950098 -0.042642
C17   C     C_R   0.527012 0.518614 0.049902 -0.042643
C18   C     C_R   0.412719 0.592735 0.112420 0.231495
C19   C     C_R   0.587278 0.407263 0.887580 0.231496
C20   C     C_R   0.267645 0.654701 0.073330 -0.241056
C21   C     C_R   0.732352 0.345296 0.926670 -0.241058
C22   C     C_2   0.068471 0.958370 0.496167 -0.367775
C23   C     C_2   0.931528 0.041630 0.503833 -0.367775
C24   C     C_R   0.062891 0.511639 0.681928 0.877333
H1    H     H_    0.187044 0.717611 0.121015 0.175827
H2    H     H_    0.802520 0.990170 0.511174 0.189322
H3    H     H_    0.486778 0.372248 0.428877 0.209827
H4    H     H_    0.513222 0.627752 0.571123 0.209827
H5    H     H_    0.812952 0.282385 0.878985 0.175826
H6    H     H_    0.726594 0.638330 0.210391 0.188429
H7    H     H_    0.273403 0.361668 0.789610 0.188427
H8    H     H_    0.101096 0.304560 0.189188 0.176666
H9    H     H_    0.898905 0.695441 0.810811 0.176666
H10   H     H_    0.992500 0.757469 0.983046 0.141580
H11   H     H_    0.007500 0.242531 0.016953 0.141580
H12   H     H_    0.197480 0.009830 0.488826 0.189322
N1    N     N_2   0.440860 0.456490 0.474790 -0.122526
N2    N     N_2   0.559140 0.543510 0.525210 -0.122526
O1    O     O_R   0.891570 0.738930 0.506190 -0.614694
O2    O     O_R   0.108430 0.261070 0.493810 -0.614693
O3    O     O_R   0.174650 0.711050 0.490030 -0.608147
O4    O     O_R   0.825350 0.288950 0.509970 -0.608147
O5    O     O_R   0.909850 0.521900 0.644940 -0.579746
O6    O     O_R   0.090150 0.478100 0.355060 -0.579745
O7    O     O_R   0.192930 0.494020 0.628780 -0.597936
O8    O     O_R   0.807070 0.505980 0.371220 -0.597937
Zn1   Zn    Zn3+2 0.810990 0.518620 0.510790 0.999617
Zn2   Zn    Zn3+2 0.189010 0.481380 0.489210 0.999617

loop_
_geom_bond_atom_site_label_1
_geom_bond_atom_site_label_2
_ccdc_geom_bond_type
O4    Zn1   S    
C4    C8    A    
C22   H12   S    
O3    Zn2   S    
C3    C7    A    
C3    C24   S    
C16   C19   A    
C5    H10   S    
O6    Zn2   S    
C17   C18   A    
C10   C13   A    
O5    Zn1   S    
C12   O2    A    
H3    N1    S    
Br2   C19   S    
H4    N2    S    
C8    H8    S    
C2    O6    A    
C10   H6    S    
C23   H2    S    
C13   C17   A    
C9    C11   A    
C1    O3    A    
C1    C22   S    
C15   C21   A    
C11   C16   A    
O2    Zn2   S    
C24   O7    A    
O1    Zn1   S    
O8    Zn1   S    
C18   C20   A    
C3    C9    A    
O7    Zn2   S    
C20   H1    S    
C19   C21   A    
C12   C23   S    
C4    C10   A    
C2    C4    S    
C6    H11   S    
N2    Zn1   S    
C5    C7    A    
C9    H7    S    
N1    Zn2   S    
C22   C23   D    
C12   O4    A    
C16   C17   A    
C2    O8    A    
C11   C14   A    
N1    N2    D    
C7    H9    S    
C5    C14   A    
Br1   C18   S    
C14   C20   A    
C24   O5    A    
C13   C15   A    
C6    C8    A    
C1    O1    A    
C6    C15   A    
C21   H5    S    
