data_mof_unit_11714.cif
_audit_creation_date              2012-12-11T14:34:01-0500
_audit_creation_method            fapswitch 2.2
_symmetry_space_group_name_H-M    P1
_symmetry_Int_Tables_number       1
_space_group_crystal_system       triclinic
_cell_length_a                    14.482716
_cell_length_b                    14.472219
_cell_length_c                    26.933082
_cell_angle_alpha                 88.852399
_cell_angle_beta                  91.133152
_cell_angle_gamma                 119.769101
_cell_volume                      4898.83269872

loop_
_atom_site_label
_atom_site_type_symbol
_atom_type_description
_atom_site_fract_x
_atom_site_fract_y
_atom_site_fract_z
_atom_type_partial_charge
C1    C     C_R   0.232968 0.785910 0.567308 0.562781
C2    C     C_R   0.213498 0.444413 0.567664 0.557284
C3    C     C_R   0.555061 0.767659 0.568025 0.563884
C4    C     C_3   0.699788 0.807882 0.789136 0.073541
C5    C     C_3   0.187278 0.925293 0.773348 0.073793
C6    C     C_3   0.087214 0.288871 0.781749 0.117446
C7    C     C_3   0.688519 0.797838 0.732239 -0.137138
C8    C     C_3   0.201335 0.904863 0.719338 -0.161438
C9    C     C_3   0.097506 0.307225 0.725289 -0.159972
C10   C     C_1   0.693652 0.889539 0.864082 0.068644
C11   C     C_1   0.091622 0.857546 0.851425 0.028484
C12   C     C_1   0.173225 0.302165 0.862748 0.002922
C13   C     C_1   0.651860 0.859498 0.653335 0.145484
C14   C     C_1   0.142794 0.788114 0.650365 0.131725
C15   C     C_1   0.206331 0.344923 0.652914 0.124523
C16   C     C_1   0.617438 0.817020 0.613031 0.126968
C17   C     C_1   0.184886 0.795229 0.611223 0.146408
C18   C     C_1   0.201530 0.380842 0.612163 0.104709
C19   C     C_R   0.068708 0.156069 0.096060 0.545981
C20   C     C_R   0.779691 0.883621 0.087626 0.548331
C21   C     C_R   0.116593 0.893811 0.086830 0.563010
C22   C     C_R   0.106308 0.219673 0.951564 0.595770
C23   C     C_R   0.780886 0.889295 0.951199 0.576446
C24   C     C_R   0.092111 0.925425 0.942866 0.582300
C25   C     C_R   0.600873 0.881884 0.357245 -0.086713
C26   C     C_R   0.107340 0.728811 0.361415 -0.095203
C27   C     C_R   0.266446 0.374150 0.363832 -0.116754
C28   C     C_R   0.618874 0.889838 0.306395 0.010653
C29   C     C_R   0.095627 0.737357 0.310510 0.019738
C30   C     C_R   0.246855 0.332912 0.316254 0.010242
C31   C     C_R   0.649141 0.902157 0.203474 0.036991
C32   C     C_R   0.080311 0.747600 0.207023 0.033535
C33   C     C_R   0.213314 0.268848 0.216939 0.032390
C34   C     C_R   0.233329 0.788209 0.432354 0.531834
C35   C     C_R   0.211766 0.445701 0.432669 0.535117
C36   C     C_R   0.552973 0.766342 0.432015 0.534961
C37   C     C_R   0.609754 0.963257 0.225618 -0.001029
C38   C     C_R   0.010485 0.652346 0.232787 -0.004295
C39   C     C_R   0.317804 0.320114 0.237548 -0.001304
C40   C     C_R   0.597318 0.957993 0.277110 -0.163893
C41   C     C_R   0.017521 0.649792 0.284524 -0.135606
C42   C     C_R   0.332114 0.346717 0.287616 -0.163044
C43   C     C_R   0.685080 0.920662 0.154255 -0.100949
C44   C     C_R   0.065199 0.763177 0.156636 -0.095220
C45   C     C_R   0.192945 0.231178 0.168184 -0.072510
C46   C     C_R   0.719592 0.855928 0.133618 -0.029296
C47   C     C_R   0.141763 0.853848 0.132035 -0.029122
C48   C     C_R   0.090388 0.185954 0.148087 -0.030185
C49   C     C_R   0.653401 0.747247 0.364692 -0.087433
C50   C     C_R   0.255082 0.909282 0.362887 -0.097208
C51   C     C_R   0.080781 0.322339 0.371910 -0.090645
C52   C     C_R   0.669931 0.751595 0.313608 0.014995
C53   C     C_R   0.249640 0.918457 0.311334 0.009164
C54   C     C_R   0.058053 0.278147 0.324391 0.016402
C55   C     C_R   0.649961 0.822212 0.284174 0.031843
C56   C     C_R   0.169461 0.830482 0.284986 0.032247
C57   C     C_R   0.143294 0.287564 0.295676 0.035987
C58   C     C_R   0.695051 0.679400 0.291033 -0.012369
C59   C     C_R   0.324120 0.011678 0.285671 -0.018464
C60   C     C_R   0.955050 0.236625 0.303186 -0.014171
C61   C     C_R   0.694168 0.674338 0.238857 -0.013427
C62   C     C_R   0.319652 0.015685 0.233373 -0.011957
C63   C     C_R   0.940060 0.213341 0.252070 -0.003652
C64   C     C_R   0.684789 0.752711 0.210177 0.016400
C65   C     C_R   0.241777 0.924883 0.207457 0.014712
C66   C     C_R   0.023413 0.214472 0.224787 0.026476
C67   C     C_3   0.563869 0.880301 0.731423 0.333062
C68   C     C_3   0.116043 0.701837 0.738236 0.392941
C69   C     C_3   0.302356 0.432300 0.734113 0.389878
C70   C     C_R   0.660668 0.825229 0.232630 0.017999
C71   C     C_R   0.163848 0.834430 0.233284 0.014482
C72   C     C_R   0.126302 0.255449 0.246042 0.018321
C73   C     C_R   0.709459 0.767052 0.160115 -0.078512
C74   C     C_R   0.237149 0.922586 0.155920 -0.067373
C75   C     C_R   0.006300 0.175076 0.176597 -0.088859
C76   C     C_R   0.611197 0.805400 0.385680 -0.001659
C77   C     C_R   0.192619 0.811594 0.386693 -0.008293
C78   C     C_R   0.185046 0.375338 0.390251 -0.004580
C79   C     C_3   0.764649 0.998541 0.724527 0.180860
C80   C     C_3   0.001069 0.781339 0.707856 0.184044
C81   C     C_3   0.223291 0.230150 0.728224 0.171070
C82   C     C_3   0.762392 0.007251 0.785261 0.123220
C83   C     C_3   0.987243 0.794508 0.766996 0.140148
C84   C     C_3   0.228785 0.233158 0.789167 0.122517
C85   C     C_1   0.724928 0.882373 0.905303 0.095937
C86   C     C_1   0.095535 0.889970 0.893219 0.101360
C87   C     C_1   0.144651 0.272994 0.904761 0.081070
C88   C     C_3   0.667315 0.886119 0.708389 -0.029584
C89   C     C_3   0.113438 0.790607 0.702767 -0.060974
C90   C     C_3   0.209647 0.328326 0.708295 -0.038803
C91   C     C_3   0.561565 0.867894 0.791844 -0.019024
C92   C     C_3   0.118968 0.729828 0.796680 -0.014087
C93   C     C_3   0.284017 0.432525 0.793778 -0.027504
C94   C     C_3   0.677118 0.894933 0.809069 -0.072869
C95   C     C_3   0.094168 0.824612 0.798786 -0.100252
C96   C     C_3   0.195478 0.316659 0.808294 -0.096819
Cr1   Cr    Cr6+3 0.164410 0.584450 0.499910 1.104462
Cr2   Cr    Cr6+3 0.415550 0.579960 0.499910 1.106716
Cr3   Cr    Cr6+3 0.420040 0.835590 0.499910 1.130041
Cr4   Cr    Cr6+3 0.155170 0.075460 0.019960 1.100855
Cr5   Cr    Cr6+3 0.924540 0.079710 0.019960 1.096931
Cr6   Cr    Cr6+3 0.920290 0.844830 0.019960 1.075094
H1    H     H_    0.782223 0.834916 0.798624 0.261860
H2    H     H_    0.164034 0.985298 0.769434 0.281746
H3    H     H_    0.039751 0.203486 0.784988 0.277520
H4    H     H_    0.692932 0.988305 0.132948 0.190793
H5    H     H_    0.991879 0.710229 0.137392 0.182608
H6    H     H_    0.255627 0.236206 0.145354 0.226147
H7    H     H_    0.569068 0.928049 0.373528 0.171346
H8    H     H_    0.056339 0.653806 0.380190 0.152822
H9    H     H_    0.347390 0.414239 0.378207 0.142414
H10   H     H_    0.568797 0.006043 0.294359 0.152431
H11   H     H_    0.964495 0.577246 0.304623 0.110144
H12   H     H_    0.411872 0.385582 0.303528 0.090096
H13   H     H_    0.735137 0.716941 0.143074 0.200206
H14   H     H_    0.301339 0.982297 0.133989 0.220974
H15   H     H_    0.927143 0.134881 0.160394 0.166670
H16   H     H_    0.661396 0.689680 0.387797 0.195340
H17   H     H_    0.314559 0.974363 0.384508 0.201157
H18   H     H_    0.019425 0.324103 0.393376 0.190142
H19   H     H_    0.766009 0.810783 0.718777 0.248641
H20   H     H_    0.191154 0.963626 0.696001 0.215648
H21   H     H_    0.036634 0.231425 0.708238 0.218400
O1    O     O_R   0.137150 0.468200 0.553200 -0.465127
O2    O     O_R   0.531800 0.668950 0.553200 -0.458440
O3    O     O_R   0.331050 0.862850 0.553200 -0.450589
O4    O     O_R   0.179100 0.982980 0.967000 -0.468744
O5    O     O_R   0.017020 0.196120 0.967000 -0.466018
O6    O     O_R   0.803880 0.820900 0.967000 -0.485809
O7    O     O_R   0.173970 0.688730 0.549930 -0.483779
O8    O     O_R   0.311270 0.485240 0.549930 -0.470316
O9    O     O_R   0.514760 0.826030 0.549930 -0.466822
O10   O     O_R   0.140110 0.470540 0.446010 -0.518062
O11   O     O_R   0.529460 0.669570 0.446010 -0.520930
O12   O     O_R   0.330430 0.859890 0.446010 -0.508747
O13   O     O_R   0.176710 0.690910 0.450560 -0.508298
O14   O     O_R   0.309090 0.485800 0.450560 -0.510596
O15   O     O_R   0.514200 0.823290 0.450560 -0.502275
O16   O     O_3   0.333333 0.666667 0.499990 -0.322215
O17   O     O_R   0.176750 0.985260 0.074180 -0.501633
O18   O     O_R   0.014740 0.191490 0.074180 -0.468962
O19   O     O_R   0.808510 0.823250 0.074180 -0.514836
O20   O     O_R   0.146100 0.172630 0.068980 -0.483301
O21   O     O_R   0.827370 0.973470 0.068980 -0.520906
O22   O     O_R   0.026530 0.853900 0.068980 -0.500518
O23   O     O_3   0.000000 0.000000 0.020040 -0.313956
O24   O     O_R   0.148270 0.170520 0.969620 -0.505974
O25   O     O_R   0.829480 0.977750 0.969620 -0.490041
O26   O     O_R   0.022250 0.851730 0.969620 -0.504897
C97   C     C_2   0.526015 0.938549 0.817262 0.288246
H22   H     H_    0.478760 0.966467 0.797741 0.246421
O27   O     O_2   0.542174 0.958102 0.861547 -0.496596
C98   C     C_2   0.040739 0.636153 0.829063 0.245473
H23   H     H_    0.003058 0.649582 0.860227 0.070841
O28   O     O_2   0.031757 0.548125 0.826548 -0.315843
C99   C     C_2   0.381339 0.464748 0.828074 0.260367
H24   H     H_    0.373566 0.472040 0.867666 0.072777
O29   O     O_2   0.467033 0.479978 0.814094 -0.301759
Cl1   Cl    Cl    0.450543 0.784482 0.699585 -0.431040
Cl2   Cl    Cl    0.220666 0.685395 0.718605 -0.385963
Cl3   Cl    Cl    0.317552 0.546516 0.702480 -0.447995
C100  C     C_2   0.484038 0.758420 0.812487 0.374364
H25   H     H_    0.467847 0.747882 0.852065 0.134143
O30   O     O_2   0.441831 0.680126 0.786816 -0.419346
C101  C     C_2   0.222711 0.762618 0.825155 0.340147
H26   H     H_    0.225521 0.774223 0.865040 0.116606
O31   O     O_2   0.303923 0.778538 0.805571 -0.459445
C102  C     C_2   0.246949 0.509367 0.809706 0.390529
H27   H     H_    0.272235 0.550247 0.845047 0.098748
O32   O     O_2   0.183384 0.522796 0.785476 -0.342756
C103  C     C_2   0.578926 0.032299 0.196884 0.248637
H28   H     H_    0.585058 0.102004 0.214233 0.104496
O33   O     O_2   0.542387 0.009983 0.154800 -0.474628
C104  C     C_2   0.935473 0.550808 0.207937 0.239625
H29   H     H_    0.872573 0.486801 0.229253 0.108563
O34   O     O_2   0.946165 0.534366 0.164735 -0.448209
C105  C     C_2   0.415964 0.356205 0.208398 0.295045
H30   H     H_    0.486473 0.362468 0.226506 0.111436
O35   O     O_2   0.421867 0.385812 0.165240 -0.417982
C106  C     C_2   0.706615 0.588772 0.215337 0.189092
H31   H     H_    0.757684 0.562168 0.232406 0.089202
O36   O     O_2   0.655754 0.543512 0.178202 -0.451504
C107  C     C_2   0.394633 0.117203 0.207218 0.209777
H32   H     H_    0.472412 0.169940 0.223061 0.102784
O37   O     O_2   0.368755 0.146631 0.169373 -0.504503
C108  C     C_2   0.839849 0.196064 0.227409 0.193563
H33   H     H_    0.766581 0.160104 0.247872 0.084325
O38   O     O_2   0.839587 0.228986 0.185336 -0.467010
C109  C     C_2   0.718526 0.606029 0.321262 0.181839
H34   H     H_    0.678965 0.521831 0.312785 0.096502
O39   O     O_2   0.785673 0.640131 0.354370 -0.492417
C110  C     C_2   0.406005 0.106661 0.312794 0.171615
H35   H     H_    0.412178 0.183705 0.306021 0.101630
O40   O     O_2   0.470430 0.100543 0.340585 -0.521313
C111  C     C_2   0.863798 0.222271 0.333465 0.195104
H36   H     H_    0.813472 0.253864 0.320480 0.107009
O41   O     O_2   0.842558 0.172105 0.372563 -0.472743
Cl4   Cl    Cl    0.554447 0.994296 0.710876 -0.451441
Cl5   Cl    Cl    0.009425 0.570090 0.724669 -0.448743
Cl6   Cl    Cl    0.427375 0.444392 0.717539 -0.357754
Cl7   Cl    Cl    0.880861 0.006045 0.701916 -0.413631
Cl8   Cl    Cl    0.996338 0.881187 0.668034 -0.379513
Cl9   Cl    Cl    0.115980 0.111536 0.706305 -0.454011
C112  C     C_2   0.777298 0.095446 0.695643 0.444131
H37   H     H_    0.824008 0.173759 0.711376 0.211579
O42   O     O_2   0.746981 0.089160 0.652509 -0.390079
C113  C     C_2   0.912815 0.680847 0.682778 0.400927
H38   H     H_    0.855421 0.612044 0.703170 0.221052
O43   O     O_2   0.909475 0.671381 0.637637 -0.405182
C114  C     C_2   0.309007 0.216260 0.703240 0.437756
H39   H     H_    0.334997 0.164135 0.720034 0.193965
O44   O     O_2   0.339950 0.250919 0.661449 -0.393522
C115  C     C_2   0.744335 0.095373 0.805207 0.324738
H40   H     H_    0.757543 0.113292 0.844572 0.199242
O45   O     O_2   0.712502 0.144933 0.779969 -0.418281
C116  C     C_2   0.889099 0.704727 0.791558 0.269618
H41   H     H_    0.889630 0.689547 0.830925 0.135108
O46   O     O_2   0.802812 0.660557 0.770628 -0.413478
C117  C     C_2   0.333381 0.252812 0.813426 0.336963
H42   H     H_    0.337848 0.249400 0.853698 0.156836
O47   O     O_2   0.413199 0.273626 0.790419 -0.382444
Cl10  Cl    Cl    0.886891 0.042641 0.814184 -0.530529
Cl11  Cl    Cl    0.964839 0.900604 0.774730 -0.432617
Cl12  Cl    Cl    0.139259 0.109156 0.818805 -0.535693
C118  C     C_2   0.612829 0.686681 0.714978 0.389462
H43   H     H_    0.529714 0.652484 0.721222 0.266595
O48   O     O_2   0.645145 0.636166 0.692363 -0.369660
C119  C     C_2   0.313518 0.932306 0.708596 0.342693
H44   H     H_    0.350251 0.896296 0.730482 0.251615
O49   O     O_2   0.363125 0.995984 0.675531 -0.390708
C120  C     C_2   0.062466 0.383456 0.704788 0.364683
H45   H     H_    0.115354 0.467439 0.703915 0.265965
O50   O     O_2   0.974366 0.349910 0.685941 -0.413932
Cl13  Cl    Cl    0.642591 0.684016 0.823714 -0.476396
Cl14  Cl    Cl    0.308191 0.998272 0.809830 -0.562892
Cl15  Cl    Cl    0.001067 0.327161 0.811688 -0.418529

loop_
_geom_bond_atom_site_label_1
_geom_bond_atom_site_label_2
_ccdc_geom_bond_type
C15   C18   T    
C103  H28   S    
C30   C57   A    
Cr5   O25   S    
C101  H26   S    
C82   C94   S    
C2    C18   S    
Cr4   O4    S    
C33   C45   A    
C20   O21   A    
C75   H15   S    
Cr6   O6    S    
Cr1   O10   S    
C67   Cl4   S    
C8    H20   S    
C35   O10   A    
C6    C9    S    
C119  O49   D    
C83   C116  S    
C53   C59   A    
C81   Cl9   S    
C54   C60   A    
C115  H40   S    
C25   C28   A    
C103  O33   D    
C67   C88   S    
C33   C39   A    
C31   C43   A    
Cr3   O9    S    
C60   C63   A    
C10   C85   T    
C99   H24   S    
C52   C55   A    
C116  O46   D    
Cr1   O7    S    
C37   C40   A    
C69   C93   S    
C107  O37   D    
C34   C77   S    
Cr5   O21   S    
C38   C104  S    
C28   C40   A    
Cr4   O24   S    
C111  O41   D    
C4    H1    S    
Cr5   O5    S    
C23   O6    A    
C84   C96   S    
C80   C89   S    
C109  O39   D    
C104  H29   S    
C119  H44   S    
C36   C76   S    
C33   C72   A    
C118  O48   D    
C62   C107  S    
Cr1   O13   S    
Cr2   O16   S    
Cr5   O18   S    
C92   C101  S    
C42   H12   S    
C31   C70   A    
C66   C72   A    
C7    C88   S    
C93   C102  S    
Cr4   O23   S    
C79   Cl7   S    
Cr2   O8    S    
C24   O4    A    
C64   C73   A    
C91   C100  S    
C92   C98   S    
C32   C38   A    
C39   C42   A    
Cr4   O17   S    
C26   H8    S    
C62   C65   A    
C45   H6    S    
C25   H7    S    
C6    C96   S    
C83   Cl11  S    
C49   C52   A    
C58   C61   A    
C102  O32   D    
C81   C114  S    
C63   C66   A    
C27   H9    S    
C19   O18   A    
C27   C30   A    
C48   C75   A    
Cr3   O16   S    
C59   C110  S    
C7    H19   S    
C80   C83   S    
C79   C88   S    
C5    C95   S    
C28   C55   A    
C106  O36   D    
C2    O8    A    
C32   C71   A    
C100  O30   D    
Cr2   O2    S    
C8    C119  S    
C80   Cl8   S    
Cr5   O23   S    
C26   C77   A    
C53   C56   A    
Cr2   O14   S    
C50   H17   S    
C50   C53   A    
C20   O19   A    
Cr3   O3    S    
C51   H18   S    
C116  H41   S    
C38   C41   A    
C40   H10   S    
C1    O7    A    
C84   Cl12  S    
C41   H11   S    
C117  H42   S    
C19   C48   S    
C7    C118  S    
C4    C7    S    
C65   C71   A    
C27   C78   A    
C39   C105  S    
C92   C95   S    
C65   C74   A    
C113  H38   S    
C68   Cl5   S    
C43   H4    S    
C21   O22   A    
C61   C64   A    
C107  H32   S    
C14   C89   S    
C84   C117  S    
C117  O47   D    
C82   C115  S    
C22   O5    A    
C49   H16   S    
C34   O13   A    
C63   C108  S    
C83   C95   S    
C64   C70   A    
C44   H5    S    
C58   C109  S    
C67   C91   S    
C68   C89   S    
C32   C44   A    
C49   C76   A    
Cr3   O12   S    
Cr3   O15   S    
C22   C87   S    
C1    O3    A    
C115  O45   D    
C52   C58   A    
C26   C29   A    
C4    C94   S    
C81   C90   S    
C9    H21   S    
C102  H27   S    
C112  O42   D    
C105  H30   S    
C93   C96   S    
C114  O44   D    
C120  O50   D    
C5    Cl14  S    
C97   O27   D    
C5    C8    S    
C98   O28   D    
Cr6   O23   S    
C108  O38   D    
C69   C90   S    
C50   C77   A    
C81   C84   S    
C106  H31   S    
C100  H25   S    
C45   C48   A    
C11   C95   S    
C6    Cl15  S    
C59   C62   A    
C19   O20   A    
C12   C87   T    
C29   C41   A    
C4    Cl13  S    
C93   C99   S    
C12   C96   S    
C47   C74   A    
C69   Cl3   S    
C22   O24   A    
Cr4   O20   S    
C36   O11   A    
C9    C90   S    
C37   C103  S    
C79   C82   S    
C3    O9    A    
C44   C47   A    
C82   Cl10  S    
C29   C56   A    
C2    O1    A    
Cr1   O1    S    
Cr6   O19   S    
C23   O25   A    
Cr2   O11   S    
C35   C78   S    
C1    C17   S    
C73   H13   S    
C3    O2    A    
C9    C120  S    
C51   C54   A    
C110  H35   S    
C25   C76   A    
C99   O29   D    
C91   C97   S    
C108  H33   S    
C51   C78   A    
Cr6   O22   S    
C74   H14   S    
C35   O14   A    
C91   C94   S    
C15   C90   S    
C24   C86   S    
C34   O12   A    
C66   C75   A    
C13   C88   S    
C68   C92   S    
C6    H3    S    
C105  O35   D    
C114  H39   S    
C57   C72   A    
C109  H34   S    
C43   C46   A    
C104  O34   D    
C5    H2    S    
C55   C70   A    
C24   O26   A    
Cr6   O26   S    
C111  H36   S    
C31   C37   A    
C80   C113  S    
C112  H37   S    
C60   C111  S    
C61   C106  S    
C101  O31   D    
C79   C112  S    
C23   C85   S    
C13   C16   T    
C120  H45   S    
C113  O43   D    
C69   Cl6   S    
C10   C94   S    
C97   H22   S    
C30   C42   A    
C67   Cl1   S    
C8    C89   S    
C11   C86   T    
C21   O17   A    
C21   C47   S    
C98   H23   S    
C68   Cl2   S    
C36   O15   A    
Cr1   O16   S    
C46   C73   A    
C20   C46   S    
C3    C16   S    
C56   C71   A    
C110  O40   D    
C118  H43   S    
C54   C57   A    
C14   C17   T    
