data_mof_unit_60650.cif
_audit_creation_date              2012-12-10T19:07:32-0500
_audit_creation_method            fapswitch 2.2
_symmetry_space_group_name_H-M    P1
_symmetry_Int_Tables_number       1
_space_group_crystal_system       triclinic
_cell_length_a                    37.253291
_cell_length_b                    30.282803
_cell_length_c                    21.603158
_cell_angle_alpha                 90.145836
_cell_angle_beta                  54.372863
_cell_angle_gamma                 90.122849
_cell_volume                      19809.4965526

loop_
_atom_site_label
_atom_site_type_symbol
_atom_type_description
_atom_site_fract_x
_atom_site_fract_y
_atom_site_fract_z
_atom_type_partial_charge
C1    C     C_R   0.086266 0.500027 0.413307 0.960357
C2    C     C_R   0.026582 0.526815 0.192351 0.000532
C3    C     C_R   0.483416 0.342614 0.965281 -0.210292
C4    C     C_R   0.016813 0.842804 0.034099 -0.209912
C5    C     C_R   0.983416 0.842614 0.965281 -0.210292
C6    C     C_R   0.500133 0.586244 0.999909 1.050626
C7    C     C_R   0.000133 0.086244 0.999909 1.050626
C8    C     C_R   0.039844 0.296728 0.958592 0.525221
C9    C     C_R   0.958938 0.296714 0.037595 0.542567
C10   C     C_R   0.539843 0.796728 0.958593 0.525220
C11   C     C_R   0.458939 0.796714 0.037594 0.542567
C12   C     C_R   0.039749 0.342546 0.958125 -0.311767
C13   C     C_R   0.482482 0.034958 0.799996 -0.059793
C14   C     C_R   0.959555 0.342810 0.039692 -0.335713
C15   C     C_R   0.539749 0.842546 0.958125 -0.311765
C16   C     C_R   0.459555 0.842810 0.039691 -0.335713
C17   C     C_R   0.999784 0.365652 0.999492 -0.180900
C18   C     C_R   0.499784 0.865652 0.999492 -0.180900
C19   C     C_R   0.517198 0.296996 0.033401 -0.124546
C20   C     C_R   0.483046 0.296799 0.965938 -0.125631
C21   C     C_R   0.017198 0.796996 0.033401 -0.124545
C22   C     C_R   0.983046 0.796799 0.965938 -0.125631
C23   C     C_R   0.999326 0.273933 0.998703 0.001451
C24   C     C_R   0.526582 0.026815 0.192351 0.000531
C25   C     C_R   0.499326 0.773933 0.998703 0.001452
C26   C     C_R   0.481256 0.703313 0.068354 0.422265
C27   C     C_R   0.517038 0.702785 0.930873 0.440370
C28   C     C_R   0.981256 0.203313 0.068353 0.422266
C29   C     C_R   0.017037 0.202785 0.930873 0.440371
C30   C     C_R   0.481127 0.657418 0.068376 0.474687
C31   C     C_R   0.518525 0.656954 0.931004 0.464851
C32   C     C_R   0.981127 0.157418 0.068376 0.474685
C33   C     C_R   0.018525 0.156954 0.931004 0.464851
C34   C     C_R   0.500169 0.634169 0.999750 -0.488067
C35   C     C_3   0.936908 0.553584 0.848766 -0.503731
C36   C     C_R   0.000169 0.134169 0.999750 -0.488067
C37   C     C_R   0.500115 0.274108 0.999679 0.306619
C38   C     C_R   0.000115 0.774108 0.999679 0.306619
C39   C     C_R   0.032232 0.703473 0.933280 0.405316
C40   C     C_R   0.967904 0.703628 0.066346 0.404701
C41   C     C_R   0.532232 0.203473 0.933280 0.405316
C42   C     C_R   0.467904 0.203628 0.066346 0.404701
C43   C     C_R   0.983472 0.535664 0.735510 -0.011362
C44   C     C_R   0.025629 0.527719 0.255288 0.030400
C45   C     C_R   0.483472 0.035664 0.735510 -0.011361
C46   C     C_3   0.061034 0.561793 0.153056 -0.535563
C47   C     C_R   0.525629 0.027719 0.255288 0.030400
C48   C     C_R   0.002577 0.500842 0.683615 -0.029374
C49   C     C_R   0.998880 0.499584 0.315671 -0.092168
C50   C     C_R   0.502577 0.000842 0.683615 -0.029374
C51   C     C_R   0.498880 0.999583 0.315671 -0.092168
C52   C     C_R   0.026353 0.468260 0.691486 -0.209398
C53   C     C_R   0.971030 0.470251 0.311394 -0.204945
C54   C     C_R   0.526353 0.968260 0.691486 -0.209399
C55   C     C_R   0.471030 0.970251 0.311394 -0.204945
C56   C     C_R   0.026232 0.468199 0.756015 -0.191837
C57   C     C_3   0.436908 0.053584 0.848766 -0.503730
C58   C     C_R   0.970798 0.470474 0.246796 -0.198539
C59   C     C_R   0.526232 0.968199 0.756015 -0.191837
C60   C     C_R   0.470798 0.970474 0.246796 -0.198538
C61   C     C_3   0.232782 0.603383 0.276372 -0.245544
C62   C     C_3   0.767324 0.603213 0.724683 -0.250847
C63   C     C_3   0.732782 0.103384 0.276364 -0.245548
C64   C     C_3   0.267324 0.103213 0.724678 -0.250846
C65   C     C_3   0.042353 0.620659 0.830116 -0.259515
C66   C     C_3   0.957371 0.621107 0.170000 -0.269789
C67   C     C_3   0.542353 0.120659 0.830116 -0.259514
C68   C     C_3   0.561034 0.061793 0.153056 -0.535563
C69   C     C_3   0.457371 0.121107 0.170000 -0.269789
C70   C     C_3   0.096370 0.267441 0.957362 -0.297540
C71   C     C_3   0.891193 0.287899 0.058056 -0.290085
C72   C     C_3   0.596370 0.767441 0.957363 -0.297540
C73   C     C_3   0.391194 0.787899 0.058055 -0.290085
C74   C     C_3   0.059559 0.731806 0.815118 -0.225256
C75   C     C_3   0.940691 0.732120 0.184525 -0.224861
C76   C     C_3   0.559559 0.231806 0.815118 -0.225256
C77   C     C_3   0.440691 0.232120 0.184525 -0.224860
C78   C     C_3   0.490888 0.735641 0.152830 -0.221642
C79   C     C_3   0.937922 0.554485 0.777442 0.536131
C80   C     C_3   0.502334 0.729096 0.849791 -0.212383
C81   C     C_3   0.990889 0.235641 0.152829 -0.221644
C82   C     C_3   0.002333 0.229096 0.849791 -0.212380
C83   C     C_3   0.060198 0.562542 0.225221 0.540292
C84   C     C_3   0.437922 0.054485 0.777442 0.536129
C85   C     C_R   0.913736 0.499995 0.586710 0.968405
C86   C     C_3   0.560198 0.062542 0.225220 0.540293
C87   C     C_R   0.202764 0.462644 0.318072 -0.229855
C88   C     C_R   0.797215 0.462508 0.681663 -0.229485
C89   C     C_R   0.702764 0.962644 0.318074 -0.229855
C90   C     C_R   0.297215 0.962507 0.681665 -0.229485
C91   C     C_R   0.157024 0.462872 0.363380 -0.272616
C92   C     C_R   0.842958 0.462776 0.636346 -0.272651
C93   C     C_R   0.657024 0.962873 0.363383 -0.272618
C94   C     C_R   0.342958 0.962776 0.636348 -0.272652
C95   C     C_R   0.134272 0.500201 0.365185 -0.245422
C96   C     C_R   0.586266 0.000027 0.413307 0.960358
C97   C     C_R   0.865735 0.500098 0.634879 -0.238040
C98   C     C_R   0.634271 0.000201 0.365185 -0.245422
C99   C     C_R   0.365735 0.000098 0.634879 -0.238039
C100  C     C_R   0.157696 0.537507 0.321155 0.570658
C101  C     C_R   0.842343 0.537343 0.679279 0.563057
C102  C     C_R   0.657696 0.037506 0.321152 0.570659
C103  C     C_R   0.342343 0.037343 0.679277 0.563056
C104  C     C_R   0.203660 0.537635 0.276580 0.494753
C105  C     C_R   0.796381 0.537436 0.723859 0.495624
C106  C     C_R   0.703660 0.037635 0.276578 0.494753
C107  C     C_R   0.413736 0.999995 0.586710 0.968405
C108  C     C_R   0.296380 0.037436 0.723858 0.495625
C109  C     C_R   0.226044 0.499632 0.274095 -0.054951
C110  C     C_R   0.773963 0.499447 0.725986 -0.053191
C111  C     C_R   0.726044 0.999632 0.274095 -0.054950
C112  C     C_R   0.273963 0.999447 0.725986 -0.053192
C113  C     C_R   0.000056 0.500085 0.620158 0.908173
C114  C     C_R   0.999893 0.499905 0.380163 0.897871
C115  C     C_R   0.500056 0.000085 0.620158 0.908173
C116  C     C_R   0.499893 0.999905 0.380163 0.897871
C117  C     C_R   0.296928 0.502085 0.146737 0.731289
C118  C     C_R   0.001251 0.499866 0.812991 -0.010898
C119  C     C_R   0.703068 0.501812 0.853343 0.730904
C120  C     C_R   0.796928 0.002083 0.146737 0.731291
C121  C     C_R   0.203068 0.001814 0.853343 0.730904
C122  C     C_R   0.342692 0.502421 0.101190 -0.296451
C123  C     C_R   0.657306 0.502217 0.898867 -0.297417
C124  C     C_R   0.842692 0.002420 0.101189 -0.296451
C125  C     C_R   0.157306 0.002219 0.898867 -0.297417
C126  C     C_R   0.365601 0.499144 0.134426 -0.122580
C127  C     C_R   0.634401 0.499072 0.865581 -0.122371
C128  C     C_R   0.865601 0.999144 0.134426 -0.122581
C129  C     C_R   0.999447 0.499016 0.185959 -0.048948
C130  C     C_R   0.134401 0.999072 0.865581 -0.122370
C131  C     C_R   0.342301 0.494999 0.213630 -0.164945
C132  C     C_R   0.657705 0.494976 0.786345 -0.165209
C133  C     C_R   0.842301 0.995002 0.213630 -0.164944
C134  C     C_R   0.157705 0.994974 0.786345 -0.165210
C135  C     C_R   0.296517 0.494491 0.259157 -0.289277
C136  C     C_R   0.703489 0.494402 0.740838 -0.290062
C137  C     C_R   0.796517 0.994494 0.259157 -0.289277
C138  C     C_R   0.203489 0.994401 0.740838 -0.290061
C139  C     C_R   0.273891 0.498431 0.225788 0.025577
C140  C     C_R   0.501251 0.999865 0.812991 -0.010898
C141  C     C_R   0.726112 0.498225 0.774262 0.026133
C142  C     C_R   0.773891 0.998431 0.225788 0.025577
C143  C     C_R   0.226112 0.998225 0.774262 0.026133
C144  C     C_R   0.000036 0.634257 0.999961 -0.433935
C145  C     C_R   0.500036 0.134257 0.999961 -0.433935
C146  C     C_R   0.000075 0.726186 0.999761 -0.326474
C147  C     C_R   0.500075 0.226186 0.999761 -0.326474
C148  C     C_R   0.499203 0.725943 0.999350 -0.255647
C149  C     C_R   0.999203 0.225943 0.999350 -0.255648
C150  C     C_R   0.999965 0.413631 0.999996 0.932913
C151  C     C_R   0.499447 0.999016 0.185959 -0.048948
C152  C     C_R   0.499965 0.913632 0.999996 0.932913
C153  C     C_R   0.031224 0.657301 0.932211 0.386863
C154  C     C_R   0.968838 0.657462 0.067599 0.388048
C155  C     C_R   0.531224 0.157301 0.932210 0.386863
C156  C     C_R   0.468838 0.157462 0.067599 0.388048
C157  C     C_R   0.000112 0.499323 0.879852 0.850275
C158  C     C_R   0.999934 0.499705 0.119993 0.858245
C159  C     C_R   0.500112 0.999323 0.879852 0.850275
C160  C     C_R   0.499934 0.999705 0.119993 0.858245
C161  C     C_R   0.000013 0.586161 0.000039 0.972331
C162  C     C_R   0.982482 0.534957 0.799996 -0.059793
C163  C     C_R   0.500013 0.086161 0.000039 0.972331
C164  C     C_R   0.500094 0.365750 0.999730 -0.029627
C165  C     C_R   0.000094 0.865750 0.999730 -0.029626
C166  C     C_R   0.500020 0.413691 0.999914 0.863711
C167  C     C_R   0.000020 0.913691 0.999914 0.863711
C168  C     C_R   0.413630 0.499799 0.086427 0.907857
C169  C     C_R   0.586371 0.499788 0.913572 0.906486
C170  C     C_R   0.913630 0.999799 0.086427 0.907857
C171  C     C_R   0.086371 0.999788 0.913572 0.906486
C172  C     C_R   0.516813 0.342804 0.034099 -0.209911
F1    F     F_    0.275093 0.505058 0.113936 -0.623414
F2    F     F_    0.098732 0.546382 0.212402 -0.588336
F3    F     F_    0.408127 0.025175 0.781122 -0.611113
F4    F     F_    0.598732 0.046382 0.212402 -0.588332
F5    F     F_    0.136332 0.573510 0.320170 -0.602177
F6    F     F_    0.863745 0.573315 0.680620 -0.615861
F7    F     F_    0.636332 0.073509 0.320165 -0.602175
F8    F     F_    0.363745 0.073316 0.680616 -0.615862
F9    F     F_    0.724896 0.504675 0.886194 -0.624990
F10   F     F_    0.775093 0.005054 0.113936 -0.623415
F11   F     F_    0.224896 0.004678 0.886194 -0.624990
F12   F     F_    0.461512 0.635795 0.135787 -0.606303
F13   F     F_    0.538249 0.634966 0.863767 -0.610396
F14   F     F_    0.961512 0.135795 0.135787 -0.606303
F15   F     F_    0.038248 0.134966 0.863767 -0.610395
F16   F     F_    0.908127 0.525175 0.781122 -0.611111
H1    H     H_    0.043814 0.442478 0.649188 0.158104
H2    H     H_    0.640644 0.492291 0.759572 0.181537
H3    H     H_    0.427726 0.264835 0.211873 0.180836
H4    H     H_    0.512312 0.763585 0.117044 0.122598
H5    H     H_    0.511217 0.706490 0.145666 0.161703
H6    H     H_    0.472592 0.746376 0.213094 0.197531
H7    H     H_    0.516459 0.747637 0.796053 0.187733
H8    H     H_    0.473324 0.748012 0.896156 0.127538
H9    H     H_    0.491713 0.696186 0.842857 0.187343
H10   H     H_    0.012313 0.263585 0.117043 0.122599
H11   H     H_    0.011218 0.206490 0.145665 0.161704
H12   H     H_    0.972593 0.246376 0.213093 0.197532
H13   H     H_    0.859365 0.992220 0.240363 0.181629
H14   H     H_    0.016458 0.247637 0.796054 0.187733
H15   H     H_    0.973324 0.248013 0.896157 0.127537
H16   H     H_    0.991712 0.196186 0.842859 0.187341
H17   H     H_    0.140644 0.992287 0.759572 0.181537
H18   H     H_    0.278677 0.491721 0.320377 0.171311
H19   H     H_    0.721334 0.491689 0.679593 0.170805
H20   H     H_    0.778677 0.991725 0.320378 0.171311
H21   H     H_    0.221334 0.991686 0.679594 0.170805
H22   H     H_    0.530838 0.279397 0.058857 0.126098
H23   H     H_    0.469395 0.279043 0.940495 0.125463
H24   H     H_    0.030838 0.779397 0.058857 0.126098
H25   H     H_    0.949382 0.447866 0.357790 0.156534
H26   H     H_    0.969395 0.779043 0.940495 0.125463
H27   H     H_    0.530117 0.360254 0.060409 0.161802
H28   H     H_    0.470093 0.359919 0.939020 0.161511
H29   H     H_    0.030117 0.860254 0.060409 0.161802
H30   H     H_    0.970093 0.859919 0.939021 0.161511
H31   H     H_    0.071065 0.359852 0.925579 0.198838
H32   H     H_    0.928703 0.360749 0.072703 0.188057
H33   H     H_    0.571066 0.859852 0.925580 0.198838
H34   H     H_    0.428703 0.860749 0.072702 0.188057
H35   H     H_    0.043567 0.442379 0.763302 0.151182
H36   H     H_    0.543814 0.942478 0.649188 0.158104
H37   H     H_    0.949066 0.448171 0.243814 0.158176
H38   H     H_    0.543567 0.942379 0.763302 0.151182
H39   H     H_    0.449066 0.948171 0.243814 0.158176
H40   H     H_    0.912472 0.529933 0.892726 0.254116
H41   H     H_    0.092386 0.549075 0.101582 0.256650
H42   H     H_    0.412472 0.029933 0.892726 0.254115
H43   H     H_    0.592386 0.049075 0.101582 0.256650
H44   H     H_    0.936491 0.587074 0.870360 0.154743
H45   H     H_    0.048140 0.592553 0.144683 0.145807
H46   H     H_    0.436491 0.087074 0.870360 0.154743
H47   H     H_    0.449382 0.947866 0.357790 0.156534
H48   H     H_    0.548140 0.092553 0.144683 0.145807
H49   H     H_    0.937021 0.588175 0.758103 0.088782
H50   H     H_    0.048128 0.593878 0.258175 0.073492
H51   H     H_    0.437021 0.088175 0.758103 0.088782
H52   H     H_    0.548128 0.093878 0.258175 0.073492
H53   H     H_    0.220088 0.433507 0.316594 0.182177
H54   H     H_    0.779867 0.433383 0.682866 0.181929
H55   H     H_    0.720088 0.933508 0.316598 0.182177
H56   H     H_    0.279867 0.933382 0.682869 0.181929
H57   H     H_    0.139463 0.433953 0.397259 0.196410
H58   H     H_    0.360090 0.505426 0.040119 0.193924
H59   H     H_    0.860505 0.433905 0.602180 0.195361
H60   H     H_    0.639463 0.933955 0.397263 0.196409
H61   H     H_    0.360505 0.933904 0.602183 0.195362
H62   H     H_    0.252338 0.587827 0.294464 0.139606
H63   H     H_    0.200617 0.615538 0.326918 0.176227
H64   H     H_    0.251633 0.632460 0.240851 0.207499
H65   H     H_    0.747763 0.587707 0.706425 0.140763
H66   H     H_    0.799504 0.615425 0.674264 0.177324
H67   H     H_    0.748494 0.632246 0.760481 0.206452
H68   H     H_    0.752338 0.087829 0.294458 0.139607
H69   H     H_    0.639907 0.505173 0.959961 0.193665
H70   H     H_    0.700616 0.115539 0.326910 0.176229
H71   H     H_    0.751633 0.132460 0.240841 0.207499
H72   H     H_    0.247763 0.087706 0.706421 0.140762
H73   H     H_    0.299504 0.115424 0.674258 0.177324
H74   H     H_    0.248494 0.132246 0.760475 0.206452
H75   H     H_    0.019632 0.592600 0.861261 0.151210
H76   H     H_    0.068581 0.608872 0.771943 0.191754
H77   H     H_    0.024068 0.647480 0.824478 0.115925
H78   H     H_    0.978990 0.592159 0.140236 0.150428
H79   H     H_    0.930919 0.610632 0.228880 0.190870
H80   H     H_    0.860090 0.005422 0.040119 0.193924
H81   H     H_    0.976717 0.647603 0.173937 0.114899
H82   H     H_    0.519632 0.092600 0.861261 0.151209
H83   H     H_    0.568581 0.108872 0.771943 0.191754
H84   H     H_    0.524068 0.147480 0.824478 0.115924
H85   H     H_    0.478990 0.092159 0.140236 0.150428
H86   H     H_    0.430919 0.110632 0.228880 0.190870
H87   H     H_    0.476717 0.147603 0.173937 0.114899
H88   H     H_    0.077469 0.240993 0.000053 0.145052
H89   H     H_    0.096722 0.298207 0.985423 0.150102
H90   H     H_    0.131010 0.255917 0.918486 0.210308
H91   H     H_    0.139907 0.005176 0.959961 0.193665
H92   H     H_    0.909076 0.295322 0.996240 0.138485
H93   H     H_    0.872187 0.317159 0.092999 0.173205
H94   H     H_    0.867004 0.261373 0.071956 0.203220
H95   H     H_    0.577469 0.740993 0.000055 0.145051
H96   H     H_    0.596721 0.798207 0.985425 0.150102
H97   H     H_    0.631010 0.755917 0.918488 0.210308
H98   H     H_    0.409077 0.795323 0.996239 0.138485
H99   H     H_    0.372187 0.817159 0.092998 0.173206
H100  H     H_    0.367005 0.761373 0.071954 0.203221
H101  H     H_    0.024121 0.730525 0.836729 0.104089
H102  H     H_    0.359365 0.492217 0.240362 0.181628
H103  H     H_    0.078539 0.706453 0.770185 0.193820
H104  H     H_    0.072458 0.764572 0.788088 0.180863
H105  H     H_    0.976142 0.730981 0.162840 0.104946
H106  H     H_    0.921785 0.706695 0.229227 0.193852
H107  H     H_    0.927726 0.764835 0.211873 0.180836
H108  H     H_    0.524121 0.230525 0.836729 0.104089
H109  H     H_    0.578539 0.206453 0.770185 0.193820
H110  H     H_    0.572458 0.264572 0.788088 0.180863
H111  H     H_    0.476142 0.230981 0.162840 0.104946
H112  H     H_    0.421784 0.206695 0.229227 0.193852
O1    O     O_R   0.065460 0.536930 0.434540 -0.562875
O2    O     O_R   0.565500 0.499990 0.986230 -0.632255
O3    O     O_R   0.934500 0.999990 0.013770 -0.631982
O4    O     O_R   0.065500 0.999990 0.986230 -0.632255
O5    O     O_R   0.500010 0.565450 0.051710 -0.570916
O6    O     O_R   0.499990 0.565450 0.948290 -0.569482
O7    O     O_R   0.000010 0.065450 0.051710 -0.570916
O8    O     O_R   0.999990 0.065450 0.948290 -0.569482
O9    O     O_R   0.065420 0.463020 0.434580 -0.636225
O10   O     O_R   0.934580 0.463020 0.565420 -0.633321
O11   O     O_R   0.565420 0.963020 0.434580 -0.636224
O12   O     O_R   0.934540 0.536930 0.565460 -0.565928
O13   O     O_R   0.434580 0.963020 0.565420 -0.633321
O14   O     O_R   0.000000 0.536930 0.591610 -0.630626
O15   O     O_R   0.000000 0.536930 0.408390 -0.629465
O16   O     O_R   0.500000 0.036930 0.591610 -0.630627
O17   O     O_R   0.500000 0.036930 0.408390 -0.629464
O18   O     O_R   0.999960 0.463020 0.591650 -0.623400
O19   O     O_R   0.000040 0.463020 0.408350 -0.622577
O20   O     O_R   0.499960 0.963020 0.591650 -0.623400
O21   O     O_R   0.500040 0.963020 0.408350 -0.622577
O22   O     O_R   0.963030 0.434450 0.036960 -0.629673
O23   O     O_R   0.565460 0.036930 0.434540 -0.562878
O24   O     O_R   0.036970 0.434450 0.963040 -0.628356
O25   O     O_R   0.463030 0.934450 0.036960 -0.629673
O26   O     O_R   0.536970 0.934450 0.963040 -0.628356
O27   O     O_R   0.963010 0.499910 0.945370 -0.619324
O28   O     O_R   0.036990 0.499910 0.054630 -0.613123
O29   O     O_R   0.463010 0.999910 0.945370 -0.619324
O30   O     O_R   0.536990 0.999910 0.054630 -0.613122
O31   O     O_R   0.036930 0.499960 0.871460 -0.623235
O32   O     O_R   0.963070 0.499960 0.128540 -0.627041
O33   O     O_R   0.536930 0.999960 0.871460 -0.623235
O34   O     O_R   0.434540 0.036930 0.565460 -0.565926
O35   O     O_R   0.463070 0.999960 0.128540 -0.627041
O36   O     O_R   0.963000 0.565380 0.037000 -0.581482
O37   O     O_R   0.037000 0.565380 0.963000 -0.580983
O38   O     O_R   0.463000 0.065380 0.037000 -0.581482
O39   O     O_R   0.537000 0.065380 0.963000 -0.580983
O40   O     O_R   0.499940 0.434520 0.051770 -0.628555
O41   O     O_R   0.500060 0.434520 0.948230 -0.628708
O42   O     O_R   0.999940 0.934520 0.051770 -0.628555
O43   O     O_R   0.000060 0.934520 0.948230 -0.628708
O44   O     O_3   0.226661 0.574085 0.232432 -0.534049
O45   O     O_R   0.434510 0.499990 0.117200 -0.617766
O46   O     O_3   0.773411 0.573834 0.768352 -0.537544
O47   O     O_3   0.726661 0.074084 0.232426 -0.534048
O48   O     O_3   0.273411 0.073835 0.768348 -0.537544
O49   O     O_3   0.062355 0.635178 0.865612 -0.541520
O50   O     O_3   0.937567 0.635510 0.134221 -0.540128
O51   O     O_3   0.562355 0.135178 0.865612 -0.541520
O52   O     O_3   0.437567 0.135510 0.134221 -0.540128
O53   O     O_3   0.079609 0.274497 0.914197 -0.552928
O54   O     O_3   0.919651 0.272917 0.076733 -0.561722
O55   O     O_3   0.579609 0.774497 0.914198 -0.552928
O56   O     O_R   0.565490 0.499990 0.882800 -0.617928
O57   O     O_3   0.419651 0.772917 0.076732 -0.561722
O58   O     O_3   0.066816 0.726667 0.871973 -0.557058
O59   O     O_3   0.933426 0.726967 0.127641 -0.557607
O60   O     O_3   0.566816 0.226667 0.871973 -0.557058
O61   O     O_3   0.433426 0.226967 0.127641 -0.557608
O62   O     O_3   0.460022 0.725661 0.137022 -0.515526
O63   O     O_3   0.535050 0.725041 0.862976 -0.521879
O64   O     O_3   0.960022 0.225661 0.137022 -0.515525
O65   O     O_3   0.035050 0.225041 0.862976 -0.521879
O66   O     O_R   0.934510 0.999990 0.117200 -0.617767
O67   O     O_R   0.065490 0.999990 0.882800 -0.617928
O68   O     O_R   0.434500 0.499990 0.013770 -0.631982
Zn1   Zn    Zn3+2 1.000000 0.549330 0.500000 1.050346
Zn2   Zn    Zn3+2 0.500020 0.499990 0.930910 1.015049
Zn3   Zn    Zn3+2 0.999980 0.999990 0.069090 1.014644
Zn4   Zn    Zn3+2 0.000020 0.999990 0.930910 1.015049
Zn5   Zn    Zn3+2 0.500000 0.049330 0.500000 1.050346
Zn6   Zn    Zn3+2 0.000000 0.450620 0.500000 0.982751
Zn7   Zn    Zn3+2 0.500000 0.950620 0.500000 0.982752
Zn8   Zn    Zn3+2 0.950620 0.499900 0.049380 0.993854
Zn9   Zn    Zn3+2 0.049380 0.499900 0.950620 1.002336
Zn10  Zn    Zn3+2 0.450620 0.999900 0.049380 0.993854
Zn11  Zn    Zn3+2 0.549380 0.999900 0.950620 1.002336
Zn12  Zn    Zn3+2 0.499980 0.499990 0.069090 1.014643

loop_
_geom_bond_atom_site_label_1
_geom_bond_atom_site_label_2
_ccdc_geom_bond_type
C99   C103  A    
C105  C110  A    
O36   Zn8   S    
C133  C137  A    
C87   C91   A    
C1    C95   S    
C16   H34   S    
C27   O63   S    
C156  O52   S    
C40   C154  A    
C6    O6    A    
C135  C139  A    
O20   Zn7   S    
O27   Zn8   S    
C138  C143  A    
C140  C159  S    
C87   H53   S    
C22   C38   A    
C29   C33   A    
C100  C104  A    
C8    C23   A    
C39   O58   S    
C19   C37   A    
C111  C142  S    
C161  O37   A    
C61   H62   S    
C157  O27   A    
C86   H52   S    
C89   H55   S    
C153  O49   S    
O67   Zn4   S    
C72   H96   S    
C41   O60   S    
C167  O43   A    
O13   Zn7   S    
C77   O61   S    
C23   C149  S    
C135  H18   S    
O22   Zn8   S    
C40   O59   S    
C113  O18   A    
C14   H32   S    
C117  C139  A    
C18   C152  S    
C42   C147  A    
O8    Zn4   S    
C133  H13   S    
C80   H8    S    
C42   O61   S    
O17   Zn5   S    
C47   C86   S    
C28   C32   A    
C63   H70   S    
C81   H10   S    
C82   H14   S    
C64   H73   S    
C134  H17   S    
C98   C102  A    
C124  H80   S    
C96   O23   A    
O7    Zn3   S    
C78   H5    S    
C42   C156  A    
C136  C141  A    
O33   Zn11  S    
C24   C151  A    
C130  C171  S    
C69   O52   S    
C120  C142  A    
C37   C147  S    
C26   C148  A    
O23   Zn5   S    
C3    C164  A    
O4    Zn3   S    
C67   H84   S    
C163  O38   A    
C159  O33   A    
O10   Zn6   S    
C119  C141  A    
C46   H41   S    
C65   H76   S    
C63   O47   S    
C106  C111  A    
C108  O48   S    
C132  H2    S    
C124  C128  A    
C117  F1    S    
C118  C162  A    
C71   H94   S    
C72   H97   S    
C136  H19   S    
C53   C58   A    
C85   O10   A    
C119  C123  A    
C69   H85   S    
C51   C116  S    
C70   H90   S    
C74   O58   S    
C170  O3    A    
C169  O56   A    
C13   C45   A    
C57   H42   S    
C52   C56   A    
C45   C50   A    
C61   H64   S    
C49   C53   A    
C122  H58   S    
C51   C55   A    
C52   H1    S    
C144  C154  A    
C74   H103  S    
C85   C97   S    
C96   O11   A    
C29   C149  A    
O1    Zn1   S    
C48   C52   A    
C107  O34   A    
C114  O19   A    
C166  O40   A    
C120  F10   S    
O66   Zn3   S    
C66   H79   S    
C15   C18   A    
C67   O51   S    
C137  C142  A    
C161  O36   A    
C15   H33   S    
C61   O44   S    
C90   H56   S    
C110  C141  S    
C19   H22   S    
C44   C83   S    
C76   O60   S    
C33   C36   A    
C81   H12   S    
O11   Zn7   S    
C123  H69   S    
C32   C36   A    
C50   C115  S    
C75   H106  S    
C78   H6    S    
C76   H109  S    
C13   C57   S    
C11   C25   A    
C58   C129  A    
C2    C129  A    
C126  C131  A    
C103  F8    S    
C59   H38   S    
C38   C146  S    
C101  F6    S    
C67   H82   S    
C73   H98   S    
C21   C38   A    
C2    C44   A    
C96   C98   S    
C84   F3    S    
C8    C12   A    
C77   H111  S    
O30   Zn11  S    
C152  O26   A    
C28   C149  A    
C165  C167  S    
C14   C17   A    
O2    Zn12  S    
C116  O21   A    
C129  C158  S    
C92   C97   A    
C85   O12   A    
C54   C59   A    
C160  O30   A    
C62   H67   S    
C69   H87   S    
C70   H88   S    
C79   F16   S    
C30   C34   A    
O34   Zn5   S    
C19   C172  A    
O19   Zn6   S    
C9    C23   A    
C145  C163  S    
O5    Zn12  S    
O37   Zn9   S    
C74   H101  S    
C117  C122  A    
C121  C125  A    
C63   H71   S    
C168  O45   A    
C107  O13   A    
C123  C127  A    
C63   H68   S    
C132  C136  A    
C31   F13   S    
C31   C34   A    
C115  O16   A    
C171  O67   A    
C10   C25   A    
C26   C30   A    
C164  C172  A    
C84   H51   S    
C163  O39   A    
C53   H25   S    
O31   Zn9   S    
C152  O25   A    
C56   H35   S    
C68   H43   S    
O3    Zn4   S    
O40   Zn12  S    
C21   H24   S    
C40   C146  A    
C66   O50   S    
C88   C110  A    
C75   O59   S    
C20   C37   A    
C73   H100  S    
C35   C79   S    
C60   C151  A    
C89   C93   A    
C71   O54   S    
C91   C95   A    
C43   C162  A    
C83   F2    S    
O38   Zn10  S    
C41   C155  A    
C137  H20   S    
C62   H65   S    
C144  C161  S    
C7    C36   S    
C158  O28   A    
C17   C150  S    
C8    O53   S    
C65   H77   S    
O68   Zn2   S    
C57   H46   S    
C170  O66   A    
C11   O57   S    
C130  C134  A    
C50   C54   A    
C39   C153  A    
C112  C143  S    
O41   Zn2   S    
C126  C168  S    
C88   H54   S    
C82   H15   S    
C64   H74   S    
C115  O20   A    
C4    C165  A    
C105  O46   S    
C119  F9    S    
C75   H107  S    
C145  C156  A    
C27   C148  A    
C12   C17   A    
C154  O50   S    
O14   Zn1   S    
C78   O62   S    
C67   H83   S    
C49   C114  S    
C83   H50   S    
C55   C60   A    
C65   H75   S    
C28   O64   S    
C62   O46   S    
C90   C94   A    
C6    O5    A    
C10   O55   S    
C35   H40   S    
C71   H93   S    
C13   C140  A    
C78   H4    S    
C95   C100  A    
C47   C51   A    
C3    H28   S    
C27   C31   A    
C108  C112  A    
O6    Zn2   S    
C77   H3    S    
C9    C14   A    
C9    O54   S    
C11   C16   A    
C54   H36   S    
C5    H30   S    
O15   Zn1   S    
C57   C84   S    
O16   Zn5   S    
C72   H95   S    
C74   H104  S    
C80   O63   S    
C58   H37   S    
C29   O65   S    
C127  C169  S    
C166  O41   A    
C80   H7    S    
C1    O9    A    
C59   C140  A    
C56   C118  A    
C55   H47   S    
O24   Zn9   S    
C81   H11   S    
C87   C109  A    
O45   Zn12  S    
C99   C107  S    
C32   F14   S    
C73   O57   S    
C81   O64   S    
C75   H105  S    
C66   H81   S    
C76   H110  S    
C150  O24   A    
C39   C146  A    
C65   O49   S    
C25   C148  S    
C24   C68   S    
C46   C83   S    
C6    C34   S    
C64   O48   S    
C118  C157  S    
C72   O55   S    
C48   C113  S    
C44   C49   A    
C91   H57   S    
C128  C170  S    
C157  O31   A    
O28   Zn9   S    
C68   C86   S    
C121  C143  A    
C90   C112  A    
C2    C46   S    
C160  O35   A    
C69   H86   S    
O32   Zn8   S    
C70   H89   S    
C113  O14   A    
C94   C99   A    
C76   H108  S    
C131  C135  A    
C10   C15   A    
C104  C109  A    
C43   C79   S    
C20   H23   S    
C144  C153  A    
C127  C132  A    
C68   H48   S    
C167  O42   A    
C125  C130  A    
C5    C22   A    
C88   C92   A    
O12   Zn1   S    
C103  C108  A    
C5    C165  A    
C172  H27   S    
C43   C48   A    
C12   H31   S    
C155  O51   S    
C66   H78   S    
C61   H63   S    
C121  F11   S    
C35   H44   S    
C102  F7    S    
C1    O1    A    
C100  F5    S    
O26   Zn11  S    
C92   H59   S    
C101  C105  A    
O35   Zn10  S    
C159  O29   A    
C35   C162  S    
C46   H45   S    
C3    C20   A    
O56   Zn2   S    
C80   H9    S    
O9    Zn6   S    
C150  O22   A    
C125  H91   S    
O42   Zn3   S    
C122  C126  A    
C169  O2    A    
C93   H60   S    
C171  O4    A    
C73   H99   S    
C41   C147  A    
C26   O62   S    
C106  O47   S    
O21   Zn7   S    
C33   F15   S    
O43   Zn4   S    
C77   H112  S    
C16   C18   A    
C7    O8    A    
C4    H29   S    
C22   H26   S    
C45   C84   S    
C79   H49   S    
C94   H61   S    
C104  O44   S    
C62   H66   S    
C131  H102  S    
C24   C47   A    
C30   F12   S    
C114  O15   A    
C134  C138  A    
C116  O17   A    
C158  O32   A    
C89   C111  A    
C138  H21   S    
C71   H92   S    
C70   O53   S    
C109  C139  S    
C60   H39   S    
C151  C160  S    
C164  C166  S    
C128  C133  A    
C82   H16   S    
C4    C21   A    
O25   Zn10  S    
C102  C106  A    
C86   F4    S    
O18   Zn6   S    
C7    O7    A    
C145  C155  A    
C82   O65   S    
C120  C124  A    
C168  O68   A    
O29   Zn10  S    
O39   Zn11  S    
C93   C98   A    
C97   C101  A    
C64   H72   S    
