data_mof_unit_24444.cif
_audit_creation_date              2012-12-10T17:43:35-0500
_audit_creation_method            fapswitch 2.2
_symmetry_space_group_name_H-M    P1
_symmetry_Int_Tables_number       1
_space_group_crystal_system       triclinic
_cell_length_a                    14.882022
_cell_length_b                    10.676155
_cell_length_c                    10.018909
_cell_angle_alpha                 90.669888
_cell_angle_beta                  89.029594
_cell_angle_gamma                 92.80555
_cell_volume                      1589.60200588

loop_
_atom_site_label
_atom_site_type_symbol
_atom_type_description
_atom_site_fract_x
_atom_site_fract_y
_atom_site_fract_z
_atom_type_partial_charge
C1    C     C_R   0.505914 0.261218 0.500161 1.002658
C2    C     C_R   0.911689 0.614792 0.489223 -0.060684
C3    C     C_R   0.942643 0.270308 0.488819 -0.199948
C4    C     C_R   0.036140 0.265511 0.492434 0.119518
C5    C     C_R   0.089600 0.379739 0.495135 0.040102
C6    C     C_R   0.047307 0.496580 0.494110 -0.085000
C7    C     C_R   0.098535 0.612029 0.496272 0.000962
C8    C     C_R   0.056417 0.726599 0.493603 0.628198
C9    C     C_R   0.963370 0.727796 0.489612 -0.260732
C10   C     C_R   0.183779 0.382687 0.498629 0.562883
C11   C     C_R   0.232237 0.497483 0.502100 -0.192806
C12   C     C_R   0.327548 0.499490 0.500902 0.994245
C13   C     C_R   0.191219 0.610954 0.500607 -0.249384
C14   C     C_R   0.652034 0.135589 0.643165 0.545095
C15   C     C_R   0.720144 0.072102 0.706001 0.097949
C16   C     C_R   0.718208 0.940403 0.701465 0.159588
C17   C     C_R   0.648570 0.875016 0.634734 -0.074647
C18   C     C_R   0.580139 0.937774 0.570677 -0.114850
C19   C     C_R   0.581897 0.069496 0.572653 -0.065598
C20   C     C_R   0.513027 0.128541 0.502704 -0.156781
C21   C     C_R   0.444279 0.059378 0.439210 -0.258106
C22   C     C_R   0.442904 0.931803 0.437783 0.631968
C23   C     C_R   0.502979 0.738992 0.500719 0.907108
C24   C     C_R   0.509831 0.871582 0.502769 -0.182265
C25   C     C_R   0.350618 0.388504 0.137050 0.116770
C26   C     C_R   0.268228 0.388265 0.072103 0.562965
C27   C     C_R   0.269384 0.374235 0.933776 -0.101777
C28   C     C_R   0.352318 0.386418 0.865493 0.636294
C29   C     C_R   0.427761 0.444773 0.929042 -0.165836
C30   C     C_R   0.427257 0.445719 0.072375 -0.058943
C31   C     C_R   0.568419 0.556914 0.068994 0.075553
C32   C     C_R   0.567977 0.555754 0.926312 0.678188
C33   C     C_R   0.672706 0.501924 0.498485 0.972697
C34   C     C_R   0.818393 0.615237 0.487975 0.532099
C35   C     C_R   0.768273 0.501826 0.493557 -0.139728
C36   C     C_R   0.808939 0.387472 0.488488 -0.290266
C37   C     C_R   0.901793 0.384966 0.489058 0.104715
C38   C     C_R   0.953732 0.498708 0.491123 0.012637
H1    H     H_    0.649364 0.774030 0.632335 0.222652
H2    H     H_    0.768380 0.300659 0.483266 0.193325
H3    H     H_    0.901056 0.183963 0.486840 0.149244
H4    H     H_    0.232148 0.697937 0.501919 0.242448
H5    H     H_    0.931970 0.817226 0.488088 0.209443
H6    H     H_    0.388835 0.103518 0.394848 0.194892
N1    N     N_R   0.499150 0.498800 0.142780 -0.103433
N2    N     N_R   0.499120 0.498720 0.857170 -0.140194
O1    O     O_R   0.500000 0.316780 0.614690 -0.477834
O2    O     O_R   0.499990 0.316750 0.385360 -0.664891
O3    O     O_R   0.367850 0.499980 0.614680 -0.581636
O4    O     O_R   0.367840 0.499960 0.385350 -0.602360
O5    O     O_R   0.500010 0.683250 0.614640 -0.629044
O6    O     O_R   0.500000 0.683220 0.385310 -0.591621
O7    O     O_R   0.632160 0.500040 0.614650 -0.514438
O8    O     O_R   0.632150 0.500020 0.385320 -0.652093
Zn1   Zn    Zn3+2 0.500010 0.500020 0.653130 1.095097
Zn2   Zn    Zn3+2 0.499990 0.499980 0.346870 0.983009
F1    F     F_    0.776406 0.724751 0.478410 -0.722200
F2    F     F_    0.655253 0.261634 0.654140 -0.691129
C39   C     C_3   0.794737 0.145053 0.777960 -0.812135
H7    H     H_    0.789189 0.248054 0.771886 0.291015
H8    H     H_    0.793169 0.119951 0.885193 0.241064
H9    H     H_    0.860917 0.122595 0.733485 0.225337
C40   C     C_3   0.789759 0.868259 0.767359 -0.753551
H10   H     H_    0.856717 0.894344 0.722626 0.231763
H11   H     H_    0.790393 0.889492 0.876059 0.232701
H12   H     H_    0.777909 0.765332 0.754715 0.278688
F3    F     F_    0.373980 0.866454 0.377088 -0.648026
C41   C     C_3   0.646558 0.623778 0.136805 -0.690669
H13   H     H_    0.682656 0.692113 0.069823 0.239845
H14   H     H_    0.623556 0.678694 0.223855 0.264224
H15   H     H_    0.695567 0.554733 0.166555 0.241664
C42   C     C_3   0.361115 0.270094 0.212883 -0.681889
H16   H     H_    0.313688 0.193011 0.178378 0.232752
H17   H     H_    0.428853 0.233663 0.194653 0.225579
H18   H     H_    0.345291 0.285281 0.319334 0.287981
F4    F     F_    0.191078 0.359093 0.142095 -0.643350
C43   C     C_3   0.184812 0.329885 0.864107 -0.687013
H19   H     H_    0.158989 0.239145 0.906385 0.259199
H20   H     H_    0.132927 0.400400 0.877813 0.233923
H21   H     H_    0.196632 0.315900 0.755893 0.267931
F5    F     F_    0.361699 0.318969 0.751954 -0.607379
F6    F     F_    0.636993 0.612896 0.856660 -0.682433
C44   C     C_3   0.075228 0.137666 0.493746 -0.611543
H22   H     H_    0.119300 0.125326 0.404509 0.295306
H23   H     H_    0.113648 0.126503 0.586537 0.267689
H24   H     H_    0.022060 0.060944 0.491291 0.215808
F7    F     F_    0.230065 0.276239 0.501032 -0.691745
F8    F     F_    0.105320 0.837387 0.495035 -0.666818

loop_
_geom_bond_atom_site_label_1
_geom_bond_atom_site_label_2
_ccdc_geom_bond_type
C40   H11   S    
C30   N1    A    
C35   C36   A    
C12   O3    A    
C7    C8    A    
C43   H19   S    
C26   C27   A    
C29   C30   A    
C44   H22   S    
C18   C24   A    
C36   C37   A    
C34   C35   A    
C5    C6    A    
C15   C16   A    
C25   C30   A    
C18   C19   A    
C17   H1    S    
C41   H13   S    
C3    H3    S    
C19   C20   A    
N1    Zn2   S    
C8    C9    A    
C39   H9    S    
N2    Zn1   S    
C34   F1    S    
C26   F4    S    
C23   C24   S    
C6    C38   A    
C16   C40   S    
C2    C34   A    
C43   H20   S    
C40   H12   S    
C39   H7    S    
C21   C22   A    
C15   C39   S    
C42   H18   S    
C13   H4    S    
O7    Zn1   S    
C33   O7    A    
C31   C41   S    
C14   F2    S    
O8    Zn2   S    
C10   F7    S    
C9    H5    S    
C39   H8    S    
C36   H2    S    
C42   H17   S    
C42   H16   S    
C25   C26   A    
O3    Zn1   S    
O4    Zn2   S    
C8    F8    S    
C37   C38   A    
C21   H6    S    
C2    C38   A    
C23   O5    A    
C31   C32   A    
C17   C18   A    
C25   C42   S    
C44   H23   S    
C22   C24   A    
C3    C4    A    
O1    Zn1   S    
C43   H21   S    
C33   O8    A    
O2    Zn2   S    
C28   C29   A    
C1    C20   S    
C28   F5    S    
C32   N2    A    
C14   C19   A    
C1    O1    A    
C4    C5    A    
C27   C43   S    
C12   O4    A    
C11   C12   S    
C1    O2    A    
C6    C7    A    
C32   F6    S    
C29   N2    A    
C5    C10   A    
C11   C13   A    
C23   O6    A    
C16   C17   A    
C4    C44   S    
C41   H15   S    
C33   C35   S    
O5    Zn1   S    
C22   F3    S    
C10   C11   A    
C40   H10   S    
C7    C13   A    
C44   H24   S    
C20   C21   A    
C3    C37   A    
C41   H14   S    
C31   N1    A    
C27   C28   A    
C14   C15   A    
C2    C9    A    
O6    Zn2   S    
