data_mof_unit_29051.cif
_audit_creation_date              2012-12-10T18:21:13-0500
_audit_creation_method            fapswitch 2.2
_symmetry_space_group_name_H-M    P1
_symmetry_Int_Tables_number       1
_space_group_crystal_system       triclinic
_cell_length_a                    9.417867
_cell_length_b                    10.582734
_cell_length_c                    17.373056
_cell_angle_alpha                 90.729985
_cell_angle_beta                  88.017914
_cell_angle_gamma                 89.339826
_cell_volume                      1730.21615958

loop_
_atom_site_label
_atom_site_type_symbol
_atom_type_description
_atom_site_fract_x
_atom_site_fract_y
_atom_site_fract_z
_atom_type_partial_charge
C1    C     C_R   0.499405 0.740490 0.499566 0.795505
C2    C     C_R   0.500713 0.259423 0.499791 0.797407
C3    C     C_3   0.366170 0.960861 0.491849 -0.126854
C4    C     C_3   0.634553 0.038758 0.506428 -0.130566
C5    C     C_3   0.449602 0.041539 0.432679 -0.177514
C6    C     C_3   0.551152 0.958200 0.565720 -0.174211
C7    C     C_3   0.501894 0.122426 0.499453 0.032293
C8    C     C_3   0.498676 0.877315 0.499037 0.036840
C9    C     C_3   0.418454 0.044059 0.558688 -0.174182
C10   C     C_3   0.582041 0.955429 0.439724 -0.175296
C11   C     C_3   0.954379 0.399159 0.469005 0.597689
C12   C     C_3   0.045173 0.600792 0.531262 0.601989
C13   C     C_3   0.049998 0.404211 0.538321 -0.201637
C14   C     C_3   0.950049 0.595489 0.461750 -0.178255
C15   C     C_3   0.054934 0.492743 0.430151 -0.151227
C16   C     C_3   0.944713 0.506707 0.570064 -0.183642
C17   C     C_R   0.484159 0.495839 0.649690 0.870864
C18   C     C_R   0.515664 0.508493 0.350459 0.855987
C19   C     C_R   0.481600 0.499064 0.734138 -0.187228
C20   C     C_R   0.517434 0.522402 0.266130 -0.178593
C21   C     C_R   0.605760 0.475250 0.775983 -0.090019
C22   C     C_R   0.394083 0.560043 0.226727 -0.092043
C23   C     C_R   0.609388 0.516799 0.852741 0.339114
C24   C     C_R   0.393306 0.550540 0.145697 0.323081
C25   C     C_R   0.481096 0.552042 0.891933 -0.081897
C26   C     C_R   0.517606 0.507736 0.105236 -0.037674
C27   C     C_R   0.353084 0.555909 0.852848 0.446962
C28   C     C_R   0.642212 0.480190 0.143936 0.412021
C29   C     C_R   0.356386 0.538853 0.773411 -0.321882
C30   C     C_R   0.641870 0.489475 0.223973 -0.326830
C31   C     C_2   0.479651 0.576601 0.974627 -0.135290
C32   C     C_2   0.517621 0.485552 0.022164 -0.082007
Cu1   Cu    Cu3+1 0.356850 0.500010 0.499980 0.992487
Cu2   Cu    Cu3+1 0.643150 0.499990 0.500020 0.990160
H1    H     H_    0.104762 0.478737 0.372146 0.129152
H2    H     H_    0.894073 0.513941 0.628453 0.128873
H3    H     H_    0.738536 0.466147 0.253050 0.187059
H4    H     H_    0.259257 0.553910 0.742938 0.191550
H5    H     H_    0.554819 0.394394 0.999403 0.155546
H6    H     H_    0.451095 0.670227 0.995831 0.136845
H7    H     H_    0.408501 0.079402 0.378358 0.125860
H8    H     H_    0.592756 0.920555 0.619999 0.133137
H9    H     H_    0.257731 0.924310 0.484364 0.168196
H10   H     H_    0.744093 0.074006 0.512190 0.158131
H11   H     H_    0.351677 0.083731 0.607288 0.132368
H12   H     H_    0.648205 0.914837 0.391173 0.132708
H13   H     H_    0.097008 0.324233 0.569884 0.135878
H14   H     H_    0.903306 0.675571 0.430167 0.137936
N1    N     N_3   0.141720 0.500030 0.499940 -0.191395
N2    N     N_3   0.858280 0.499970 0.500060 -0.191411
O1    O     O_R   0.379130 0.683150 0.499960 -0.514464
O2    O     O_R   0.620870 0.316850 0.500040 -0.519562
O3    O     O_R   0.620910 0.683140 0.500000 -0.616805
O4    O     O_R   0.379090 0.316860 0.500000 -0.614726
O5    O     O_R   0.365090 0.500030 0.613580 -0.581286
O6    O     O_R   0.634910 0.499970 0.386420 -0.575332
O7    O     O_R   0.606870 0.500020 0.613610 -0.567319
O8    O     O_R   0.393130 0.499980 0.386390 -0.569471
C33   C     C_2   0.729597 0.401639 0.743490 0.397100
H15   H     H_    0.835125 0.418655 0.763929 0.078710
O9    O     O_2   0.713876 0.315981 0.696890 -0.554441
C34   C     C_2   0.264465 0.608466 0.268286 0.388721
H16   H     H_    0.161932 0.570841 0.254534 0.057371
O10   O     O_2   0.271047 0.694289 0.315671 -0.554698
O11   O     O_3   0.896286 0.293819 0.431464 -0.593494
C35   C     C_3   0.997143 0.194183 0.425847 0.003986
H17   H     H_    0.001256 0.145921 0.482297 0.148865
H18   H     H_    0.105491 0.228037 0.408969 0.138271
C36   C     C_3   0.951348 0.100261 0.364198 -0.355505
H19   H     H_    0.838288 0.075475 0.374755 0.227745
H20   H     H_    0.961160 0.145482 0.306985 0.216881
C37   C     C_3   0.041464 0.979491 0.363335 -0.883418
H21   H     H_    0.155244 0.001687 0.352399 0.263247
H22   H     H_    0.006770 0.915086 0.316835 0.260919
H23   H     H_    0.028258 0.930353 0.419198 0.252069
O12   O     O_3   0.101482 0.710475 0.565315 -0.593160
C38   C     C_3   0.989065 0.788035 0.595448 0.011291
H24   H     H_    0.924881 0.736739 0.639776 0.136008
H25   H     H_    0.919064 0.819099 0.548695 0.141468
C39   C     C_3   0.050057 0.905277 0.633924 -0.344762
H26   H     H_    0.125938 0.875806 0.678065 0.227787
H27   H     H_    0.108045 0.962184 0.590247 0.206596
C40   C     C_3   0.933174 0.988115 0.672061 -0.902957
H28   H     H_    0.861513 0.024946 0.628062 0.263225
H29   H     H_    0.981589 0.069546 0.701880 0.261534
H30   H     H_    0.869853 0.933525 0.714914 0.259390
O13   O     O_3   0.223908 0.580541 0.890703 -0.621661
C41   C     C_3   0.170884 0.468141 0.924241 0.084226
H31   H     H_    0.074887 0.495148 0.959611 0.179666
H32   H     H_    0.247073 0.425804 0.964350 0.165845
C42   C     C_3   0.128504 0.368667 0.863937 -0.392290
H33   H     H_    0.068285 0.414032 0.817904 0.218816
H34   H     H_    0.225584 0.323881 0.836975 0.212582
C43   C     C_3   0.037983 0.265244 0.900329 -0.893479
H35   H     H_    0.098302 0.216012 0.945069 0.252296
H36   H     H_    0.009709 0.195193 0.855421 0.256933
H37   H     H_    0.938369 0.306210 0.926705 0.284758
O14   O     O_3   0.767567 0.453143 0.102682 -0.612240
C44   C     C_3   0.806205 0.324372 0.110483 0.032464
H38   H     H_    0.779409 0.273327 0.056682 0.159968
H39   H     H_    0.750944 0.275819 0.159589 0.126310
C45   C     C_3   0.966349 0.314626 0.121246 -0.304423
H40   H     H_    0.023584 0.363965 0.073674 0.235705
H41   H     H_    0.992656 0.361594 0.176481 0.213451
C46   C     C_3   0.016681 0.177087 0.122134 -0.953660
H42   H     H_    0.960966 0.125638 0.169286 0.255250
H43   H     H_    0.132732 0.173105 0.131293 0.261182
H44   H     H_    0.995309 0.129498 0.066468 0.260383
O15   O     O_3   0.266543 0.561265 0.107009 -0.631097
C47   C     C_3   0.218310 0.688709 0.103604 0.023410
H45   H     H_    0.247888 0.727396 0.046445 0.168454
H46   H     H_    0.263528 0.752634 0.147722 0.143926
C48   C     C_3   0.055739 0.692932 0.111157 -0.298308
H47   H     H_    0.011061 0.635421 0.064220 0.226994
H48   H     H_    0.018613 0.652038 0.166600 0.218542
C49   C     C_3   0.998270 0.827922 0.106684 -0.943111
H49   H     H_    0.037908 0.886116 0.154892 0.265247
H50   H     H_    0.880369 0.827288 0.111043 0.260184
H51   H     H_    0.031669 0.870893 0.051049 0.254277
O16   O     O_3   0.735695 0.508674 0.891329 -0.623951
C50   C     C_3   0.787831 0.631309 0.906684 0.093404
H52   H     H_    0.854858 0.624221 0.957717 0.184675
H53   H     H_    0.703033 0.702248 0.922275 0.126754
C51   C     C_3   0.878630 0.679702 0.838558 -0.391990
H54   H     H_    0.958441 0.607009 0.819968 0.239454
H55   H     H_    0.809928 0.699233 0.789240 0.189233
C52   C     C_3   0.956085 0.800163 0.860411 -0.863974
H56   H     H_    0.878444 0.877210 0.875250 0.242120
H57   H     H_    0.025358 0.830204 0.811230 0.261993
H58   H     H_    0.023997 0.783183 0.910351 0.275913

loop_
_geom_bond_atom_site_label_1
_geom_bond_atom_site_label_2
_ccdc_geom_bond_type
C25   C31   S    
C35   H18   S    
O13   C41   S    
C9    H11   S    
Cu1   O8    S    
C27   C29   A    
C1    C8    S    
C41   H32   S    
C2    C7    S    
C6    C9    S    
C12   N1    S    
C20   C30   A    
C38   H24   S    
C49   H49   S    
Cu2   O6    S    
C46   H43   S    
C3    H9    S    
C51   H55   S    
C19   C21   A    
C16   N2    S    
C21   C33   S    
C36   H19   S    
C4    C7    S    
C45   H41   S    
C35   C36   S    
C42   H34   S    
Cu1   N1    S    
C31   H6    S    
C45   C46   S    
C32   H5    S    
C36   H20   S    
C1    O3    A    
C47   H45   S    
C50   C51   S    
C34   O10   D    
C11   C15   S    
C18   O8    A    
C40   H28   S    
C29   H4    S    
C10   H12   S    
Cu2   O7    S    
C17   O5    A    
C18   O6    A    
C48   C49   S    
C23   C25   A    
C35   H17   S    
C33   H15   S    
C43   H35   S    
C37   H23   S    
C15   H1    S    
C38   H25   S    
C46   H44   S    
Cu2   N2    S    
C33   O9    D    
C12   C16   S    
O12   C38   S    
C37   H22   S    
C3    C8    S    
C2    O4    A    
C23   O16   S    
C13   H13   S    
C26   C32   S    
C39   H26   S    
C14   H14   S    
C4    H10   S    
C43   H37   S    
C30   H3    S    
C36   C37   S    
C27   O13   S    
C52   H57   S    
C34   H16   S    
C3    C9    S    
C22   C34   S    
C44   H38   S    
C41   C42   S    
C44   C45   S    
Cu1   Cu2   S    
Cu1   O5    S    
C43   H36   S    
C1    O1    A    
C47   C48   S    
C50   H52   S    
C2    O2    A    
C51   C52   S    
C13   N1    S    
C4    C6    S    
C44   H39   S    
C12   C14   S    
O11   C35   S    
C21   C23   A    
C22   C24   A    
Cu1   O1    S    
C4    C10   S    
C52   H56   S    
C19   C29   A    
C42   H33   S    
O16   C50   S    
C5    C7    S    
C48   H47   S    
C38   C39   S    
C28   O14   S    
Cu1   O4    S    
C7    C9    S    
C5    H7    S    
C40   H29   S    
Cu2   O2    S    
C31   C32   D    
C24   O15   S    
C24   C26   A    
C20   C22   A    
C37   H21   S    
C3    C5    S    
C6    C8    S    
C25   C27   A    
C46   H42   S    
C26   C28   A    
C49   H51   S    
C12   O12   S    
C52   H58   S    
C5    C10   S    
C11   N2    S    
O15   C47   S    
C16   H2    S    
C42   C43   S    
C11   C13   S    
C14   N2    S    
C28   C30   A    
C39   C40   S    
C17   C19   S    
C39   H27   S    
C49   H50   S    
C18   C20   S    
C15   N1    S    
C45   H40   S    
C47   H46   S    
C50   H53   S    
C40   H30   S    
C41   H31   S    
Cu2   O3    S    
C8    C10   S    
O14   C44   S    
C6    H8    S    
C13   C16   S    
C14   C15   S    
C11   O11   S    
C17   O7    A    
C51   H54   S    
C48   H48   S    
