data_mof_unit_21489.cif
_audit_creation_date              2012-12-10T17:00:50-0500
_audit_creation_method            fapswitch 2.2
_symmetry_space_group_name_H-M    P1
_symmetry_Int_Tables_number       1
_space_group_crystal_system       triclinic
_cell_length_a                    10.755471
_cell_length_b                    10.674842
_cell_length_c                    10.064801
_cell_angle_alpha                 87.251417
_cell_angle_beta                  104.012919
_cell_angle_gamma                 91.209576
_cell_volume                      1119.83749054

loop_
_atom_site_label
_atom_site_type_symbol
_atom_type_description
_atom_site_fract_x
_atom_site_fract_y
_atom_site_fract_z
_atom_type_partial_charge
C1    C     C_R   0.507669 0.262855 0.505245 0.901642
C2    C     C_2   0.477940 0.870037 0.480574 0.360664
C3    C     C_2   0.565617 0.070343 0.424839 -0.139748
C4    C     C_2   0.532302 0.132076 0.522061 -0.252776
C5    C     C_2   0.587024 0.556484 0.944195 0.437954
C6    C     C_2   0.569792 0.575300 0.086768 0.086419
C7    C     C_R   0.258895 0.501310 0.442611 0.763576
C8    C     C_R   0.494904 0.737142 0.495544 0.769834
C9    C     C_R   0.741274 0.504264 0.556970 0.944269
C10   C     C_2   0.120579 0.508754 0.409504 0.308818
C11   C     C_2   0.067364 0.556306 0.502897 -0.297658
C12   C     C_2   0.878694 0.521715 0.587128 -0.414237
C13   C     C_2   0.931093 0.553873 0.483039 -0.078121
C14   C     C_2   0.570270 0.935529 0.439059 -0.229084
H1    H     H_    0.873920 0.566896 0.378604 0.236085
H2    H     H_    0.419741 0.469297 0.879799 0.105816
H3    H     H_    0.462460 0.423054 0.097330 0.128054
H4    H     H_    0.124623 0.586839 0.600751 0.156687
H5    H     H_    0.936683 0.506191 0.690948 0.155464
H6    H     H_    0.650471 0.889577 0.414625 0.152628
H7    H     H_    0.587585 0.117502 0.335049 0.173526
H8    H     H_    0.524009 0.084788 0.617830 0.192746
N1    N     N_2   0.501330 0.501330 0.852460 -0.229133
N2    N     N_2   0.501370 0.501360 0.148130 -0.221018
O1    O     O_R   0.499980 0.319060 0.613030 -0.616672
O2    O     O_R   0.500020 0.319100 0.386910 -0.613797
O3    O     O_R   0.317800 0.500000 0.570840 -0.641031
O4    O     O_R   0.317840 0.500040 0.344720 -0.583391
O5    O     O_R   0.499980 0.680900 0.613090 -0.572825
O6    O     O_R   0.500020 0.680940 0.386970 -0.591654
O7    O     O_R   0.682160 0.499960 0.655280 -0.578458
O8    O     O_R   0.682200 0.500000 0.429160 -0.596702
Zn1   Zn    Zn3+2 0.499970 0.499970 0.650990 0.971200
Zn2   Zn    Zn3+2 0.500030 0.500030 0.349010 0.966654
I1    I     I_    0.669659 0.731585 0.185330 -0.360744
O9    O     O_3   0.046066 0.466751 0.286620 -0.615238
C15   C     C_3   0.059281 0.335341 0.284989 0.115835
H9    H     H_    0.040528 0.287472 0.379321 0.139565
H10   H     H_    0.156901 0.311022 0.275916 0.156812
C16   C     C_3   0.962808 0.285169 0.162163 -0.858726
H11   H     H_    0.980711 0.328300 0.065850 0.246162
H12   H     H_    0.972362 0.181867 0.160966 0.221716
H13   H     H_    0.863851 0.306733 0.168362 0.246287
O10   O     O_3   0.370408 0.929484 0.503083 -0.617905
C17   C     C_3   0.261933 0.849315 0.486628 0.108580
H14   H     H_    0.273717 0.780347 0.575014 0.154901
H15   H     H_    0.245225 0.799321 0.389038 0.133176
C18   C     C_3   0.143969 0.927133 0.481838 -0.814033
H16   H     H_    0.129014 0.996962 0.394114 0.252260
H17   H     H_    0.058163 0.864951 0.469235 0.220111
H18   H     H_    0.156290 0.977148 0.578502 0.255135
O11   O     O_3   0.688421 0.616018 0.904199 -0.548436
C19   C     C_3   0.802619 0.551291 0.965925 0.123998
H19   H     H_    0.806193 0.463075 0.912585 0.141144
H20   H     H_    0.812122 0.527524 0.076920 0.166475
C20   C     C_3   0.916953 0.633617 0.954067 -0.755609
H21   H     H_    0.920558 0.717558 0.016008 0.265761
H22   H     H_    0.007019 0.580260 0.992607 0.222272
H23   H     H_    0.908949 0.664879 0.845593 0.244772

loop_
_geom_bond_atom_site_label_1
_geom_bond_atom_site_label_2
_ccdc_geom_bond_type
C7    C10   S    
O7    Zn1   S    
C11   H4    S    
C15   H9    S    
O5    Zn1   S    
C15   C16   S    
C4    H8    S    
C6    I1    S    
C5    N1    D    
C20   H23   S    
C1    C4    S    
C8    O6    A    
C16   H13   S    
C19   C20   S    
C16   H12   S    
O4    Zn2   S    
C15   H10   S    
C17   H14   S    
O3    Zn1   S    
C1    O1    A    
C12   C13   D    
C11   C13   S    
C7    O4    A    
C5    C6    S    
C3    C14   S    
C18   H16   S    
C8    O5    A    
C12   H5    S    
C6    N2    D    
C16   H11   S    
C20   H22   S    
C18   H17   S    
H2    N1    S    
C19   H20   S    
C13   H1    S    
C1    O2    A    
C2    C14   D    
C9    C12   S    
N2    Zn2   S    
C3    H7    S    
H3    N2    S    
C10   C11   D    
O6    Zn2   S    
C3    C4    D    
C9    O8    A    
C14   H6    S    
C7    O3    A    
O11   C19   S    
C17   H15   S    
O1    Zn1   S    
C20   H21   S    
C9    O7    A    
O9    C15   S    
C10   O9    S    
C17   C18   S    
C5    O11   S    
C19   H19   S    
O2    Zn2   S    
C18   H18   S    
C2    C8    S    
O10   C17   S    
C2    O10   S    
N1    Zn1   S    
O8    Zn2   S    
