data_mof_unit_22337.cif
_audit_creation_date              2012-12-11T15:53:53-0500
_audit_creation_method            fapswitch 2.2
_symmetry_space_group_name_H-M    P1
_symmetry_Int_Tables_number       1
_space_group_crystal_system       triclinic
_cell_length_a                    10.650482
_cell_length_b                    10.708642
_cell_length_c                    17.028121
_cell_angle_alpha                 80.637222
_cell_angle_beta                  99.308683
_cell_angle_gamma                 118.775543
_cell_volume                      1671.75660457

loop_
_atom_site_label
_atom_site_type_symbol
_atom_type_description
_atom_site_fract_x
_atom_site_fract_y
_atom_site_fract_z
_atom_type_partial_charge
C1    C     C_R   0.384437 0.284113 0.632011 0.552117
C2    C     C_R   0.393868 0.830170 0.674541 -0.134205
C3    C     C_R   0.377164 0.852047 0.750246 -0.151004
C4    C     C_3   0.128400 0.458675 0.792998 -0.246829
C5    C     C_3   0.147491 0.434538 0.711275 -0.250506
C6    C     C_R   0.314780 0.692862 0.647022 0.014834
C7    C     C_1   0.850331 0.669127 0.702669 -0.031947
C8    C     C_1   0.897269 0.703484 0.769318 -0.035668
C9    C     C_1   0.364688 0.232924 0.714294 -0.055141
C10   C     C_1   0.333511 0.186148 0.781493 -0.053636
C11   C     C_1   0.335476 0.663981 0.277792 -0.046979
C12   C     C_R   0.369431 0.654797 0.586107 0.535771
C13   C     C_1   0.323107 0.673230 0.207019 -0.054903
C14   C     C_R   0.871323 0.686629 0.167908 0.014769
C15   C     C_R   0.926751 0.612725 0.225840 0.016825
C16   C     C_R   0.913752 0.605795 0.305192 -0.002866
C17   C     C_R   0.818026 0.773708 0.273140 -0.120052
C18   C     C_R   0.831043 0.779699 0.192460 -0.149717
C19   C     C_3   0.905361 0.463254 0.232102 -0.232595
C20   C     C_3   0.889694 0.454255 0.319978 -0.240774
C21   C     C_R   0.846089 0.675104 0.328992 0.020519
C22   C     C_R   0.308284 0.136766 0.167442 0.001932
C23   C     C_R   0.781093 0.620972 0.626217 0.545361
C24   C     C_R   0.192315 0.129392 0.199334 0.012448
C25   C     C_R   0.197998 0.139793 0.278535 0.076084
C26   C     C_R   0.428662 0.140237 0.301037 -0.161444
C27   C     C_R   0.422336 0.130519 0.219663 -0.157185
C28   C     C_3   0.113396 0.214570 0.172927 -0.239903
C29   C     C_3   0.122562 0.231074 0.260384 0.033239
C30   C     C_R   0.320971 0.156396 0.329432 0.000031
C31   C     C_R   0.947111 0.724716 0.851604 0.537645
C32   C     C_R   0.281989 0.750721 0.882764 0.549092
C33   C     C_R   0.286566 0.118354 0.858344 0.534785
C34   C     C_R   0.350422 0.224583 0.400774 0.556356
C35   C     C_R   0.893700 0.693905 0.086239 0.558394
C36   C     C_R   0.313047 0.700635 0.123857 0.555962
C37   C     C_R   0.284266 0.105163 0.086100 0.552075
C38   C     C_R   0.364949 0.654253 0.360838 0.547478
C39   C     C_R   0.774886 0.624307 0.401075 0.549949
C40   C     C_R   0.280538 0.737347 0.798549 -0.000893
C41   C     C_R   0.181222 0.612904 0.762734 0.010275
C42   C     C_R   0.198258 0.590739 0.688236 0.013668
Cr1   Cr    Cr6+3 0.608440 0.389080 0.519680 1.019691
Cr2   Cr    Cr6+3 0.288640 0.400090 0.490760 1.039606
Cr3   Cr    Cr6+3 0.602940 0.710800 0.489510 1.053521
Cr4   Cr    Cr6+3 0.052530 0.947560 0.964210 1.024599
Cr5   Cr    Cr6+3 0.059970 0.626800 0.992920 1.010925
Cr6   Cr    Cr6+3 0.373320 0.938440 0.995370 1.020366
H1    H     H_    0.479253 0.916121 0.641962 0.150467
H2    H     H_    0.804482 0.390914 0.197854 0.155737
H3    H     H_    0.779590 0.374824 0.335421 0.170982
H4    H     H_    0.978724 0.444630 0.359974 0.174982
H5    H     H_    0.523078 0.148188 0.339683 0.149837
H6    H     H_    0.507836 0.122600 0.197575 0.154877
H7    H     H_    0.002458 0.148285 0.145821 0.177629
H8    H     H_    0.177438 0.316989 0.137071 0.116148
H9    H     H_    0.191957 0.343703 0.274339 0.146078
H10   H     H_    0.447851 0.954447 0.773340 0.143137
H11   H     H_    0.013903 0.405989 0.805736 0.152851
H12   H     H_    0.203045 0.440742 0.841646 0.159446
H13   H     H_    0.233547 0.403712 0.712958 0.147408
H14   H     H_    0.044154 0.367425 0.677009 0.153776
H15   H     H_    0.769089 0.832646 0.289585 0.195836
H16   H     H_    0.801268 0.849593 0.149359 0.145084
H17   H     H_    0.003860 0.459948 0.221380 0.170416
O1    O     O_R   0.754020 0.497590 0.609930 -0.514512
O2    O     O_R   0.295080 0.533620 0.397890 -0.509583
O3    O     O_R   0.485280 0.746620 0.388440 -0.496287
O4    O     O_R   0.720550 0.696220 0.420010 -0.492572
O5    O     O_3   0.500010 0.499990 0.499980 -0.274738
O6    O     O_R   0.163320 0.092900 0.874450 -0.512576
O7    O     O_R   0.934650 0.822080 0.882840 -0.479516
O8    O     O_R   0.915520 0.604140 0.893670 -0.509167
O9    O     O_R   0.191760 0.638110 0.923230 -0.511370
O10   O     O_R   0.406180 0.826930 0.920660 -0.503224
O11   O     O_R   0.358620 0.062870 0.901950 -0.517186
O12   O     O_R   0.481420 0.271390 0.600630 -0.490436
O13   O     O_R   0.163910 0.085460 0.050210 -0.515717
O14   O     O_R   0.935200 0.815170 0.045770 -0.493999
O15   O     O_R   0.916120 0.596690 0.069430 -0.514149
O16   O     O_R   0.192310 0.631200 0.086170 -0.503944
O17   O     O_R   0.406770 0.819480 0.096420 -0.499993
O18   O     O_R   0.359170 0.055960 0.064880 -0.501339
O19   O     O_3   0.161940 0.837600 0.984160 -0.291699
O20   O     O_R   0.263810 0.254550 0.589590 -0.499700
O21   O     O_R   0.300820 0.531200 0.560890 -0.514752
O22   O     O_R   0.491480 0.744020 0.564270 -0.515722
O23   O     O_R   0.726290 0.693800 0.583010 -0.489408
O24   O     O_R   0.747830 0.500190 0.434090 -0.524930
O25   O     O_R   0.475680 0.273800 0.437630 -0.506917
O26   O     O_R   0.257620 0.257160 0.413750 -0.481307
Br1   Br    Br    0.936798 0.138965 0.302864 -0.592020

loop_
_geom_bond_atom_site_label_1
_geom_bond_atom_site_label_2
_ccdc_geom_bond_type
C5    C42   S    
C16   C21   A    
C1    O12   A    
C41   C42   A    
C14   C18   A    
C19   C20   S    
C32   O10   A    
C28   H8    S    
C27   H6    S    
C7    C8    T    
C15   C19   S    
C26   C27   A    
Cr1   O24   S    
C23   O1    A    
C28   C29   S    
Cr3   O22   S    
C20   H3    S    
C6    C12   S    
Cr4   O14   S    
C31   O8    A    
C4    C41   S    
C15   C16   A    
C35   O15   A    
Cr6   O11   S    
C34   O26   A    
C36   O17   A    
Cr2   O5    S    
C9    C10   T    
Cr4   O7    S    
C32   C40   S    
C25   C29   S    
Cr6   O10   S    
C2    C6    A    
Cr5   O15   S    
Cr2   O21   S    
C28   H7    S    
C1    O20   A    
Cr1   O25   S    
C30   C34   S    
Cr3   O4    S    
Cr3   O23   S    
C1    C9    S    
C24   C25   A    
Cr5   O8    S    
C13   C36   S    
C14   C35   S    
Cr4   O13   S    
C22   C37   S    
C17   C21   A    
Cr6   O19   S    
C11   C38   S    
C34   O25   A    
C2    H1    S    
C33   O11   A    
C21   C39   S    
C36   O16   A    
C16   C20   S    
C4    H12   S    
Cr3   O3    S    
C17   C18   A    
C39   O4    A    
C5    H13   S    
Cr5   O19   S    
Cr4   O6    S    
Cr2   O26   S    
Cr4   O19   S    
C31   O7    A    
C29   H9    S    
C3    C40   A    
C26   C30   A    
Cr1   O5    S    
C23   O23   A    
C22   C24   A    
Cr2   O20   S    
C26   H5    S    
C25   C30   A    
C40   C41   A    
C12   O22   A    
Cr3   O5    S    
C8    C31   S    
C24   C28   S    
Cr5   O9    S    
C38   O3    A    
C4    C5    S    
Cr1   O12   S    
C37   O13   A    
Cr6   O18   S    
C12   O21   A    
C22   C27   A    
C2    C3    A    
C20   H4    S    
C17   H15   S    
C32   O9    A    
C11   C13   T    
C19   H2    S    
C18   H16   S    
Cr1   O1    S    
C7    C23   S    
C4    H11   S    
C35   O14   A    
Cr6   O17   S    
C5    H14   S    
C19   H17   S    
C10   C33   S    
Cr5   O16   S    
C33   O6    A    
C3    H10   S    
C38   O2    A    
C6    C42   A    
C14   C15   A    
C37   O18   A    
Cr2   O2    S    
C39   O24   A    
C29   Br1   S    
