data_mof_unit_51398.cif
_audit_creation_date              2012-12-10T18:04:35-0500
_audit_creation_method            fapswitch 2.2
_symmetry_space_group_name_H-M    P1
_symmetry_Int_Tables_number       1
_space_group_crystal_system       triclinic
_cell_length_a                    19.189619
_cell_length_b                    17.867168
_cell_length_c                    12.745019
_cell_angle_alpha                 89.920076
_cell_angle_beta                  99.633131
_cell_angle_gamma                 90.002722
_cell_volume                      4308.18902059

loop_
_atom_site_label
_atom_site_type_symbol
_atom_type_description
_atom_site_fract_x
_atom_site_fract_y
_atom_site_fract_z
_atom_type_partial_charge
C1    C     C_R   0.411516 0.103082 0.444188 0.900933
C2    C     C_R   0.411885 0.896485 0.444600 0.903307
C3    C     C_R   0.911716 0.603328 0.444379 0.903422
C4    C     C_R   0.911054 0.397495 0.443905 0.902482
C5    C     C_R   0.747673 0.214178 0.538439 0.108927
C6    C     C_R   0.750470 0.788534 0.540725 0.097866
C7    C     C_R   0.251986 0.709794 0.541897 0.098927
C8    C     C_R   0.249075 0.287079 0.539683 0.105958
C9    C     C_R   0.785782 0.210356 0.644483 0.138874
C10   C     C_R   0.785132 0.787190 0.648711 0.136036
C11   C     C_R   0.286123 0.711583 0.650080 0.144752
C12   C     C_R   0.284713 0.287111 0.647227 0.131318
C13   C     C_R   0.354601 0.742848 0.674622 -0.048766
C14   C     C_R   0.353944 0.257693 0.670620 -0.050297
C15   C     C_R   0.855472 0.238630 0.666072 -0.047875
C16   C     C_R   0.854010 0.756885 0.672787 -0.049347
C17   C     C_R   0.382301 0.780145 0.594425 -0.235789
C18   C     C_R   0.381336 0.220391 0.590414 -0.230501
C19   C     C_R   0.881409 0.277956 0.586235 -0.230164
C20   C     C_R   0.881738 0.719924 0.592529 -0.235824
C21   C     C_R   0.678506 0.187972 0.517894 -0.226407
C22   C     C_R   0.681759 0.815759 0.517261 -0.255769
C23   C     C_R   0.183308 0.682602 0.517898 -0.257776
C24   C     C_R   0.180259 0.314112 0.517049 -0.233039
C25   C     C_R   0.685106 0.148092 0.699751 -0.176592
C26   C     C_R   0.682122 0.846873 0.700978 -0.169232
C27   C     C_R   0.183084 0.651192 0.701596 -0.174816
C28   C     C_R   0.182275 0.347186 0.700450 -0.169056
C29   C     C_R   0.365470 0.832545 0.412036 -0.224780
C30   C     C_R   0.363550 0.165425 0.410207 -0.223598
C31   C     C_R   0.861444 0.337013 0.408871 -0.221926
C32   C     C_R   0.864529 0.666519 0.411106 -0.224039
C33   C     C_R   0.644926 0.008231 0.135876 0.679316
C34   C     C_R   0.145516 0.498889 0.136749 0.697444
C35   C     C_R   0.377386 0.000528 0.761146 -0.135170
C36   C     C_R   0.877387 0.501063 0.761096 -0.132736
C37   C     C_R   0.350928 0.997828 0.855892 0.594336
C38   C     C_R   0.850941 0.500333 0.855884 0.594664
C39   C     C_R   0.590795 0.899379 0.557056 0.868861
C40   C     C_R   0.590798 0.100431 0.557097 0.869770
C41   C     C_R   0.090645 0.399270 0.556984 0.869991
C42   C     C_R   0.091092 0.600289 0.557176 0.868617
C43   C     C_R   0.397583 0.994767 0.951902 -0.221467
C44   C     C_R   0.897626 0.498749 0.951917 -0.223330
C45   C     C_R   0.471515 0.994415 0.953522 -0.105966
C46   C     C_R   0.971571 0.498139 0.953488 -0.104268
C47   C     C_R   0.495976 0.996991 0.854836 0.095962
C48   C     C_R   0.996000 0.498644 0.854791 0.095913
C49   C     C_R   0.521932 0.994229 0.048844 -0.059690
C50   C     C_R   0.021996 0.497708 0.048707 -0.060946
C51   C     C_R   0.595628 0.995613 0.043770 -0.106616
C52   C     C_R   0.095713 0.494229 0.043678 -0.113867
C53   C     C_R   0.618388 0.988658 0.946017 -0.162695
C54   C     C_R   0.118307 0.488641 0.945602 -0.166695
C55   C     C_R   0.569396 0.994909 0.854302 0.493574
C56   C     C_R   0.069375 0.496128 0.854142 0.494745
C57   C     C_R   0.502340 0.994364 0.149907 0.028638
C58   C     C_R   0.002329 0.501651 0.149603 0.022816
C59   C     C_R   0.622629 0.009197 0.233209 -0.073902
C60   C     C_R   0.123219 0.496467 0.233822 -0.072024
C61   C     C_R   0.752027 0.179902 0.725173 -0.139086
C62   C     C_R   0.748655 0.814248 0.728476 -0.125552
C63   C     C_R   0.249512 0.684015 0.729493 -0.137523
C64   C     C_R   0.248899 0.314762 0.727361 -0.124666
C65   C     C_R   0.649944 0.149475 0.594537 -0.062795
C66   C     C_R   0.650159 0.850196 0.594250 -0.063248
C67   C     C_R   0.151154 0.648483 0.594714 -0.056825
C68   C     C_R   0.149604 0.349667 0.594062 -0.070228
C69   C     C_R   0.337006 0.822447 0.303406 0.532802
C70   C     C_R   0.333333 0.172754 0.301828 0.535197
C71   C     C_R   0.829086 0.333146 0.301146 0.531948
C72   C     C_R   0.835046 0.675216 0.302615 0.535865
C73   C     C_R   0.286659 0.766798 0.272427 -0.078276
C74   C     C_R   0.280508 0.225748 0.270216 -0.102304
C75   C     C_R   0.774217 0.282605 0.269330 -0.093037
C76   C     C_R   0.783435 0.729564 0.271278 -0.090996
C77   C     C_R   0.259993 0.726486 0.350983 -0.233103
C78   C     C_R   0.253741 0.266321 0.348269 -0.199258
C79   C     C_R   0.747858 0.241092 0.347027 -0.187419
C80   C     C_R   0.757015 0.770275 0.349544 -0.239743
C81   C     C_R   0.285163 0.739415 0.460367 0.051443
C82   C     C_R   0.281295 0.256591 0.457740 0.055914
C83   C     C_R   0.778179 0.246851 0.456110 0.055155
C84   C     C_R   0.783299 0.758724 0.459005 0.055598
C85   C     C_R   0.344890 0.784504 0.489331 0.016259
C86   C     C_R   0.342632 0.213807 0.486456 0.012335
C87   C     C_R   0.840866 0.287532 0.484060 0.009667
C88   C     C_R   0.843780 0.714667 0.487897 0.016219
H1    H     H_    0.662287 0.120464 0.761475 0.199521
H2    H     H_    0.656751 0.870978 0.762552 0.192963
H3    H     H_    0.157829 0.626550 0.763124 0.196096
H4    H     H_    0.157448 0.371977 0.762083 0.196529
H5    H     H_    0.448390 0.990402 0.162446 0.203041
H6    H     H_    0.948306 0.505214 0.161869 0.205374
H7    H     H_    0.341502 0.002453 0.686081 0.182708
H8    H     H_    0.841511 0.502099 0.685985 0.182190
H9    H     H_    0.374205 0.993114 0.023031 0.207555
H10   H     H_    0.874235 0.497448 0.023046 0.209162
H11   H     H_    0.776643 0.179385 0.807775 0.202783
H12   H     H_    0.770591 0.810916 0.812057 0.213700
H13   H     H_    0.271220 0.687181 0.813149 0.201705
H14   H     H_    0.271517 0.312241 0.810741 0.216598
H15   H     H_    0.645632 0.195119 0.441167 0.156284
H16   H     H_    0.651480 0.811591 0.438112 0.163733
H17   H     H_    0.153460 0.686872 0.438417 0.162923
H18   H     H_    0.149214 0.309326 0.438547 0.159061
H19   H     H_    0.704860 0.203257 0.320097 0.221995
H20   H     H_    0.717236 0.812091 0.323439 0.195130
H21   H     H_    0.220963 0.683841 0.325376 0.199147
H22   H     H_    0.212650 0.306560 0.321696 0.216760
H23   H     H_    0.434934 0.803440 0.614169 0.159885
H24   H     H_    0.434600 0.198522 0.609173 0.157502
H25   H     H_    0.935007 0.299064 0.603636 0.154313
H26   H     H_    0.934705 0.697371 0.611859 0.159185
N1    N     N_R   0.552340 1.000000 0.237260 -0.185965
N2    N     N_R   0.052340 0.500000 0.237260 -0.185831
N3    N     N_R   0.448170 1.000000 0.762060 -0.145282
N4    N     N_R   0.948170 0.500000 0.762060 -0.145434
O1    O     O_R   0.448200 0.076800 0.373930 -0.534317
O2    O     O_R   0.448200 0.923200 0.373930 -0.537212
O3    O     O_R   0.948200 0.576800 0.373930 -0.535393
O4    O     O_R   0.948200 0.423200 0.373930 -0.536242
O5    O     O_R   0.414750 0.076790 0.542400 -0.631158
O6    O     O_R   0.414750 0.923210 0.542400 -0.630914
O7    O     O_R   0.914750 0.576790 0.542400 -0.631656
O8    O     O_R   0.914750 0.423210 0.542400 -0.630051
O9    O     O_R   0.585240 0.923200 0.457600 -0.661465
O10   O     O_R   0.585240 0.076800 0.457600 -0.652257
O11   O     O_R   0.085240 0.423200 0.457600 -0.655029
O12   O     O_R   0.085240 0.576800 0.457600 -0.664011
O13   O     O_R   0.551780 0.923190 0.626070 -0.544275
O14   O     O_R   0.551780 0.076810 0.626070 -0.540668
O15   O     O_R   0.051780 0.423190 0.626070 -0.543567
O16   O     O_R   0.051780 0.576810 0.626070 -0.540288
Zn1   Zn    Zn3+2 0.522330 1.000000 0.387520 0.998260
Zn2   Zn    Zn3+2 0.022330 0.500000 0.387520 0.996351
Zn3   Zn    Zn3+2 0.477660 1.000000 0.612480 0.977086
Zn4   Zn    Zn3+2 0.977660 0.500000 0.612480 0.977903
C89   C     C_2   0.692991 0.972459 0.934744 0.605585
H27   H     H_    0.716726 0.000436 0.873767 0.082368
O17   O     O_2   0.726925 0.924309 0.989089 -0.480046
C90   C     C_2   0.192587 0.471793 0.933316 0.615260
H28   H     H_    0.217457 0.502877 0.876316 0.081895
O18   O     O_2   0.224714 0.419871 0.981656 -0.478877
F1    F     F_    0.713867 0.023319 0.131531 -0.583826
F2    F     F_    0.215211 0.511320 0.134540 -0.581986
F3    F     F_    0.280146 0.998172 0.854810 -0.633993
F4    F     F_    0.780161 0.500899 0.854821 -0.634156
F5    F     F_    0.597311 0.999517 0.766278 -0.692702
F6    F     F_    0.097310 0.499965 0.766058 -0.691482
C91   C     C_2   0.399347 0.739699 0.781539 0.416643
H29   H     H_    0.438126 0.783383 0.805266 0.073506
O19   O     O_2   0.396731 0.686806 0.841444 -0.533592
C92   C     C_2   0.400000 0.263206 0.776267 0.420285
H30   H     H_    0.440104 0.220814 0.800134 0.075027
O20   O     O_2   0.396911 0.316693 0.834766 -0.522903
C93   C     C_2   0.903622 0.229667 0.769402 0.417458
H31   H     H_    0.944259 0.271337 0.794008 0.075080
O21   O     O_2   0.901646 0.174180 0.824779 -0.530253
C94   C     C_2   0.899249 0.760922 0.779241 0.417520
H32   H     H_    0.938814 0.717955 0.802909 0.072819
O22   O     O_2   0.896109 0.813811 0.838766 -0.526155
F7    F     F_    0.357215 0.867285 0.227579 -0.672274
F8    F     F_    0.353906 0.127370 0.227057 -0.666139
F9    F     F_    0.849511 0.379731 0.227438 -0.668274
F10   F     F_    0.855235 0.629970 0.227382 -0.669138
C95   C     C_2   0.260140 0.753181 0.157966 0.516901
H33   H     H_    0.280520 0.785569 0.097660 0.124813
O23   O     O_2   0.215394 0.705495 0.129379 -0.556348
C96   C     C_2   0.251452 0.236112 0.155798 0.550184
H34   H     H_    0.272438 0.204029 0.095892 0.123253
O24   O     O_2   0.203811 0.280654 0.126808 -0.529148
C97   C     C_2   0.742804 0.275735 0.155265 0.524554
H35   H     H_    0.762847 0.309384 0.095902 0.125119
O25   O     O_2   0.694381 0.232230 0.125911 -0.548463
C98   C     C_2   0.755186 0.741184 0.156857 0.539449
H36   H     H_    0.776385 0.709565 0.096710 0.125228
O26   O     O_2   0.707870 0.786145 0.128150 -0.537062
C99   C     C_2   0.676547 0.019192 0.330272 0.507155
H37   H     H_    0.671866 0.992545 0.404079 0.107702
O27   O     O_2   0.729149 0.057327 0.328590 -0.516676
C100  C     C_2   0.178052 0.488195 0.330555 0.484667
H38   H     H_    0.170572 0.507024 0.407308 0.117742
O28   O     O_2   0.234763 0.458588 0.325416 -0.507980

loop_
_geom_bond_atom_site_label_1
_geom_bond_atom_site_label_2
_ccdc_geom_bond_type
C83   C87   A    
C93   H31   S    
C16   C94   S    
C34   F2    S    
C14   C18   A    
C73   C95   S    
N1    Zn1   S    
C41   O15   A    
C22   H16   S    
C57   N1    A    
C61   H11   S    
C97   H35   S    
C64   H14   S    
C18   C86   A    
C39   O13   A    
C2    C29   S    
C17   C85   A    
C28   C68   A    
C18   H24   S    
C15   C93   S    
C19   C87   A    
C5    C83   A    
C75   C97   S    
C96   H34   S    
C19   H25   S    
C23   H17   S    
C11   C13   A    
C49   C57   A    
C1    O1    A    
C45   C47   A    
C23   C67   A    
C78   C82   A    
C100  H38   S    
C22   C66   A    
C44   H10   S    
O8    Zn4   S    
C52   C54   A    
C49   C51   A    
C70   C74   A    
C50   C52   A    
C91   H29   S    
C27   H3    S    
C45   C49   A    
C8    C12   A    
C30   C86   A    
C36   N4    A    
C29   C85   A    
C72   C76   A    
C21   C65   A    
C46   C50   A    
C97   O25   D    
C40   O14   A    
O15   Zn4   S    
C93   O21   D    
C57   H5    S    
C14   C92   S    
C34   C60   A    
C10   C62   A    
O12   Zn2   S    
C17   H23   S    
C30   C70   A    
C44   C46   A    
C38   C44   A    
C55   F5    S    
C41   C68   S    
C29   C69   A    
C53   C55   A    
C35   N3    A    
C60   C100  S    
C46   C48   A    
C71   C75   A    
C31   C87   A    
C79   H19   S    
C80   C84   A    
C26   C66   A    
C84   C88   A    
O6    Zn3   S    
C76   C98   S    
C6    C84   A    
C13   C91   S    
C95   O23   D    
O10   Zn1   S    
C95   H33   S    
C28   H4    S    
C2    O2    A    
C48   N4    A    
C25   H1    S    
O14   Zn3   S    
C82   C86   A    
O1    Zn1   S    
C33   C51   A    
C99   H37   S    
C51   C53   A    
C39   O9    A    
C50   C58   A    
C92   O20   D    
C37   C43   A    
C15   C19   A    
C1    O5    A    
C5    C9    A    
O13   Zn3   S    
O11   Zn2   S    
C36   H8    S    
C7    C11   A    
C79   C83   A    
C77   C81   A    
C16   C20   A    
O4    Zn2   S    
C4    O4    A    
C58   N2    A    
C25   C61   A    
C37   F3    S    
C69   C73   A    
C43   C45   A    
C38   F4    S    
C92   H30   S    
C33   F1    S    
C62   H12   S    
C28   C64   A    
C59   N1    A    
C98   H36   S    
C7    C81   A    
C12   C14   A    
C2    O6    A    
C40   C65   S    
C69   F7    S    
C71   F9    S    
C42   C67   S    
C39   C66   S    
C8    C82   A    
C60   N2    A    
C32   C88   A    
C24   H18   S    
C56   F6    S    
C36   C38   A    
C35   C37   A    
C47   C55   A    
C42   O12   A    
C48   C56   A    
C12   C64   A    
C80   H20   S    
C77   H21   S    
C6    C22   A    
C100  O28   D    
C54   C90   S    
C53   C89   S    
C72   F10   S    
N3    Zn3   S    
C76   C80   A    
O9    Zn1   S    
C70   F8    S    
O16   Zn4   S    
C89   H27   S    
C3    O7    A    
C54   C56   A    
N2    Zn2   S    
C35   H7    S    
O7    Zn4   S    
C26   H2    S    
O5    Zn3   S    
C34   C52   A    
C78   H22   S    
C4    O8    A    
C42   O16   A    
O2    Zn1   S    
C94   H32   S    
C59   C99   S    
C26   C62   A    
C63   H13   S    
C10   C16   A    
C41   O11   A    
C89   O17   D    
C96   O24   D    
C7    C23   A    
C20   C88   A    
C98   O26   D    
C1    C30   S    
C8    C24   A    
C9    C61   A    
C90   O18   D    
C91   O19   D    
O3    Zn2   S    
C58   H6    S    
C3    C32   S    
C20   H26   S    
C74   C96   S    
C4    C31   S    
C27   C67   A    
C6    C10   A    
C24   C68   A    
C13   C17   A    
C21   H15   S    
C47   N3    A    
C5    C21   A    
C33   C59   A    
C43   H9    S    
C74   C78   A    
C25   C65   A    
C73   C77   A    
C90   H28   S    
C27   C63   A    
C99   O27   D    
N4    Zn4   S    
C11   C63   A    
C75   C79   A    
C81   C85   A    
C3    O3    A    
C9    C15   A    
C94   O22   D    
C31   C71   A    
C32   C72   A    
C40   O10   A    
