data_mof_unit_41160.cif
_audit_creation_date              2012-12-11T14:30:10-0500
_audit_creation_method            fapswitch 2.2
_symmetry_space_group_name_H-M    P1
_symmetry_Int_Tables_number       1
_space_group_crystal_system       triclinic
_cell_length_a                    12.831619
_cell_length_b                    12.825508
_cell_length_c                    27.139544
_cell_angle_alpha                 89.848468
_cell_angle_beta                  90.037486
_cell_angle_gamma                 119.85381
_cell_volume                      3873.69518513

loop_
_atom_site_label
_atom_site_type_symbol
_atom_type_description
_atom_site_fract_x
_atom_site_fract_y
_atom_site_fract_z
_atom_type_partial_charge
C1    C     C_R   0.563738 0.456217 0.823504 0.536893
C2    C     C_R   0.454915 0.558977 0.178052 0.536328
C3    C     C_R   0.077161 0.342508 0.485191 0.031497
C4    C     C_R   0.349568 0.064167 0.035498 0.024330
C5    C     C_R   0.670909 0.720018 0.483836 0.040127
C6    C     C_R   0.288549 0.853528 0.541467 0.035586
C7    C     C_R   0.930086 0.271782 0.986636 0.034350
C8    C     C_R   0.655552 0.710342 0.535502 0.009214
C9    C     C_R   0.333984 0.058031 0.983925 0.018513
C10   C     C_R   0.076455 0.355359 0.536547 -0.031370
C11   C     C_R   0.730665 0.655807 0.986003 0.032860
C12   C     C_3   0.892221 0.263636 0.176105 -0.259396
C13   C     C_R   0.437016 0.892844 0.323253 0.545152
C14   C     C_3   0.168559 0.873518 0.367983 -0.217395
C15   C     C_3   0.678681 0.490399 0.166563 -0.296858
C16   C     C_3   0.133906 0.295232 0.360705 -0.210233
C17   C     C_3   0.502473 0.171800 0.173963 -0.290384
C18   C     C_3   0.707604 0.835412 0.362436 -0.209648
C19   C     C_3   0.244547 0.999019 0.631883 -0.232564
C20   C     C_3   0.874486 0.165587 0.860752 -0.233594
C21   C     C_3   0.487573 0.720366 0.629031 -0.265432
C22   C     C_3   0.311979 0.153085 0.865192 -0.229911
C23   C     C_3   0.101347 0.362461 0.674276 -0.256102
C24   C     C_R   0.102821 0.544941 0.178220 0.535089
C25   C     C_3   0.836187 0.706808 0.860177 -0.228195
C26   C     C_2   0.915303 0.184303 0.070051 0.643657
C27   C     C_2   0.156532 0.858898 0.479694 0.590375
C28   C     C_2   0.821469 0.732080 0.068247 0.650675
C29   C     C_2   0.071078 0.232436 0.466141 0.569457
C30   C     C_2   0.267854 0.087481 0.066363 0.644887
C31   C     C_2   0.790601 0.807938 0.463409 0.562092
C32   C     C_2   0.190447 0.764156 0.573316 0.629832
C33   C     C_2   0.936850 0.168256 0.967276 0.624733
C34   C     C_2   0.740721 0.810000 0.567663 0.661126
C35   C     C_R   0.008860 0.485774 0.974811 -0.001737
C36   C     C_2   0.228092 0.060851 0.965207 0.624572
C37   C     C_2   0.111051 0.282815 0.568164 0.618879
C38   C     C_2   0.836697 0.761824 0.966067 0.627202
C39   C     C_R   0.501507 0.990685 0.528904 -0.001142
C40   C     C_R   0.516336 0.522471 0.974919 0.001398
C41   C     C_R   0.959546 0.455203 0.524066 0.030682
C42   C     C_R   0.484385 0.996707 0.974395 0.000736
C43   C     C_R   0.521999 0.494748 0.525280 -0.005122
C44   C     C_R   0.485105 0.973073 0.477541 0.008804
C45   C     C_R   0.894901 0.439841 0.677619 0.561419
C46   C     C_R   0.025412 0.501320 0.026180 0.002430
C47   C     C_R   0.523041 0.509045 0.473870 -0.010216
C48   C     C_R   0.484415 0.983167 0.026067 0.004596
C49   C     C_R   0.979194 0.459403 0.472793 0.021788
C50   C     C_R   0.501066 0.523561 0.026321 0.005881
C51   C     C_R   0.121705 0.701850 0.963005 -0.057608
C52   C     C_R   0.716059 0.120046 0.515824 -0.056973
C53   C     C_R   0.300084 0.418677 0.963610 -0.066626
C54   C     C_R   0.815180 0.521918 0.509948 -0.089904
C55   C     C_R   0.602906 0.898152 0.965248 -0.064662
C56   C     C_R   0.541436 0.102072 0.822441 0.531313
C57   C     C_R   0.421448 0.278072 0.514160 -0.047620
C58   C     C_R   0.700576 0.097857 0.465251 -0.075408
C59   C     C_R   0.143967 0.717365 0.013667 -0.055119
C60   C     C_R   0.414884 0.292727 0.463258 -0.072628
C61   C     C_R   0.595754 0.876614 0.015817 -0.052947
C62   C     C_R   0.838405 0.530304 0.459225 -0.088982
C63   C     C_R   0.284455 0.422996 0.014324 -0.058030
C64   C     C_R   0.015002 0.571349 0.893633 -0.165401
C65   C     C_R   0.630938 0.092360 0.598150 -0.136359
C66   C     C_R   0.430164 0.446450 0.893705 -0.184482
C67   C     C_R   0.558670 0.454710 0.677827 0.521356
C68   C     C_R   0.862474 0.488734 0.593489 -0.168770
C69   C     C_R   0.569684 0.993261 0.894396 -0.170936
C70   C     C_R   0.477136 0.365885 0.596367 -0.122423
C71   C     C_R   0.570063 0.002250 0.394942 -0.178369
C72   C     C_R   0.111826 0.632110 0.096306 -0.139475
C73   C     C_R   0.443426 0.424658 0.392924 -0.183784
C74   C     C_R   0.532160 0.900032 0.097141 -0.138070
C75   C     C_R   0.967525 0.535591 0.391604 -0.179694
C76   C     C_R   0.369193 0.476220 0.096642 -0.139384
C77   C     C_R   0.055226 0.532406 0.128265 0.011509
C78   C     C_R   0.893106 0.436487 0.823449 0.530853
C79   C     C_R   0.454746 0.932952 0.375352 0.003534
C80   C     C_R   0.469131 0.524887 0.128283 0.014785
C81   C     C_R   0.054593 0.509251 0.373919 0.002978
C82   C     C_R   0.477525 0.946282 0.128143 0.009029
C83   C     C_R   0.486815 0.541186 0.374147 -0.003057
C84   C     C_R   0.529895 0.049396 0.629267 -0.010334
C85   C     C_R   0.942633 0.455692 0.874620 -0.017004
C86   C     C_R   0.523007 0.466897 0.627630 0.005249
C87   C     C_R   0.507610 0.044457 0.872446 -0.016493
C88   C     C_R   0.932757 0.463955 0.626129 0.037202
C89   C     C_R   0.545451 0.104565 0.677856 0.536879
C90   C     C_R   0.545205 0.486307 0.874694 -0.006677
C91   C     C_R   0.049226 0.586814 0.943481 0.024223
C92   C     C_R   0.617082 0.066630 0.547849 0.031598
C93   C     C_R   0.415109 0.462921 0.943778 0.017139
C94   C     C_R   0.879511 0.490070 0.542669 0.042664
C95   C     C_R   0.552509 0.962459 0.944480 0.018185
C96   C     C_R   0.470888 0.378572 0.545487 0.045609
C97   C     C_R   0.585693 0.024570 0.445694 0.018056
C98   C     C_R   0.092508 0.617874 0.045565 0.036310
C99   C     C_R   0.460590 0.408067 0.442972 0.012964
C100  C     C_R   0.456385 0.562864 0.323369 0.547213
C101  C     C_R   0.540124 0.922050 0.046572 0.037502
C102  C     C_R   0.927131 0.507638 0.440718 0.046968
C103  C     C_R   0.384138 0.472010 0.045946 0.035941
C104  C     C_R   0.917344 0.353097 0.904947 0.141422
C105  C     C_R   0.414419 0.970466 0.610889 0.114210
C106  C     C_R   0.648187 0.562531 0.904695 0.140947
C107  C     C_R   0.018128 0.435053 0.607880 0.158195
C108  C     C_R   0.412328 0.046113 0.899996 0.140155
C109  C     C_R   0.556463 0.580675 0.607812 0.158377
C110  C     C_R   0.351818 0.892704 0.406699 0.128048
C111  C     C_R   0.440808 0.895322 0.177718 0.531557
C112  C     C_R   0.975573 0.417931 0.109449 0.143271
C113  C     C_R   0.566237 0.642593 0.404241 0.149436
C114  C     C_R   0.437168 0.021476 0.108832 0.136909
C115  C     C_R   0.087924 0.437776 0.404092 0.135768
C116  C     C_R   0.584665 0.564637 0.109420 0.141462
C117  C     C_R   0.952847 0.369463 0.955017 -0.007596
C118  C     C_R   0.401633 0.934488 0.561079 -0.018180
C119  C     C_R   0.632466 0.581908 0.954782 -0.008709
C120  C     C_R   0.021608 0.417814 0.556515 -0.044597
C121  C     C_R   0.409704 0.035196 0.952451 -0.019433
C122  C     C_R   0.105604 0.542731 0.323119 0.559189
C123  C     C_R   0.574643 0.597051 0.556323 -0.023831
C124  C     C_R   0.367631 0.910551 0.458216 -0.031611
C125  C     C_R   0.973832 0.400300 0.058127 -0.017151
C126  C     C_R   0.588056 0.624390 0.453519 0.000370
C127  C     C_R   0.426154 0.027220 0.057073 -0.019710
C128  C     C_R   0.049025 0.413220 0.453721 -0.028028
C129  C     C_R   0.602470 0.576437 0.058008 -0.019144
C130  C     C_R   0.931311 0.285037 0.038099 0.030401
C131  C     C_R   0.269232 0.862029 0.491503 0.015296
C132  C     C_R   0.717747 0.647938 0.037401 0.021036
Cr1   Cr    Cr6+3 0.487630 0.241180 0.750000 0.976430
Cr2   Cr    Cr6+3 0.753550 0.512370 0.750000 1.000001
Cr3   Cr    Cr6+3 0.758820 0.246450 0.750000 0.979705
Cr4   Cr    Cr6+3 0.241180 0.487630 0.250000 0.989551
Cr5   Cr    Cr6+3 0.512370 0.753550 0.250000 0.987390
Cr6   Cr    Cr6+3 0.246450 0.758820 0.250000 1.003863
H1    H     H_    0.173338 0.720675 0.110773 0.138888
H2    H     H_    0.630823 0.977257 0.872505 0.116054
H3    H     H_    0.794370 0.507234 0.607743 0.145192
H4    H     H_    0.352424 0.397917 0.870123 0.104143
H5    H     H_    0.198827 0.807172 0.028059 0.133629
H6    H     H_    0.777812 0.140740 0.441151 0.162597
H7    H     H_    0.194423 0.386560 0.028890 0.139063
H8    H     H_    0.791040 0.559412 0.434872 0.153256
H9    H     H_    0.635254 0.826046 0.030950 0.149548
H10   H     H_    0.371920 0.213864 0.439968 0.126444
H11   H     H_    0.805181 0.180249 0.529754 0.105539
H12   H     H_    0.647464 0.036730 0.370745 0.105766
H13   H     H_    0.160414 0.779478 0.939008 0.173160
H14   H     H_    0.384848 0.188114 0.529130 0.129468
H15   H     H_    0.645630 0.862856 0.941860 0.183292
H16   H     H_    0.751592 0.546156 0.523906 0.120291
H17   H     H_    0.222561 0.380366 0.939748 0.174869
H18   H     H_    0.820865 0.367109 0.149844 0.233776
H19   H     H_    0.811270 0.172878 0.177539 0.150894
H20   H     H_    0.902399 0.305966 0.212773 0.134289
H21   H     H_    0.971278 0.253038 0.168349 0.206185
H22   H     H_    0.182432 0.738039 0.406675 0.260252
H23   H     H_    0.279887 0.445958 0.111204 0.141919
H24   H     H_    0.082429 0.841361 0.387900 0.180457
H25   H     H_    0.143589 0.847396 0.329020 0.165867
H26   H     H_    0.222678 0.973213 0.370275 0.147646
H27   H     H_    0.712571 0.667387 0.163221 0.291623
H28   H     H_    0.765628 0.519452 0.185449 0.139621
H29   H     H_    0.664247 0.420449 0.139180 0.166119
H30   H     H_    0.605775 0.453552 0.194489 0.130007
H31   H     H_    0.243169 0.426357 0.412377 0.255448
H32   H     H_    0.160570 0.235935 0.380004 0.129619
H33   H     H_    0.176804 0.311053 0.324098 0.170160
H34   H     H_    0.933806 0.580015 0.367730 0.117524
H35   H     H_    0.034966 0.247688 0.355074 0.170237
H36   H     H_    0.324884 0.044108 0.157786 0.285769
H37   H     H_    0.480557 0.239877 0.187804 0.141417
H38   H     H_    0.589892 0.217846 0.154270 0.156701
H39   H     H_    0.510092 0.122399 0.206114 0.137386
H40   H     H_    0.525602 0.771631 0.381030 0.268260
H41   H     H_    0.769942 0.915921 0.384003 0.179107
H42   H     H_    0.688817 0.869797 0.328151 0.150814
H43   H     H_    0.751770 0.783171 0.351715 0.186547
H44   H     H_    0.315999 0.915704 0.677234 0.268522
H45   H     H_    0.564490 0.842752 0.112041 0.143218
H46   H     H_    0.228327 0.003067 0.591915 0.194480
H47   H     H_    0.293945 0.092244 0.645891 0.165589
H48   H     H_    0.156305 0.951291 0.650906 0.159079
H49   H     H_    0.749936 0.221920 0.880520 0.267925
H50   H     H_    0.850265 0.079827 0.879622 0.144037
H51   H     H_    0.972954 0.218180 0.854084 0.165583
H52   H     H_    0.828891 0.138833 0.824615 0.163658
H53   H     H_    0.576557 0.665753 0.676157 0.266247
H54   H     H_    0.512615 0.801551 0.651609 0.155757
H55   H     H_    0.394855 0.650337 0.638955 0.160281
H56   H     H_    0.391351 0.347631 0.369449 0.105439
H57   H     H_    0.490135 0.745383 0.589675 0.182991
H58   H     H_    0.273520 0.977186 0.847569 0.256442
H59   H     H_    0.309395 0.167662 0.825066 0.164624
H60   H     H_    0.228953 0.148447 0.879184 0.139541
H61   H     H_    0.391247 0.229335 0.882512 0.174464
H62   H     H_    0.198860 0.492425 0.620961 0.287048
H63   H     H_    0.178209 0.345592 0.672262 0.154017
H64   H     H_    0.017898 0.275845 0.667561 0.195447
H65   H     H_    0.099984 0.395050 0.711975 0.159000
H66   H     H_    0.779608 0.525694 0.880519 0.266228
H67   H     H_    0.719787 0.154630 0.612172 0.135535
H68   H     H_    0.923735 0.765299 0.878170 0.153463
H69   H     H_    0.785726 0.755719 0.855186 0.163375
H70   H     H_    0.859838 0.688389 0.823324 0.166913
H71   H     H_    0.800656 0.027988 0.103169 0.353716
H72   H     H_    0.978344 0.766384 0.485473 0.382917
H73   H     H_    0.979774 0.771451 0.098933 0.360196
H74   H     H_    0.150469 0.133337 0.458408 0.357008
H75   H     H_    0.238620 0.209590 0.100614 0.357170
H76   H     H_    0.942282 0.965631 0.470370 0.382952
H77   H     H_    0.033666 0.715926 0.607756 0.345914
H78   H     H_    0.041173 0.648937 0.870113 0.113553
H79   H     H_    0.027627 0.113879 0.923992 0.316900
H80   H     H_    0.874159 0.868154 0.617743 0.350239
H81   H     H_    0.084139 0.978541 0.921022 0.307588
H82   H     H_    0.939531 0.153017 0.579955 0.314521
H83   H     H_    0.896381 0.913789 0.925938 0.319825
H84   H     H_    0.450444 0.277746 0.611354 0.129064
N1    N     N_2   0.875405 0.334112 0.138441 -0.505195
N2    N     N_2   0.311947 0.041525 0.874716 -0.487493
N3    N     N_2   0.116883 0.453586 0.638627 -0.488099
N4    N     N_2   0.767280 0.596652 0.888812 -0.484242
N5    N     N_2   0.233856 0.816419 0.387390 -0.474370
N6    N     N_2   0.682796 0.591832 0.141729 -0.489395
N7    N     N_2   0.176173 0.408271 0.387255 -0.472780
N8    N     N_2   0.407955 0.090812 0.141165 -0.481820
N9    N     N_2   0.598024 0.762596 0.390588 -0.492611
N10   N     N_2   0.310338 0.935594 0.640845 -0.492218
N11   N     N_2   0.832741 0.233668 0.889561 -0.485611
N12   N     N_2   0.570394 0.676951 0.638926 -0.496501
O1    O     O_R   0.460870 0.120930 0.805240 -0.514946
O2    O     O_R   0.120930 0.460870 0.194760 -0.526872
O3    O     O_R   0.539130 0.660060 0.305240 -0.519034
O4    O     O_R   0.339940 0.879070 0.194760 -0.522351
O5    O     O_R   0.498910 0.350470 0.801870 -0.521448
O6    O     O_R   0.851560 0.501090 0.698130 -0.498482
O7    O     O_R   0.649530 0.148440 0.801870 -0.521873
O8    O     O_R   0.498910 0.350470 0.698130 -0.507877
O9    O     O_R   0.851560 0.501090 0.801870 -0.522552
O10   O     O_R   0.649530 0.148440 0.698130 -0.503444
O11   O     O_R   0.350470 0.498910 0.301870 -0.498911
O12   O     O_R   0.660060 0.539130 0.694760 -0.503174
O13   O     O_R   0.501090 0.851560 0.198130 -0.507031
O14   O     O_R   0.148440 0.649530 0.301870 -0.494686
O15   O     O_R   0.350470 0.498910 0.198130 -0.507428
O16   O     O_R   0.501090 0.851560 0.301870 -0.528733
O17   O     O_R   0.148440 0.649530 0.198130 -0.506574
O18   O     O_3   0.666667 0.333333 0.750000 -0.238731
O19   O     O_3   0.333333 0.666667 0.250000 -0.239625
O20   O     O_2   0.003466 0.180901 0.085019 -0.514335
O21   O     O_R   0.799859 0.092085 0.081505 -0.660110
O22   O     O_2   0.157696 0.952465 0.470245 -0.567858
O23   O     O_R   0.879070 0.339940 0.805240 -0.516240
O24   O     O_R   0.048601 0.751905 0.483662 -0.667404
O25   O     O_2   0.824437 0.821402 0.085611 -0.508414
O26   O     O_R   0.914956 0.708556 0.077111 -0.649275
O27   O     O_2   0.984188 0.162676 0.441735 -0.570228
O28   O     O_R   0.161990 0.206719 0.476707 -0.666176
O29   O     O_2   0.171508 0.003576 0.079883 -0.496770
O30   O     O_R   0.301297 0.205246 0.079382 -0.653247
O31   O     O_2   0.835461 0.775663 0.431477 -0.598117
O32   O     O_R   0.856001 0.924185 0.482105 -0.621376
O33   O     O_2   0.208587 0.695129 0.597997 -0.542067
O34   O     O_R   0.460870 0.120930 0.694760 -0.526668
O35   O     O_R   0.083856 0.767282 0.579237 -0.652554
O36   O     O_2   0.860344 0.065797 0.977917 -0.461960
O37   O     O_R   0.035069 0.189683 0.938280 -0.716961
O38   O     O_2   0.740058 0.904946 0.568235 -0.489178
O39   O     O_R   0.820548 0.794091 0.597545 -0.669625
O40   O     O_2   0.216681 0.148680 0.972194 -0.478199
O41   O     O_R   0.140106 0.960673 0.940474 -0.668781
O42   O     O_2   0.217143 0.317024 0.575019 -0.475470
O43   O     O_R   0.024418 0.173124 0.588261 -0.664554
O44   O     O_2   0.937114 0.777624 0.973919 -0.444623
O45   O     O_R   0.660060 0.539130 0.805240 -0.515002
O46   O     O_R   0.820061 0.845731 0.939780 -0.725335
O47   O     O_R   0.879070 0.339940 0.694760 -0.532003
O48   O     O_R   0.120930 0.460870 0.305240 -0.508584
O49   O     O_R   0.539130 0.660060 0.194760 -0.522183
O50   O     O_R   0.339940 0.879070 0.305240 -0.494609

loop_
_geom_bond_atom_site_label_1
_geom_bond_atom_site_label_2
_ccdc_geom_bond_type
C16   H35   S    
C65   C92   A    
C6    C32   S    
C56   O7    A    
C13   C79   S    
C13   O50   A    
C1    C90   S    
C63   C103  A    
C33   O36   D    
C31   O31   D    
C27   C131  S    
C83   C113  A    
C46   C125  A    
C70   C96   A    
Cr3   O47   S    
Cr2   O18   S    
C40   C93   A    
C60   C99   A    
C11   C119  A    
C11   C132  A    
H82   O43   S    
C71   C79   A    
Cr5   O16   S    
C32   O35   S    
C66   C90   A    
C41   C94   A    
C72   C98   A    
C1    O5    A    
H53   N12   S    
C13   O16   A    
C71   C97   A    
H74   O28   S    
C116  N6    S    
H18   N1    S    
Cr2   O45   S    
C57   C60   A    
C1    O45   A    
C18   N9    S    
C37   O42   D    
C20   H52   S    
C106  C119  A    
C67   O12   A    
C40   C50   A    
C5    C31   S    
C71   H12   S    
C65   H67   S    
C48   C101  A    
C17   H39   S    
C57   H14   S    
C107  N3    S    
C25   N4    S    
C47   C99   A    
C32   O33   D    
C73   C99   A    
C30   O29   D    
Cr1   O1    S    
C41   C49   A    
C14   H25   S    
C3    C29   S    
C7    C117  A    
C7    C130  A    
H40   N9    S    
C100  O11   A    
C22   H59   S    
C51   C91   A    
C66   C93   A    
C125  C130  A    
C38   O44   D    
C72   H1    S    
C87   C108  A    
C80   C116  A    
C52   H11   S    
C28   O26   S    
C57   C96   A    
C5    C126  A    
C75   C102  A    
C9    C121  A    
C106  N4    S    
C56   O1    A    
C12   H19   S    
Cr6   O19   S    
Cr4   O48   S    
C27   O22   D    
Cr3   O18   S    
C36   O41   S    
C69   C87   A    
C17   H38   S    
C129  C132  A    
C110  C124  A    
C109  N12   S    
C21   H54   S    
C76   C103  A    
C46   C98   A    
C59   H5    S    
C50   C103  A    
C41   C120  A    
C73   H56   S    
C33   O37   S    
C31   O32   S    
C14   H26   S    
C7    C33   S    
C34   O38   D    
C76   H23   S    
C58   C97   A    
C74   C82   A    
Cr4   O2    S    
C36   O40   D    
C23   N3    S    
C67   O8    A    
C64   H78   S    
C113  N9    S    
H83   O46   S    
C29   O28   S    
C34   O39   S    
Cr2   O12   S    
C10   C120  A    
Cr3   O23   S    
C111  O4    A    
C45   O47   A    
C26   O21   S    
H76   O32   S    
C23   H64   S    
C53   C93   A    
C42   C95   A    
C105  N10   S    
Cr4   O19   S    
C100  O3    A    
C86   C109  A    
Cr6   O14   S    
C82   C114  A    
C55   C95   A    
Cr6   O17   S    
C26   O20   D    
C2    O15   A    
C20   H51   S    
C20   N11   S    
C88   C107  A    
C3    C128  A    
C75   C81   A    
C65   C84   A    
C8    C34   S    
C113  C126  A    
H75   O30   S    
C18   H43   S    
C69   C95   A    
C27   O24   S    
H79   O37   S    
C6    C118  A    
C22   N2    S    
C44   C124  A    
H27   N6    S    
H77   O35   S    
C115  C128  A    
C124  C131  A    
C23   H65   S    
C28   C132  S    
Cr3   O10   S    
C14   H24   S    
C77   C112  A    
C61   C101  A    
C51   H13   S    
C12   N1    S    
C114  N8    S    
C72   C77   A    
C24   O2    A    
C50   C129  A    
C58   H6    S    
Cr1   O8    S    
C20   H50   S    
H36   N8    S    
C44   C97   A    
C22   H61   S    
C29   O27   D    
C21   N12   S    
C28   O25   D    
C81   C115  A    
H81   O41   S    
C43   C96   A    
C89   O10   A    
C68   H3    S    
C15   H28   S    
C42   C48   A    
C21   H57   S    
C122  O48   A    
Cr1   O18   S    
C90   C106  A    
C112  C125  A    
H58   N2    S    
C85   C104  A    
C52   C58   A    
C108  C121  A    
C66   H4    S    
C45   C88   S    
C45   O6    A    
C78   C85   S    
H44   N10   S    
C104  N11   S    
C23   H63   S    
C18   H41   S    
C53   H17   S    
H80   O39   S    
C83   C100  S    
C74   C101  A    
C68   C88   A    
C112  N1    S    
Cr4   O15   S    
C35   C117  A    
C51   C59   A    
C84   C89   S    
H66   N4    S    
C25   H68   S    
C70   C86   A    
C15   H29   S    
C43   C123  A    
C39   C92   A    
C49   C102  A    
C105  C118  A    
Cr1   O34   S    
C122  O14   A    
C104  C117  A    
C19   N10   S    
C38   O46   S    
C55   H15   S    
C49   C128  A    
C67   C86   S    
C79   C110  A    
Cr2   O6    S    
C22   H60   S    
C24   O17   A    
C109  C123  A    
C76   C80   A    
C6    C131  A    
C56   C87   S    
C25   H70   S    
C26   C130  S    
C19   H46   S    
C54   H16   S    
C5    C8    A    
C17   N8    S    
C8    C123  A    
C39   C44   A    
C74   H45   S    
C60   H10   S    
C10   C37   S    
H72   O24   S    
C39   C118  A    
C54   C62   A    
C15   N6    S    
C78   O9    A    
H22   N5    S    
C47   C126  A    
C81   C122  S    
C110  N5    S    
C89   O34   A    
C21   H55   S    
C82   C111  S    
Cr3   O7    S    
H49   N11   S    
C61   H9    S    
C4    C127  A    
C14   N5    S    
C19   H48   S    
C3    C10   A    
C16   N7    S    
C19   H47   S    
C48   C127  A    
C9    C36   S    
C114  C127  A    
C53   C63   A    
C16   H33   S    
C107  C120  A    
C2    O49   A    
C69   H2    S    
Cr5   O13   S    
C84   C105  A    
C55   C61   A    
C70   H84   S    
C78   O23   A    
H31   N7    S    
Cr4   O11   S    
Cr6   O4    S    
C30   O30   S    
H62   N3    S    
C12   H21   S    
Cr5   O3    S    
C15   H30   S    
C4    C30   S    
Cr2   O9    S    
C54   C94   A    
C2    C80   S    
C115  N7    S    
C18   H42   S    
C108  N2    S    
C16   H32   S    
C24   C77   S    
H73   O26   S    
C40   C119  A    
C63   H7    S    
Cr5   O49   S    
C111  O13   A    
C68   C94   A    
C62   H8    S    
Cr6   O50   S    
C75   H34   S    
C59   C98   A    
C116  C129  A    
C11   C38   S    
H71   O21   S    
Cr1   O5    S    
C64   C91   A    
C12   H20   S    
C4    C9    A    
C25   H69   S    
C35   C46   A    
C43   C47   A    
C64   C85   A    
C73   C83   A    
C52   C92   A    
Cr5   O19   S    
C17   H37   S    
C42   C121  A    
C37   O43   S    
C62   C102  A    
C35   C91   A    
