data_mof_unit_16549.cif
_audit_creation_date              2012-12-10T19:04:13-0500
_audit_creation_method            fapswitch 2.2
_symmetry_space_group_name_H-M    P1
_symmetry_Int_Tables_number       1
_space_group_crystal_system       triclinic
_cell_length_a                    10.62934
_cell_length_b                    10.816306
_cell_length_c                    9.549259
_cell_angle_alpha                 90.037618
_cell_angle_beta                  90.468419
_cell_angle_gamma                 90.195646
_cell_volume                      1097.8368125

loop_
_atom_site_label
_atom_site_type_symbol
_atom_type_description
_atom_site_fract_x
_atom_site_fract_y
_atom_site_fract_z
_atom_type_partial_charge
C1    C     C_R   0.497502 0.262338 0.499913 0.795870
C2    C     C_3   0.956933 0.601877 0.432577 -0.178665
C3    C     C_3   0.039028 0.499873 0.366002 -0.171974
C4    C     C_3   0.122572 0.500874 0.498060 -0.027380
C5    C     C_R   0.487957 0.063710 0.625561 0.118012
C6    C     C_R   0.484871 0.129205 0.499762 -0.097617
C7    C     C_R   0.464285 0.064252 0.373991 -0.222468
C8    C     C_R   0.464543 0.935334 0.374025 -0.225887
C9    C     C_R   0.485396 0.870748 0.499823 -0.101504
C10   C     C_R   0.488388 0.936476 0.625571 0.131277
C11   C     C_3   0.580783 0.930761 0.744094 -0.480319
C12   C     C_R   0.259377 0.500248 0.499351 0.778140
C13   C     C_3   0.579897 0.071081 0.744438 -0.460699
C14   C     C_R   0.559078 0.592394 0.074307 0.258960
C15   C     C_R   0.431635 0.415859 0.073725 -0.085525
C16   C     C_R   0.431664 0.415814 0.924853 -0.084106
C17   C     C_R   0.559167 0.592324 0.926953 0.262338
C18   C     C_3   0.695654 0.624171 0.923073 -0.520029
C19   C     C_3   0.695295 0.625091 0.081878 -0.505936
C20   C     C_R   0.497802 0.737669 0.499956 0.791555
C21   C     C_R   0.740670 0.500038 0.500560 0.794375
C22   C     C_3   0.042681 0.399505 0.566312 -0.203648
C23   C     C_3   0.957007 0.398474 0.434474 -0.163147
C24   C     C_3   0.877459 0.500319 0.501419 -0.008664
C25   C     C_3   0.960783 0.501159 0.633643 -0.143342
C26   C     C_3   0.041963 0.601570 0.564042 0.197955
Cu1   Cu    Cu3+1 0.499990 0.499980 0.640670 0.931519
Cu2   Cu    Cu3+1 0.500010 0.500020 0.359330 0.932778
H1    H     H_    0.918740 0.314921 0.381405 0.131458
H2    H     H_    0.672679 0.891094 0.712391 0.193105
H3    H     H_    0.537205 0.111053 0.840173 0.194208
H4    H     H_    0.671342 0.112841 0.713601 0.197301
H5    H     H_    0.378203 0.346276 0.128970 0.133794
H6    H     H_    0.378284 0.346174 0.868555 0.137145
H7    H     H_    0.753394 0.548352 0.879426 0.213380
H8    H     H_    0.713029 0.716742 0.876937 0.189323
H9    H     H_    0.754115 0.550583 0.128182 0.222409
H10   H     H_    0.711113 0.718531 0.127372 0.190342
H11   H     H_    0.080664 0.316673 0.620449 0.132839
H12   H     H_    0.928471 0.501412 0.743652 0.126881
H13   H     H_    0.918855 0.684624 0.378327 0.126541
H14   H     H_    0.073458 0.499025 0.256555 0.144273
H15   H     H_    0.453993 0.112372 0.275132 0.158940
H16   H     H_    0.454400 0.886985 0.275176 0.162824
H17   H     H_    0.539049 0.889752 0.839885 0.195149
N1    N     N_R   0.500800 0.500930 0.147930 -0.183600
N2    N     N_R   0.500800 0.500890 0.852020 -0.183866
O1    O     O_R   0.500000 0.319640 0.618810 -0.581822
O2    O     O_R   0.500010 0.319680 0.381230 -0.587552
O3    O     O_R   0.316850 0.499950 0.618770 -0.589328
O4    O     O_R   0.316860 0.499990 0.381190 -0.584564
O5    O     O_R   0.499990 0.680320 0.618770 -0.578415
O6    O     O_R   0.500000 0.680360 0.381190 -0.585791
O7    O     O_R   0.683140 0.500010 0.618810 -0.584930
O8    O     O_R   0.683150 0.500050 0.381230 -0.582300
C27   C     C_3   0.093895 0.717004 0.636862 -0.407139
C28   C     C_3   0.988090 0.798664 0.690865 -0.861117
H18   H     H_    0.926234 0.828706 0.603066 0.246189
H19   H     H_    0.931060 0.747618 0.768851 0.249900
H20   H     H_    0.028798 0.882006 0.742091 0.244503
H21   H     H_    0.154898 0.688677 0.726139 0.213196
H22   H     H_    0.151871 0.770299 0.561567 0.194855

loop_
_geom_bond_atom_site_label_1
_geom_bond_atom_site_label_2
_ccdc_geom_bond_type
Cu1   O1    S    
C12   O3    A    
C23   C24   S    
C18   H8    S    
C1    O1    A    
C6    C7    A    
C19   H10   S    
C7    H15   S    
C4    C12   S    
C4    C22   S    
C18   H7    S    
C9    C20   S    
C4    C26   S    
Cu1   O3    S    
Cu2   O6    S    
C12   O4    A    
C17   C18   S    
C25   C26   S    
Cu1   O7    S    
C5    C10   A    
C2    C26   S    
C27   C28   S    
C11   C13   S    
C14   C17   A    
Cu2   N1    S    
C28   H18   S    
C5    C6    A    
C1    O2    A    
C22   H11   S    
C23   H1    S    
C16   N2    A    
Cu2   O8    S    
C15   H5    S    
C2    C3    S    
C25   H12   S    
C2    C24   S    
C21   O7    A    
Cu2   O4    S    
C27   H22   S    
C11   H17   S    
C28   H19   S    
C10   C11   S    
C2    H13   S    
C1    C6    S    
C9    C10   A    
C17   N2    A    
C7    C8    A    
C3    H14   S    
C24   C25   S    
Cu1   O5    S    
C20   O5    A    
C18   C19   S    
Cu2   O2    S    
C21   C24   S    
Cu1   N2    S    
Cu1   Cu2   S    
C21   O8    A    
C22   C23   S    
C20   O6    A    
C28   H20   S    
C19   H9    S    
C15   N1    A    
C16   H6    S    
C3    C23   S    
C27   H21   S    
C13   H4    S    
C5    C13   S    
C14   C19   S    
C13   H3    S    
C15   C16   A    
C3    C4    S    
C8    H16   S    
C11   H2    S    
C8    C9    A    
C14   N1    A    
C22   C25   S    
C26   C27   S    
