data_mof_unit_60182.cif
_audit_creation_date              2012-12-10T18:10:09-0500
_audit_creation_method            fapswitch 2.2
_symmetry_space_group_name_H-M    P1
_symmetry_Int_Tables_number       1
_space_group_crystal_system       monoclinic
_cell_length_a                    18.365953
_cell_length_b                    18.365955
_cell_length_c                    59.944646
_cell_angle_alpha                 90.0
_cell_angle_beta                  90.0
_cell_angle_gamma                 90.0033
_cell_volume                      20219.8245845

loop_
_atom_site_label
_atom_site_type_symbol
_atom_type_description
_atom_site_fract_x
_atom_site_fract_y
_atom_site_fract_z
_atom_type_partial_charge
C1    C     C_R   0.500000 0.000000 0.810423 0.510551
C2    C     C_R   0.470452 0.940923 0.440721 0.024356
C3    C     C_R   0.859692 0.640308 0.750000 0.512443
C4    C     C_R   0.359693 0.859693 0.250000 0.512933
C5    C     C_R   0.640307 0.140307 0.750000 0.512872
C6    C     C_R   0.859692 0.640308 0.250000 0.512411
C7    C     C_R   0.140308 0.359692 0.750000 0.512443
C8    C     C_R   0.756781 0.189836 0.735858 -0.131761
C9    C     C_R   0.243216 0.810167 0.264140 -0.131619
C10   C     C_R   0.810175 0.756793 0.735862 -0.132495
C11   C     C_R   0.189830 0.243211 0.264140 -0.132653
C12   C     C_R   0.243219 0.810164 0.735858 -0.131761
C13   C     C_R   0.938923 0.474832 0.559308 0.024192
C14   C     C_R   0.756784 0.189833 0.264140 -0.131619
C15   C     C_R   0.189825 0.243207 0.735863 -0.132494
C16   C     C_R   0.810170 0.756789 0.264140 -0.132653
C17   C     C_R   0.756789 0.810170 0.264140 -0.132650
C18   C     C_R   0.243207 0.189825 0.735862 -0.132499
C19   C     C_R   0.810167 0.243216 0.264140 -0.131610
C20   C     C_R   0.189836 0.756781 0.735858 -0.131769
C21   C     C_R   0.243211 0.189830 0.264140 -0.132650
C22   C     C_R   0.756793 0.810175 0.735862 -0.132499
C23   C     C_R   0.189833 0.756784 0.264140 -0.131610
C24   C     C_R   0.059077 0.529545 0.440721 0.024356
C25   C     C_R   0.810164 0.243219 0.735858 -0.131769
C26   C     C_R   0.256784 0.689833 0.235859 -0.131732
C27   C     C_R   0.743218 0.310165 0.764141 -0.131647
C28   C     C_R   0.310171 0.256789 0.235861 -0.132616
C29   C     C_R   0.689826 0.743207 0.764138 -0.132533
C30   C     C_R   0.743216 0.310167 0.235859 -0.131733
C31   C     C_R   0.256782 0.689835 0.764141 -0.131647
C32   C     C_R   0.689829 0.743211 0.235861 -0.132617
C33   C     C_R   0.310174 0.256793 0.764138 -0.132533
C34   C     C_R   0.256793 0.310174 0.764138 -0.132590
C35   C     C_R   0.474830 0.938924 0.559308 0.024193
C36   C     C_R   0.743210 0.689829 0.235861 -0.132558
C37   C     C_R   0.310165 0.743218 0.764142 -0.131702
C38   C     C_R   0.689833 0.256784 0.235859 -0.131679
C39   C     C_R   0.743207 0.689826 0.764138 -0.132591
C40   C     C_R   0.256789 0.310171 0.235861 -0.132558
C41   C     C_R   0.689835 0.256782 0.764142 -0.131702
C42   C     C_R   0.310167 0.743216 0.235859 -0.131678
C43   C     C_R   0.803648 0.303648 0.750000 0.040909
C44   C     C_R   0.196352 0.696352 0.250000 0.040876
C45   C     C_R   0.696353 0.803648 0.750000 0.040895
C46   C     C_R   0.529547 0.059076 0.440721 0.024356
C47   C     C_R   0.303648 0.196353 0.250000 0.040865
C48   C     C_R   0.196352 0.696352 0.750000 0.040909
C49   C     C_R   0.803648 0.303648 0.250000 0.040876
C50   C     C_R   0.303647 0.196352 0.750000 0.040895
C51   C     C_R   0.696352 0.803647 0.250000 0.040865
C52   C     C_R   0.803647 0.696352 0.250000 0.040877
C53   C     C_R   0.196352 0.303647 0.750000 0.040883
C54   C     C_R   0.696352 0.196352 0.250000 0.040876
C55   C     C_R   0.303648 0.803648 0.750000 0.040909
C56   C     C_R   0.196353 0.303648 0.250000 0.040877
C57   C     C_R   0.061077 0.525168 0.559308 0.024192
C58   C     C_R   0.803648 0.696353 0.750000 0.040883
C59   C     C_R   0.303648 0.803648 0.250000 0.040876
C60   C     C_R   0.696352 0.196352 0.750000 0.040909
C61   C     C_R   0.524547 0.060055 0.582761 0.398234
C62   C     C_R   0.471121 0.941904 0.417267 0.398140
C63   C     C_R   0.939944 0.475455 0.582761 0.398233
C64   C     C_R   0.058097 0.528876 0.417267 0.398140
C65   C     C_R   0.475453 0.939945 0.582761 0.398233
C66   C     C_R   0.528879 0.058096 0.417267 0.398140
C67   C     C_R   0.060056 0.524545 0.582761 0.398233
C68   C     C_R   0.940923 0.470454 0.440721 0.024356
C69   C     C_R   0.941903 0.471123 0.417267 0.398140
C70   C     C_R   0.024552 0.560052 0.082761 0.398217
C71   C     C_R   0.971127 0.441901 0.917267 0.398159
C72   C     C_R   0.441900 0.971128 0.082733 0.398159
C73   C     C_R   0.560054 0.024549 0.917239 0.398217
C74   C     C_R   0.975448 0.439947 0.082761 0.398217
C75   C     C_R   0.028873 0.558099 0.917267 0.398159
C76   C     C_R   0.558099 0.028872 0.082733 0.398159
C77   C     C_R   0.439946 0.975451 0.917239 0.398217
C78   C     C_R   0.565935 0.001092 0.629748 -0.059321
C79   C     C_R   0.025175 0.561074 0.059308 0.024187
C80   C     C_R   0.434087 0.001963 0.370251 -0.059306
C81   C     C_R   0.998906 0.434065 0.629748 -0.059321
C82   C     C_R   0.998038 0.565913 0.370251 -0.059306
C83   C     C_R   0.434065 0.998908 0.629748 -0.059321
C84   C     C_R   0.565913 0.998036 0.370251 -0.059306
C85   C     C_R   0.001093 0.565935 0.629748 -0.059321
C86   C     C_R   0.001962 0.434087 0.370251 -0.059307
C87   C     C_R   0.065935 0.501088 0.129748 -0.059332
C88   C     C_R   0.934086 0.501959 0.870251 -0.059296
C89   C     C_R   0.501958 0.934086 0.129749 -0.059294
C90   C     C_R   0.970458 0.440921 0.940721 0.024362
C91   C     C_R   0.501091 0.065935 0.870252 -0.059333
C92   C     C_R   0.934065 0.498912 0.129748 -0.059332
C93   C     C_R   0.065913 0.498041 0.870251 -0.059296
C94   C     C_R   0.498042 0.065913 0.129749 -0.059295
C95   C     C_R   0.498909 0.934065 0.870252 -0.059333
C96   C     C_R   0.566006 0.001063 0.653041 -0.138178
C97   C     C_R   0.434018 0.001911 0.346958 -0.138397
C98   C     C_R   0.998936 0.433994 0.653041 -0.138178
C99   C     C_R   0.998090 0.565982 0.346958 -0.138397
C100  C     C_R   0.433994 0.998937 0.653041 -0.138178
C101  C     C_R   0.440920 0.970459 0.059279 0.024362
C102  C     C_R   0.565982 0.998089 0.346958 -0.138397
C103  C     C_R   0.001064 0.566006 0.653041 -0.138178
C104  C     C_R   0.001910 0.434018 0.346958 -0.138397
C105  C     C_R   0.066006 0.501059 0.153041 -0.138186
C106  C     C_R   0.934017 0.501907 0.846958 -0.138391
C107  C     C_R   0.501906 0.934017 0.153042 -0.138389
C108  C     C_R   0.501062 0.066006 0.846958 -0.138188
C109  C     C_R   0.933994 0.498941 0.153041 -0.138186
C110  C     C_R   0.065982 0.498093 0.846958 -0.138391
C111  C     C_R   0.498094 0.065982 0.153042 -0.138389
C112  C     C_R   0.500000 0.000000 0.189577 0.510531
C113  C     C_R   0.561075 0.025172 0.940692 0.024187
C114  C     C_R   0.498938 0.933994 0.846958 -0.138188
C115  C     C_R   0.500000 0.000000 0.617987 0.238885
C116  C     C_R   0.500000 0.000000 0.382022 0.237962
C117  C     C_R   0.000000 0.500000 0.617987 0.238886
C118  C     C_R   0.000000 0.500000 0.382022 0.237963
C119  C     C_R   1.000000 0.500000 0.117987 0.238851
C120  C     C_R   1.000000 0.500000 0.882022 0.237994
C121  C     C_R   0.500000 0.000000 0.117978 0.237995
C122  C     C_R   0.500000 1.000000 0.882013 0.238851
C123  C     C_R   0.500000 0.000000 0.547388 -0.026915
C124  C     C_R   0.974825 0.438926 0.059308 0.024187
C125  C     C_R   0.500000 0.000000 0.452641 -0.026927
C126  C     C_R   0.000000 0.500000 0.547388 -0.026915
C127  C     C_R   0.000000 0.500000 0.452641 -0.026927
C128  C     C_R   1.000000 0.500000 0.047388 -0.026918
C129  C     C_R   1.000000 0.500000 0.952641 -0.026922
C130  C     C_R   0.500000 1.000000 0.047359 -0.026922
C131  C     C_R   0.500000 1.000000 0.952612 -0.026918
C132  C     C_R   0.029542 0.559079 0.940721 0.024362
C133  C     C_R   0.559079 0.029541 0.059279 0.024362
C134  C     C_R   0.438925 0.974828 0.940692 0.024187
C135  C     C_R   0.549914 0.121989 0.547635 -0.111268
C136  C     C_R   0.440782 0.882251 0.452394 -0.111211
C137  C     C_R   0.878009 0.450091 0.547635 -0.111268
C138  C     C_R   0.117751 0.559214 0.452394 -0.111210
C139  C     C_R   0.450086 0.878011 0.547635 -0.111268
C140  C     C_R   0.000000 0.500000 0.810423 0.510521
C141  C     C_R   0.559218 0.117749 0.452394 -0.111211
C142  C     C_R   0.121991 0.549909 0.547635 -0.111268
C143  C     C_R   0.882249 0.440786 0.452394 -0.111211
C144  C     C_R   0.049925 0.621984 0.047635 -0.111294
C145  C     C_R   0.940792 0.382246 0.952394 -0.111187
C146  C     C_R   0.382244 0.940794 0.047606 -0.111186
C147  C     C_R   0.621987 0.049918 0.952365 -0.111295
C148  C     C_R   0.950075 0.378016 0.047635 -0.111295
C149  C     C_R   0.059208 0.617754 0.952394 -0.111187
C150  C     C_R   0.617756 0.059206 0.047606 -0.111186
C151  C     C_R   1.000000 0.500000 0.189577 0.510561
C152  C     C_R   0.378013 0.950081 0.952365 -0.111295
C153  C     C_R   0.500000 0.000000 0.664931 0.025424
C154  C     C_R   0.500000 0.000000 0.335068 0.025310
C155  C     C_R   1.000000 0.500000 0.664931 0.025423
C156  C     C_R   0.000000 0.500000 0.335068 0.025311
C157  C     C_R   0.000000 0.500000 0.164931 0.025402
C158  C     C_R   1.000000 0.500000 0.835068 0.025329
C159  C     C_R   0.500000 0.000000 0.164932 0.025329
C160  C     C_R   0.500000 1.000000 0.835068 0.025402
C161  C     C_R   0.028855 0.560790 0.988140 0.018385
C162  C     C_R   1.000000 0.500000 0.310423 0.510507
C163  C     C_R   0.973074 0.438331 0.011888 0.018346
C164  C     C_R   0.438330 0.973077 0.988111 0.018346
C165  C     C_R   0.560791 0.028853 0.011859 0.018385
C166  C     C_R   0.971145 0.439210 0.988140 0.018385
C167  C     C_R   0.026926 0.561669 0.011888 0.018346
C168  C     C_R   0.561670 0.026923 0.988111 0.018345
C169  C     C_R   0.439209 0.971147 0.011859 0.018385
C170  C     C_R   0.528857 0.060789 0.488140 0.018389
C171  C     C_R   0.473076 0.938330 0.511888 0.018342
C172  C     C_R   0.939210 0.471145 0.488140 0.018389
C173  C     C_R   0.000000 0.500000 0.689577 0.510575
C174  C     C_R   0.061671 0.526921 0.511888 0.018342
C175  C     C_R   0.471143 0.939211 0.488140 0.018389
C176  C     C_R   0.526924 0.061670 0.511888 0.018342
C177  C     C_R   0.060790 0.528855 0.488140 0.018389
C178  C     C_R   0.938329 0.473079 0.511888 0.018342
C179  C     C_R   1.000000 0.500000 0.976410 0.034301
C180  C     C_R   0.000000 0.500000 0.023619 0.034335
C181  C     C_R   0.500000 1.000000 0.976381 0.034335
C182  C     C_R   0.500000 1.000000 0.023590 0.034301
C183  C     C_R   0.500000 0.000000 0.476410 0.034301
C184  C     C_R   0.500000 1.000000 0.310423 0.510511
C185  C     C_R   0.500000 0.000000 0.523619 0.034335
C186  C     C_R   0.000000 0.500000 0.476410 0.034301
C187  C     C_R   1.000000 0.500000 0.523619 0.034335
C188  C     C_R   0.059112 0.618671 0.975568 -0.139114
C189  C     C_R   0.949278 0.377506 0.024460 -0.139220
C190  C     C_R   0.377504 0.949284 0.975540 -0.139220
C191  C     C_R   0.618672 0.059110 0.024432 -0.139114
C192  C     C_R   0.940888 0.381329 0.975568 -0.139114
C193  C     C_R   0.050722 0.622494 0.024460 -0.139220
C194  C     C_R   0.622496 0.050716 0.975539 -0.139220
C195  C     C_R   0.500000 0.000000 0.689577 0.510571
C196  C     C_R   0.381327 0.940890 0.024432 -0.139114
C197  C     C_R   0.559121 0.118667 0.475568 -0.139132
C198  C     C_R   0.449287 0.877502 0.524460 -0.139201
C199  C     C_R   0.881331 0.440883 0.475568 -0.139132
C200  C     C_R   0.122499 0.550708 0.524460 -0.139201
C201  C     C_R   0.440879 0.881333 0.475568 -0.139132
C202  C     C_R   0.550713 0.122498 0.524460 -0.139201
C203  C     C_R   0.118669 0.559117 0.475568 -0.139133
C204  C     C_R   0.877501 0.449292 0.524460 -0.139201
C205  C     C_R   0.640308 0.859692 0.750000 0.512495
C206  C     C_R   0.525170 0.061076 0.559308 0.024193
C207  C     C_R   0.359692 0.140308 0.250000 0.512359
C208  C     C_R   0.140307 0.640307 0.750000 0.512900
C209  C     C_R   0.859693 0.359693 0.250000 0.512904
C210  C     C_R   0.359692 0.140308 0.750000 0.512495
C211  C     C_R   0.640308 0.859692 0.250000 0.512359
C212  C     C_R   0.859693 0.359693 0.750000 0.512901
C213  C     C_R   0.140307 0.640307 0.250000 0.512904
C214  C     C_R   0.640307 0.140307 0.250000 0.512933
C215  C     C_R   0.359693 0.859693 0.750000 0.512872
C216  C     C_R   0.140308 0.359692 0.250000 0.512411
H1    H     H_    0.382289 0.998133 0.661720 0.138043
H2    H     H_    0.117669 0.496507 0.838279 0.138079
H3    H     H_    0.496509 0.117669 0.161721 0.138078
H4    H     H_    0.498136 0.882289 0.838280 0.138071
H5    H     H_    0.117711 0.501860 0.161720 0.138071
H6    H     H_    0.882331 0.503493 0.838279 0.138079
H7    H     H_    0.503491 0.882331 0.161721 0.138078
H8    H     H_    0.501864 0.117711 0.838280 0.138071
H9    H     H_    0.382835 0.998285 0.620808 0.134340
H10   H     H_    0.617131 0.996232 0.379182 0.135516
H11   H     H_    0.001717 0.617165 0.620808 0.134339
H12   H     H_    0.617668 0.996500 0.338279 0.138100
H13   H     H_    0.003765 0.382869 0.379182 0.135516
H14   H     H_    0.617165 0.001715 0.620808 0.134340
H15   H     H_    0.382869 0.003768 0.379182 0.135516
H16   H     H_    0.998283 0.382835 0.620808 0.134339
H17   H     H_    0.996235 0.617131 0.379182 0.135516
H18   H     H_    0.882835 0.498292 0.120809 0.134372
H19   H     H_    0.117131 0.496240 0.879182 0.135492
H20   H     H_    0.496241 0.117132 0.120818 0.135492
H21   H     H_    0.498288 0.882835 0.879191 0.134372
H22   H     H_    0.117165 0.501708 0.120809 0.134372
H23   H     H_    0.001870 0.617711 0.661720 0.138043
H24   H     H_    0.882868 0.503760 0.879182 0.135492
H25   H     H_    0.503759 0.882868 0.120818 0.135492
H26   H     H_    0.501712 0.117165 0.879191 0.134372
H27   H     H_    0.568863 0.169995 0.556392 0.167532
H28   H     H_    0.417028 0.836431 0.443637 0.167411
H29   H     H_    0.830003 0.431143 0.556392 0.167532
H30   H     H_    0.163572 0.582966 0.443637 0.167411
H31   H     H_    0.431137 0.830005 0.556392 0.167532
H32   H     H_    0.582972 0.163569 0.443637 0.167411
H33   H     H_    0.169997 0.568857 0.556392 0.167532
H34   H     H_    0.003497 0.382331 0.338279 0.138100
H35   H     H_    0.836428 0.417034 0.443637 0.167411
H36   H     H_    0.068879 0.669988 0.056393 0.167523
H37   H     H_    0.917044 0.336423 0.943636 0.167421
H38   H     H_    0.336421 0.917046 0.056363 0.167421
H39   H     H_    0.669991 0.068870 0.943607 0.167523
H40   H     H_    0.931121 0.330012 0.056393 0.167523
H41   H     H_    0.082956 0.663577 0.943636 0.167421
H42   H     H_    0.663579 0.082953 0.056363 0.167421
H43   H     H_    0.330009 0.931129 0.943607 0.167523
H44   H     H_    0.084276 0.665587 0.983048 0.110623
H45   H     H_    0.617711 0.001867 0.661720 0.138043
H46   H     H_    0.930399 0.327728 0.016980 0.110929
H47   H     H_    0.327725 0.930408 0.983020 0.110930
H48   H     H_    0.665589 0.084273 0.016952 0.110623
H49   H     H_    0.915724 0.334413 0.983048 0.110623
H50   H     H_    0.069601 0.672271 0.016980 0.110929
H51   H     H_    0.672275 0.069592 0.983020 0.110930
H52   H     H_    0.334411 0.915726 0.016952 0.110623
H53   H     H_    0.584291 0.165579 0.483048 0.110598
H54   H     H_    0.430415 0.827722 0.516980 0.110951
H55   H     H_    0.834418 0.415715 0.483048 0.110598
H56   H     H_    0.382331 0.003500 0.338279 0.138100
H57   H     H_    0.172280 0.569578 0.516980 0.110951
H58   H     H_    0.415709 0.834421 0.483048 0.110598
H59   H     H_    0.569585 0.172277 0.516980 0.110951
H60   H     H_    0.165582 0.584285 0.483048 0.110598
H61   H     H_    0.827720 0.430421 0.516980 0.110951
H62   H     H_    0.762871 0.143587 0.724802 0.139550
H63   H     H_    0.237124 0.856418 0.275196 0.139774
H64   H     H_    0.856431 0.762893 0.724810 0.139030
H65   H     H_    0.143577 0.237115 0.275194 0.138934
H66   H     H_    0.237129 0.856413 0.724802 0.139550
H67   H     H_    0.998130 0.382289 0.661720 0.138043
H68   H     H_    0.762876 0.143582 0.275196 0.139774
H69   H     H_    0.143569 0.237107 0.724810 0.139029
H70   H     H_    0.856423 0.762885 0.275194 0.138934
H71   H     H_    0.762885 0.856423 0.275194 0.138935
H72   H     H_    0.237107 0.143569 0.724810 0.139028
H73   H     H_    0.856418 0.237124 0.275196 0.139775
H74   H     H_    0.143587 0.762871 0.724802 0.139549
H75   H     H_    0.237115 0.143577 0.275194 0.138935
H76   H     H_    0.762893 0.856431 0.724810 0.139028
H77   H     H_    0.143582 0.762876 0.275196 0.139775
H78   H     H_    0.996503 0.617668 0.338279 0.138100
H79   H     H_    0.856413 0.237129 0.724802 0.139549
H80   H     H_    0.262875 0.643583 0.224804 0.139611
H81   H     H_    0.737129 0.356413 0.775198 0.139713
H82   H     H_    0.356424 0.262885 0.224806 0.138943
H83   H     H_    0.643570 0.737108 0.775190 0.139021
H84   H     H_    0.737125 0.356417 0.224804 0.139611
H85   H     H_    0.262871 0.643587 0.775198 0.139713
H86   H     H_    0.643576 0.737115 0.224806 0.138943
H87   H     H_    0.356430 0.262892 0.775190 0.139021
H88   H     H_    0.262892 0.356430 0.775190 0.138952
H89   H     H_    0.882288 0.498140 0.161720 0.138071
H90   H     H_    0.737115 0.643576 0.224807 0.139012
H91   H     H_    0.356413 0.737129 0.775198 0.139615
H92   H     H_    0.643583 0.262875 0.224804 0.139709
H93   H     H_    0.737108 0.643570 0.775190 0.138952
H94   H     H_    0.262885 0.356424 0.224807 0.139012
H95   H     H_    0.643587 0.262871 0.775198 0.139615
H96   H     H_    0.356417 0.737125 0.224804 0.139709
N1    N     N_R   0.500000 0.000000 0.593995 -0.396783
N2    N     N_R   0.500000 0.000000 0.406024 -0.396529
N3    N     N_R   1.000000 0.500000 0.593995 -0.396783
N4    N     N_R   0.000000 0.500000 0.406024 -0.396529
N5    N     N_R   0.000000 0.500000 0.093995 -0.396797
N6    N     N_R   1.000000 0.500000 0.906024 -0.396511
N7    N     N_R   0.500000 0.000000 0.093976 -0.396512
N8    N     N_R   0.500000 1.000000 0.906005 -0.396797
O1    O     O_3   0.500000 0.000000 0.750000 -0.433501
O2    O     O_R   0.500000 0.060550 0.200300 -0.545148
O3    O     O_R   0.060550 0.500000 0.799700 -0.545157
O4    O     O_R   0.939450 0.500000 0.200300 -0.545183
O5    O     O_R   1.000000 0.560550 0.299700 -0.545155
O6    O     O_R   1.000000 0.439450 0.700300 -0.545185
O7    O     O_R   0.439450 0.000000 0.299700 -0.545151
O8    O     O_R   0.560550 0.000000 0.700300 -0.545188
O9    O     O_R   0.000000 0.439450 0.299700 -0.545155
O10   O     O_R   1.000000 0.560550 0.700300 -0.545185
O11   O     O_R   0.560550 0.000000 0.299700 -0.545152
O12   O     O_3   0.500000 0.000000 0.250000 -0.433517
O13   O     O_R   0.439450 0.000000 0.700300 -0.545188
O14   O     O_R   0.585450 0.853690 0.762850 -0.547584
O15   O     O_R   0.414550 0.146310 0.237150 -0.547705
O16   O     O_R   0.146310 0.585450 0.762850 -0.547178
O17   O     O_R   0.853690 0.414550 0.237150 -0.547347
O18   O     O_R   0.414550 0.146310 0.762850 -0.547584
O19   O     O_R   0.585450 0.853690 0.237150 -0.547705
O20   O     O_R   0.853690 0.414550 0.762850 -0.547178
O21   O     O_R   0.146310 0.585450 0.237150 -0.547347
O22   O     O_R   0.585450 0.146310 0.237150 -0.547209
O23   O     O_3   0.000000 0.500000 0.750000 -0.433509
O24   O     O_R   0.414550 0.853690 0.762850 -0.547317
O25   O     O_R   0.146310 0.414550 0.237150 -0.547580
O26   O     O_R   0.853690 0.585450 0.762850 -0.547709
O27   O     O_R   0.414550 0.853690 0.237150 -0.547209
O28   O     O_R   0.585450 0.146310 0.762850 -0.547317
O29   O     O_R   0.853690 0.585450 0.237150 -0.547580
O30   O     O_R   0.146310 0.414550 0.762850 -0.547709
O31   O     O_R   0.085450 0.353690 0.262850 -0.547719
O32   O     O_R   0.914550 0.646310 0.737150 -0.547569
O33   O     O_R   0.646310 0.085450 0.262850 -0.547183
O34   O     O_3   0.000000 0.500000 0.250000 -0.433509
O35   O     O_R   0.353690 0.914550 0.737150 -0.547342
O36   O     O_R   0.914550 0.646310 0.262850 -0.547719
O37   O     O_R   0.085450 0.353690 0.737150 -0.547569
O38   O     O_R   0.353690 0.914550 0.262850 -0.547183
O39   O     O_R   0.646310 0.085450 0.737150 -0.547342
O40   O     O_R   0.085450 0.646310 0.737150 -0.547361
O41   O     O_R   0.914550 0.353690 0.262850 -0.547165
O42   O     O_R   0.646310 0.914550 0.737150 -0.547581
O43   O     O_R   0.353690 0.085450 0.262850 -0.547708
O44   O     O_R   0.914550 0.353690 0.737150 -0.547361
O45   O     O_R   0.500000 0.060550 0.799700 -0.545192
O46   O     O_R   0.085450 0.646310 0.262850 -0.547165
O47   O     O_R   0.353690 0.085450 0.737150 -0.547581
O48   O     O_R   0.646310 0.914550 0.262850 -0.547708
O49   O     O_2   0.547751 0.118845 0.594248 -0.495450
O50   O     O_2   0.443727 0.884921 0.405791 -0.496059
O51   O     O_2   0.881153 0.452254 0.594248 -0.495450
O52   O     O_2   0.115081 0.556269 0.405791 -0.496059
O53   O     O_2   0.452249 0.881155 0.594248 -0.495450
O54   O     O_2   0.556272 0.115079 0.405791 -0.496059
O55   O     O_2   0.118847 0.547746 0.594248 -0.495450
O56   O     O_R   0.500000 0.939450 0.200300 -0.545148
O57   O     O_2   0.884919 0.443731 0.405791 -0.496059
O58   O     O_2   0.047761 0.618841 0.094248 -0.495416
O59   O     O_2   0.943738 0.384916 0.905791 -0.496109
O60   O     O_2   0.384915 0.943740 0.094209 -0.496107
O61   O     O_2   0.618843 0.047755 0.905752 -0.495418
O62   O     O_2   0.952239 0.381159 0.094248 -0.495416
O63   O     O_2   0.056262 0.615084 0.905791 -0.496109
O64   O     O_2   0.615085 0.056260 0.094209 -0.496107
O65   O     O_2   0.381157 0.952245 0.905752 -0.495418
O66   O     O_R   0.939450 0.500000 0.799700 -0.545157
O67   O     O_R   0.060550 0.500000 0.200300 -0.545183
O68   O     O_R   0.500000 0.939450 0.799700 -0.545192
Zn1   Zn    Zn3+2 0.586770 0.000000 0.731050 0.939682
Zn2   Zn    Zn3+2 0.913230 0.500000 0.768950 0.939691
Zn3   Zn    Zn3+2 0.500000 0.086770 0.231050 0.939662
Zn4   Zn    Zn3+2 0.500000 0.913230 0.768950 0.939690
Zn5   Zn    Zn3+2 0.913230 0.500000 0.231050 0.939662
Zn6   Zn    Zn3+2 0.086770 0.500000 0.768950 0.939691
Zn7   Zn    Zn3+2 0.500000 0.913230 0.231050 0.939662
Zn8   Zn    Zn3+2 0.500000 0.086770 0.768950 0.939690
Zn9   Zn    Zn3+2 0.413230 0.000000 0.268950 0.939672
Zn10  Zn    Zn3+2 0.000000 0.586770 0.731050 0.939669
Zn11  Zn    Zn3+2 0.000000 0.413230 0.268950 0.939684
Zn12  Zn    Zn3+2 0.413230 0.000000 0.731050 0.939682
Zn13  Zn    Zn3+2 0.586770 0.000000 0.268950 0.939672
Zn14  Zn    Zn3+2 1.000000 0.413230 0.731050 0.939669
Zn15  Zn    Zn3+2 0.000000 0.586770 0.268950 0.939684
Zn16  Zn    Zn3+2 0.086770 0.500000 0.231050 0.939662

loop_
_geom_bond_atom_site_label_1
_geom_bond_atom_site_label_2
_ccdc_geom_bond_type
C100  C153  A    
C209  O17   A    
C214  O22   A    
C28   C47   A    
O31   Zn11  S    
O34   Zn11  S    
C78   C115  A    
C112  O2    A    
C139  H31   S    
C164  C169  A    
C170  C176  A    
O20   Zn2   S    
C143  H35   S    
O45   Zn8   S    
C175  C183  A    
C126  C187  A    
C92   C119  A    
C40   H94   S    
C71   N6    A    
C76   O64   S    
C92   C109  A    
C18   H72   S    
C72   C101  A    
C28   C40   A    
O36   Zn15  S    
C81   C117  A    
C94   C111  A    
C141  H32   S    
C216  O25   A    
C30   C38   A    
C172  C199  A    
C135  H27   S    
C152  C190  A    
C35   C139  A    
O1    Zn8   S    
C116  N2    S    
C171  C175  A    
C80   C116  A    
C78   C96   A    
C91   C122  A    
C24   C127  A    
C128  C180  A    
C93   C120  A    
C135  C202  A    
C74   N5    A    
C75   O63   S    
C85   C103  A    
C93   C110  A    
O12   Zn9   S    
C167  C180  A    
O10   Zn10  S    
C151  O67   A    
C87   H22   S    
C146  H38   S    
C69   N4    A    
O4    Zn5   S    
C141  C197  A    
C73   O61   S    
C205  O42   A    
C46   C141  A    
C104  H34   S    
C171  C185  A    
C7    O37   A    
C214  O33   A    
C65   O53   S    
C98   H67   S    
C77   O65   S    
C33   C50   A    
C177  C186  A    
C119  N5    S    
C29   C45   A    
C9    C59   A    
C123  C185  A    
C64   O52   S    
C83   C115  A    
C19   C49   A    
C13   C63   A    
C62   N2    A    
C1    O68   A    
C99   C156  A    
C48   C208  S    
C97   C154  A    
C85   C117  A    
C174  C177  A    
C175  C201  A    
C135  C206  A    
C95   C122  A    
C30   C49   A    
O12   Zn13  S    
C83   C100  A    
O30   Zn6   S    
C209  O41   A    
C82   C118  A    
C197  H53   S    
O28   Zn8   S    
C151  C157  S    
C199  H55   S    
C54   C214  S    
C41   H95   S    
C70   C79   A    
C86   H13   S    
C14   C19   A    
C114  H4    S    
C173  O10   A    
O41   Zn11  S    
C76   C133  A    
C97   H56   S    
C3    O32   A    
C137  C204  A    
C90   C145  A    
O22   Zn3   S    
C20   H74   S    
C29   H83   S    
C77   N8    A    
C162  O5    A    
C30   H84   S    
C140  O66   A    
C204  H61   S    
C17   H71   S    
C147  H39   S    
C189  H46   S    
C15   H69   S    
C63   N3    A    
C2    C136  A    
C169  C182  A    
O32   Zn10  S    
C22   C45   A    
C149  C188  A    
C168  C181  A    
O34   Zn15  S    
C82   H17   S    
C6    C52   S    
O1    Zn1   S    
C11   C56   A    
C121  N7    S    
O25   Zn16  S    
C122  N8    S    
C80   C97   A    
C84   C102  A    
C27   H81   S    
C69   O57   S    
C99   H78   S    
C109  C157  A    
C210  O47   A    
C25   C43   A    
C26   C44   A    
O11   Zn13  S    
C57   C142  A    
C68   C143  A    
C32   C36   A    
C10   C58   A    
C161  C188  A    
C55   C215  S    
O26   Zn2   S    
C65   N1    A    
C162  O9    A    
C200  H57   S    
C109  H89   S    
C95   H21   S    
C7    O30   A    
C211  O48   A    
O18   Zn8   S    
C164  C181  A    
C140  C158  S    
C90   C129  A    
O42   Zn1   S    
C8    C60   A    
C215  O24   A    
C161  C179  A    
C195  O13   A    
C84   C116  A    
C142  H33   S    
C205  O14   A    
C25   H79   S    
C167  C193  A    
C26   H80   S    
C39   H93   S    
C111  H3    S    
C208  O40   A    
C164  C190  A    
C28   H82   S    
C136  C201  A    
O44   Zn14  S    
O37   Zn14  S    
C176  C202  A    
C195  O8    A    
C31   H85   S    
C184  O11   A    
O1    Zn12  S    
C9    C23   A    
C39   C58   A    
C11   C21   A    
C210  O18   A    
C190  H47   S    
C3    C58   S    
C87   C119  A    
C174  C187  A    
C137  H29   S    
C87   C105  A    
C149  H41   S    
C102  H12   S    
O67   Zn16  S    
O56   Zn7   S    
C114  C160  A    
C161  C167  A    
O47   Zn12  S    
C208  O16   A    
C148  H40   S    
C145  C192  A    
C37   H91   S    
C196  H52   S    
C38   H92   S    
C77   C134  A    
O46   Zn15  S    
C75   C132  A    
C26   C42   A    
C117  N3    S    
C172  C178  A    
C118  N4    S    
C5    C60   S    
O33   Zn13  S    
C133  C150  A    
C41   C60   A    
C42   C59   A    
C32   H86   S    
C203  H60   S    
C61   C206  A    
O7    Zn9   S    
C191  H48   S    
C35   C123  A    
O39   Zn1   S    
O13   Zn12  S    
C207  O43   A    
C101  C130  A    
C152  H43   S    
O8    Zn1   S    
C71   C90   A    
C105  H5    S    
O40   Zn10  S    
C192  H49   S    
C56   C216  S    
C12   C55   A    
O29   Zn5   S    
C37   C55   A    
C2    C125  A    
C50   C210  S    
C173  O6    A    
O14   Zn4   S    
C170  C197  A    
C21   C47   A    
C74   C124  A    
C8    C25   A    
O23   Zn14  S    
C213  O21   A    
C15   C18   A    
C82   C99   A    
C46   C125  A    
O21   Zn16  S    
C131  C134  A    
C17   C51   A    
C139  C198  A    
C176  C185  A    
C76   N7    A    
C74   O62   S    
C10   C22   A    
C124  C148  A    
C193  H50   S    
C15   C53   A    
C46   C66   A    
C171  C198  A    
O9    Zn11  S    
C33   H87   S    
C34   H88   S    
C81   C98   A    
C35   C65   A    
C95   C114  A    
C88   H24   S    
C36   H90   S    
O48   Zn13  S    
C147  C194  A    
O3    Zn6   S    
C111  C159  A    
C150  C191  A    
C105  C157  A    
C16   C17   A    
C40   C56   A    
C177  C203  A    
C85   H11   S    
O38   Zn9   S    
C88   C120  A    
C102  C154  A    
C110  C158  A    
C124  C128  A    
C129  C132  A    
C1    O45   A    
C6    O29   A    
C61   N1    A    
C86   C104  A    
C24   C64   A    
C132  C149  A    
O23   Zn2   S    
C145  H37   S    
O66   Zn2   S    
C66   N2    A    
C5    O28   A    
C44   C213  S    
C163  C166  A    
C66   O54   S    
C14   H68   S    
C23   C44   A    
C123  C206  A    
C32   C51   A    
C108  H8    S    
C138  C203  A    
C96   C153  A    
C153  C195  S    
C91   H26   S    
C134  C152  A    
C188  H44   S    
C86   C118  A    
C43   C212  S    
C68   C127  A    
C20   C48   A    
C3    O26   A    
C13   C126  A    
C103  C155  A    
C67   N3    A    
C62   O50   S    
C215  O35   A    
O5    Zn15  S    
C140  O3    A    
C130  C133  A    
C11   H65   S    
O23   Zn6   S    
C16   H70   S    
C75   N6    A    
C143  C199  A    
C18   C50   A    
C98   C155  A    
C45   C205  S    
C142  C200  A    
C91   C108  A    
C1    C160  S    
C194  H51   S    
C16   C52   A    
C4    O38   A    
C8    H62   S    
C78   H14   S    
C174  C200  A    
C184  O7    A    
C63   O51   S    
C113  C147  A    
C72   O60   S    
C61   O49   S    
C131  C181  A    
C89   C121  A    
O16   Zn6   S    
C165  C191  A    
C166  C192  A    
C89   C107  A    
C94   C121  A    
C27   C43   A    
C34   C53   A    
C103  H23   S    
C19   H73   S    
C49   C209  S    
C112  O56   A    
C9    H63   S    
C10   H64   S    
C23   H77   S    
C79   C128  A    
C96   H45   S    
C112  C159  S    
C178  C204  A    
C170  C183  A    
C125  C183  A    
C70   O58   S    
C84   H10   S    
O19   Zn7   S    
C93   H19   S    
O17   Zn5   S    
C129  C179  A    
C138  H30   S    
C212  O44   A    
C127  C186  A    
C68   C69   A    
C172  C186  A    
C81   H16   S    
C38   C54   A    
C21   H75   S    
O6    Zn14  S    
C120  N6    S    
C22   H76   S    
C73   C113  A    
C201  H58   S    
C155  C173  S    
C144  H36   S    
C156  C162  S    
C168  C194  A    
C12   C20   A    
O43   Zn9   S    
C64   N4    A    
C57   C67   A    
C115  N1    S    
O12   Zn3   S    
C169  C196  A    
C107  H7    S    
C207  O15   A    
C31   C37   A    
C101  C146  A    
C198  H54   S    
C136  H28   S    
O34   Zn5   S    
O35   Zn12  S    
O24   Zn4   S    
C163  C189  A    
C130  C182  A    
C57   C126  A    
C144  C193  A    
C24   C138  A    
C106  C158  A    
C67   O55   S    
C211  O19   A    
C154  C184  S    
C13   C137  A    
C5    O39   A    
C88   C106  A    
C27   C41   A    
C72   N7    A    
C79   C144  A    
O68   Zn4   S    
C29   C39   A    
C33   C34   A    
C216  O31   A    
C104  C156  A    
O27   Zn7   S    
C71   O59   S    
C14   C54   A    
C100  H1    S    
C165  C168  A    
C89   H25   S    
C73   N8    A    
C178  C187  A    
C80   H15   S    
C146  C196  A    
C213  O46   A    
C83   H9    S    
O12   Zn7   S    
C148  C189  A    
C113  C131  A    
C42   H96   S    
C165  C182  A    
C70   N5    A    
C36   C52   A    
C151  O4    A    
C107  C159  A    
C212  O20   A    
C108  C160  A    
O15   Zn3   S    
C47   C207  S    
C31   C48   A    
C4    O27   A    
C150  H42   S    
C94   H20   S    
C106  H6    S    
O34   Zn16  S    
C4    C59   S    
C92   H18   S    
O23   Zn10  S    
C110  H2    S    
O1    Zn4   S    
O2    Zn3   S    
C51   C211  S    
C202  H59   S    
C163  C180  A    
C7    C53   S    
C166  C179  A    
C2    C62   A    
C12   H66   S    
C6    O36   A    
