data_mof_unit_48976.cif
_audit_creation_date              2012-12-10T18:57:10-0500
_audit_creation_method            fapswitch 2.2
_symmetry_space_group_name_H-M    P1
_symmetry_Int_Tables_number       1
_space_group_crystal_system       triclinic
_cell_length_a                    8.729672
_cell_length_b                    10.817873
_cell_length_c                    9.558014
_cell_angle_alpha                 89.750912
_cell_angle_beta                  97.873836
_cell_angle_gamma                 90.252778
_cell_volume                      894.100303181

loop_
_atom_site_label
_atom_site_type_symbol
_atom_type_description
_atom_site_fract_x
_atom_site_fract_y
_atom_site_fract_z
_atom_type_partial_charge
C1    C     C_R   0.502238 0.262449 0.500614 0.802289
C2    C     C_R   0.566442 0.936577 0.391293 -0.218088
C3    C     C_R   0.514774 0.871043 0.503227 -0.084789
C4    C     C_R   0.483846 0.935972 0.622037 0.114733
C5    C     C_3   0.345635 0.929385 0.698471 -0.502797
C6    C     C_3   0.347243 0.069652 0.699517 -0.396099
C7    C     C_R   0.617871 0.554718 0.087903 0.243084
C8    C     C_R   0.393135 0.434487 0.061576 -0.170930
C9    C     C_R   0.393204 0.434121 0.912835 0.649266
C10   C     C_R   0.618430 0.554075 0.940782 0.167308
C11   C     C_3   0.668251 0.685837 0.939384 -0.474752
C12   C     C_R   0.203891 0.500077 0.463823 0.890193
C13   C     C_3   0.664595 0.687361 0.097609 -0.494089
C14   C     C_R   0.502152 0.737686 0.500208 0.786261
C15   C     C_R   0.796103 0.500184 0.536172 0.865003
C16   C     C_2   0.037991 0.500331 0.443950 -0.381932
C17   C     C_2   0.961985 0.500339 0.556026 -0.343413
C18   C     C_R   0.484699 0.063271 0.622488 0.119608
C19   C     C_R   0.515556 0.129431 0.503878 -0.096735
C20   C     C_R   0.566181 0.065508 0.391197 -0.209799
Cu1   Cu    Cu3+1 0.499990 0.499980 0.640670 0.993515
Cu2   Cu    Cu3+1 0.500010 0.500020 0.359330 0.943119
H1    H     H_    0.978151 0.500455 0.336401 0.175068
H2    H     H_    0.786701 0.696022 0.910362 0.199330
H3    H     H_    0.580005 0.746875 0.880306 0.213477
H4    H     H_    0.780339 0.700953 0.160353 0.194217
H5    H     H_    0.571124 0.746992 0.127074 0.207478
H6    H     H_    0.021788 0.500356 0.663566 0.208207
H7    H     H_    0.600251 0.114591 0.301297 0.166614
H8    H     H_    0.602218 0.889013 0.302302 0.154657
H9    H     H_    0.242413 0.889413 0.632760 0.200499
H10   H     H_    0.372838 0.888417 0.805706 0.197256
H11   H     H_    0.244696 0.111471 0.634876 0.208975
H12   H     H_    0.376878 0.109100 0.807080 0.224572
H13   H     H_    0.305098 0.383180 0.106723 0.170415
N1    N     N_R   0.500980 0.500930 0.148050 -0.219211
N2    N     N_R   0.500990 0.500890 0.852140 -0.237948
O1    O     O_R   0.500000 0.319640 0.618810 -0.544246
O2    O     O_R   0.500020 0.319680 0.381230 -0.590643
O3    O     O_R   0.274830 0.499980 0.591380 -0.521050
O4    O     O_R   0.274850 0.500020 0.353800 -0.594193
O5    O     O_R   0.499980 0.680320 0.618770 -0.589189
O6    O     O_R   0.500000 0.680360 0.381190 -0.585374
O7    O     O_R   0.725150 0.499980 0.646200 -0.585130
O8    O     O_R   0.725170 0.500020 0.408620 -0.576221
F1    F     F_    0.283625 0.368031 0.830759 -0.678515

loop_
_geom_bond_atom_site_label_1
_geom_bond_atom_site_label_2
_ccdc_geom_bond_type
C12   O3    A    
C7    C10   A    
C12   O4    A    
Cu1   O7    S    
Cu2   N1    S    
C7    N1    A    
C1    O2    A    
C19   C20   A    
C6    H11   S    
C2    H8    S    
C14   O5    A    
C5    H10   S    
C4    C18   A    
C9    N2    A    
C2    C3    A    
C8    C9    A    
C9    F1    S    
Cu1   Cu2   S    
C4    C5    S    
C11   C13   S    
C3    C14   S    
C1    O1    A    
C10   N2    A    
Cu2   O2    S    
C15   O7    A    
C16   H1    S    
C20   H7    S    
C5    C6    S    
C6    C18   S    
C13   H4    S    
C1    C19   S    
Cu2   O4    S    
C10   C11   S    
C15   O8    A    
C2    C20   A    
Cu1   O5    S    
C12   C16   S    
C11   H2    S    
C7    C13   S    
Cu2   O8    S    
Cu1   N2    S    
C3    C4    A    
C18   C19   A    
C8    N1    A    
C15   C17   S    
C11   H3    S    
C16   C17   D    
C17   H6    S    
Cu2   O6    S    
C13   H5    S    
Cu1   O1    S    
C6    H12   S    
C14   O6    A    
C5    H9    S    
C8    H13   S    
Cu1   O3    S    
