data_mof_unit_29078.cif
_audit_creation_date              2012-12-10T18:12:32-0500
_audit_creation_method            fapswitch 2.2
_symmetry_space_group_name_H-M    P1
_symmetry_Int_Tables_number       1
_space_group_crystal_system       triclinic
_cell_length_a                    12.619374
_cell_length_b                    13.044341
_cell_length_c                    15.708419
_cell_angle_alpha                 90.855091
_cell_angle_beta                  103.052632
_cell_angle_gamma                 81.845037
_cell_volume                      2493.11176587

loop_
_atom_site_label
_atom_site_type_symbol
_atom_type_description
_atom_site_fract_x
_atom_site_fract_y
_atom_site_fract_z
_atom_type_partial_charge
C1    C     C_R   0.438310 0.691772 0.492286 0.870747
C2    C     C_R   0.599847 0.199416 0.536126 -0.245734
C3    C     C_R   0.302411 0.838688 0.423926 -0.193689
C4    C     C_R   0.501831 0.498777 0.661980 0.972638
C5    C     C_R   0.273912 0.944184 0.406231 -0.144563
C6    C     C_R   0.345403 0.012101 0.445295 -0.086744
C7    C     C_R   0.444888 0.975044 0.505567 0.101966
C8    C     C_R   0.458241 0.873301 0.538605 -0.021545
C9    C     C_R   0.529233 0.036167 0.536144 -0.031015
C10   C     C_R   0.612814 0.003376 0.611658 -0.009164
C11   C     C_R   0.610410 0.910710 0.656288 -0.060592
C12   C     C_3   0.504835 0.497204 0.917910 0.029043
C13   C     C_R   0.530398 0.846602 0.621096 -0.213843
C14   C     C_R   0.534583 0.128395 0.492721 0.459450
C15   C     C_R   0.684565 0.167187 0.609864 -0.102129
C16   C     C_R   0.561751 0.308392 0.512576 0.928801
C17   C     C_R   0.396727 0.802345 0.487953 -0.113830
C18   C     C_R   0.096556 0.330341 0.390790 -0.107568
C19   C     C_R   0.798801 0.633390 0.599828 0.046286
C20   C     C_R   0.903214 0.661942 0.621111 -0.207766
C21   C     C_R   0.985365 0.609785 0.584260 -0.197269
C22   C     C_R   0.963153 0.528271 0.525370 0.031431
C23   C     C_3   0.508609 0.396884 0.028345 -0.359182
C24   C     C_R   0.855537 0.501525 0.506749 0.235363
C25   C     C_R   0.043023 0.472709 0.484509 -0.014638
C26   C     C_R   0.015750 0.388016 0.429064 0.099623
C27   C     C_R   0.907875 0.365544 0.411143 -0.226663
C28   C     C_R   0.498758 0.499458 0.338076 0.890929
C29   C     C_R   0.829818 0.421212 0.449363 -0.193427
C30   C     C_R   0.149361 0.498798 0.495975 -0.038639
C31   C     C_R   0.199238 0.362956 0.404243 -0.036878
C32   C     C_3   0.406584 0.552574 0.010479 -0.218449
C33   C     C_3   0.495423 0.595382 0.972619 -0.248105
C34   C     C_3   0.499115 0.496195 0.082725 0.050928
C35   C     C_1   0.505217 0.497575 0.751595 -0.031519
C36   C     C_1   0.496506 0.497837 0.248618 -0.179258
C37   C     C_3   0.418095 0.454628 0.955474 0.538417
C38   C     C_3   0.538533 0.116408 0.349523 -0.311547
C39   C     C_2   0.511627 0.761040 0.676037 0.941323
C40   C     C_2   0.080477 0.234371 0.340201 0.858722
C41   C     C_3   0.760478 0.345000 0.052441 -0.254347
C42   C     C_3   0.263837 0.378486 0.952419 -0.237706
C43   C     C_2   0.761567 0.235816 0.656214 0.960491
C44   C     C_2   0.686329 0.884461 0.742484 0.946822
C45   C     C_3   0.595064 0.442608 0.990996 0.547398
C46   C     C_3   0.587852 0.540278 0.046903 -0.221709
C47   C     C_1   0.506250 0.497086 0.827149 0.089632
C48   C     C_1   0.496727 0.496796 0.173249 -0.014713
C49   C     C_R   0.693168 0.067690 0.644221 -0.206849
H1    H     H_    0.490351 0.675512 0.947632 0.201141
H2    H     H_    0.064987 0.634688 0.603727 0.156428
H3    H     H_    0.920570 0.724356 0.665960 0.208086
H4    H     H_    0.749286 0.399796 0.432190 0.205347
H5    H     H_    0.657730 0.575029 0.086895 0.155490
H6    H     H_    0.513746 0.316570 0.052921 0.152160
H7    H     H_    0.758305 0.044880 0.701174 0.189229
H8    H     H_    0.613004 0.155705 0.358728 0.157972
H9    H     H_    0.489493 0.134709 0.282131 0.200721
H10   H     H_    0.562180 0.030814 0.355337 0.175170
H11   H     H_    0.345951 0.799976 0.647638 0.314330
H12   H     H_    0.252222 0.785454 0.386477 0.161867
H13   H     H_    0.116020 0.144996 0.241564 0.340986
H14   H     H_    0.720469 0.288970 0.082614 0.155115
H15   H     H_    0.785174 0.406671 0.099353 0.151484
H16   H     H_    0.836570 0.302031 0.037943 0.202487
H17   H     H_    0.226563 0.444340 0.986788 0.154260
H18   H     H_    0.310087 0.316685 0.000011 0.158555
H19   H     H_    0.195612 0.345186 0.908784 0.205226
H20   H     H_    0.782731 0.365839 0.725146 0.354329
H21   H     H_    0.704705 0.871696 0.872910 0.350239
H22   H     H_    0.319410 0.093415 0.429863 0.198198
H23   H     H_    0.199133 0.972907 0.359064 0.172688
H24   H     H_    0.263475 0.320879 0.376608 0.194914
H25   H     H_    0.881093 0.306587 0.365536 0.185669
H26   H     H_    0.177368 0.561377 0.536250 0.140686
H27   H     H_    0.734564 0.674133 0.627736 0.182350
H28   H     H_    0.328915 0.597198 0.020749 0.157010
N1    N     N_R   0.222180 0.444680 0.455580 -0.119353
N2    N     N_R   0.776980 0.554790 0.543960 -0.139608
O1    O     O_R   0.366730 0.627160 0.478790 -0.613557
O2    O     O_2   0.589624 0.705916 0.721220 -0.594290
O3    O     O_R   0.405483 0.744496 0.679476 -0.796976
O4    O     O_2   0.028777 0.171031 0.362456 -0.634177
O5    O     O_R   0.130428 0.213645 0.269672 -0.815502
O6    O     O_3   0.692120 0.387278 0.973638 -0.587494
O7    O     O_3   0.331026 0.411656 0.900980 -0.594748
O8    O     O_2   0.860434 0.210925 0.663917 -0.604049
O9    O     O_R   0.721881 0.326015 0.694718 -0.787838
O10   O     O_2   0.783928 0.855664 0.746822 -0.650387
O11   O     O_R   0.645418 0.892141 0.818271 -0.773094
O12   O     O_R   0.544830 0.662520 0.507160 -0.618952
O13   O     O_R   0.410960 0.482330 0.609040 -0.619600
O14   O     O_R   0.589060 0.517690 0.637410 -0.566066
O15   O     O_R   0.455170 0.337480 0.492840 -0.580031
O16   O     O_R   0.633270 0.372840 0.521210 -0.633084
O17   O     O_R   0.410940 0.482310 0.362590 -0.603853
O18   O     O_R   0.589040 0.517670 0.390960 -0.635864
O19   O     O_3   0.473557 0.152708 0.408803 -0.630926
Zn1   Zn    Zn3+2 0.381080 0.476390 0.481050 0.977467
Zn2   Zn    Zn3+2 0.618920 0.523610 0.518950 0.968915

loop_
_geom_bond_atom_site_label_1
_geom_bond_atom_site_label_2
_ccdc_geom_bond_type
C28   O18   A    
C8    C13   A    
C23   C45   S    
C27   C29   A    
C40   O5    S    
C19   C20   A    
C18   C26   A    
C38   O19   S    
C35   C47   T    
C7    C8    A    
C45   C46   S    
C26   C27   A    
C43   O9    S    
C19   H27   S    
C5    H23   S    
C5    C6    A    
C31   H24   S    
O17   Zn1   S    
C12   C37   S    
C18   C40   S    
C24   C29   A    
C32   H28   S    
C38   H9    S    
H11   O3    S    
C22   C25   A    
C36   C48   T    
C34   C46   S    
O12   Zn2   S    
C27   H25   S    
C2    C16   S    
C9    C10   A    
C4    C35   S    
C1    O12   A    
C21   C22   A    
C42   H19   S    
C33   C46   S    
C40   O4    D    
H21   O11   S    
C12   C47   S    
C14   O19   S    
C3    H12   S    
C6    H22   S    
N2    Zn2   S    
C39   O2    D    
O16   Zn2   S    
C41   H16   S    
C25   C26   A    
C23   C37   S    
C4    O14   A    
C32   C34   S    
C45   O6    S    
C9    C14   A    
C38   H8    S    
C37   O7    S    
C24   N2    A    
C23   C34   S    
C46   H5    S    
C11   C44   S    
C32   C37   S    
C19   N2    A    
C2    C15   A    
O14   Zn2   S    
H20   O9    S    
C42   O7    S    
O1    Zn1   S    
C42   H18   S    
C22   C24   A    
C34   C48   S    
C41   H14   S    
C21   H2    S    
O18   Zn2   S    
C44   O11   S    
C31   N1    A    
C25   C30   A    
C7    C9    A    
H13   O5    S    
C16   O16   A    
C1    C17   S    
C39   O3    S    
C12   C45   S    
C3    C5    A    
C23   H6    S    
C6    C7    A    
C49   H7    S    
C41   O6    S    
C16   O15   A    
C8    C17   A    
C28   O17   A    
C43   O8    D    
C32   C33   S    
C33   H1    S    
C15   C43   S    
C20   H3    S    
C30   H26   S    
C11   C13   A    
C29   H4    S    
O15   Zn1   S    
C3    C17   A    
C15   C49   A    
C2    C14   A    
C13   C39   S    
C10   C11   A    
C38   H10   S    
C30   N1    A    
C20   C21   A    
C28   C36   S    
N1    Zn1   S    
C42   H17   S    
C1    O1    A    
C18   C31   A    
C41   H15   S    
C12   C33   S    
C10   C49   A    
C44   O10   D    
O13   Zn1   S    
C4    O13   A    
