data_mof_unit_33441.cif
_audit_creation_date              2012-12-11T15:44:59-0500
_audit_creation_method            fapswitch 2.2
_symmetry_space_group_name_H-M    P1
_symmetry_Int_Tables_number       1
_space_group_crystal_system       triclinic
_cell_length_a                    6.928706
_cell_length_b                    16.829197
_cell_length_c                    17.053773
_cell_angle_alpha                 100.387326
_cell_angle_beta                  88.181548
_cell_angle_gamma                 91.607357
_cell_volume                      1954.46878892

loop_
_atom_site_label
_atom_site_type_symbol
_atom_type_description
_atom_site_fract_x
_atom_site_fract_y
_atom_site_fract_z
_atom_type_partial_charge
O1    O     O_R   0.494370 0.415690 0.413450 -0.545577
O2    O     O_R   0.819420 0.429360 0.578420 -0.544152
O3    O     O_R   0.994280 0.584310 0.586550 -0.518245
C1    C     C_R   0.646684 0.414697 0.605796 0.767279
O4    O     O_R   0.823790 0.406230 0.413570 -0.547709
O5    O     O_R   0.998670 0.561000 0.420530 -0.544323
C2    C     C_R   0.655109 0.383060 0.384920 0.667975
O6    O     O_R   0.489970 0.439000 0.579470 -0.508850
O7    O     O_3   0.662300 0.550810 0.502470 -0.373847
V1    V     V_3+5 0.935380 0.490570 0.499540 1.439014
O8    O     O_R   0.328650 0.570640 0.421580 -0.548407
C3    C     C_R   0.164106 0.587206 0.395246 0.671032
O9    O     O_R   0.324290 0.593770 0.586430 -0.533680
C4    C     C_R   0.154536 0.617949 0.614174 0.739481
V2    V     V_3+5 0.435930 0.509430 0.500460 1.455609
O10   O     O_3   0.159140 0.449190 0.497530 -0.367778
C5    C     C_R   0.305298 0.712456 0.727806 -0.204599
H1    H     H_    0.440601 0.681655 0.714178 0.191634
C6    C     C_R   0.295456 0.776030 0.793106 -0.161885
H2    H     H_    0.424107 0.792977 0.827213 0.138988
C7    C     C_R   0.121169 0.815982 0.815101 -0.107706
C8    C     C_R   0.958208 0.792153 0.768953 -0.219909
H3    H     H_    0.822508 0.822392 0.784078 0.127178
C9    C     C_R   0.968569 0.730717 0.701427 0.431742
C10   C     C_R   0.142389 0.687995 0.681562 -0.159120
C11   C     C_R   0.172318 0.641262 0.334599 -0.059398
C12   C     C_R   0.091433 0.864504 0.170839 -0.167881
C13   C     C_R   0.905654 0.809364 0.274567 -0.191603
C14   C     C_R   0.928152 0.866686 0.224390 0.354553
C15   C     C_R   0.235895 0.808206 0.174898 -0.250049
C16   C     C_R   0.215291 0.752689 0.227860 0.150567
C17   C     C_R   0.047120 0.752201 0.277018 0.076195
C18   C     C_R   0.025230 0.695961 0.329359 -0.219129
C19   C     C_R   0.339172 0.642736 0.285274 -0.168887
C20   C     C_R   0.359778 0.697153 0.232241 -0.161523
H4    H     H_    0.897490 0.696754 0.367888 0.112187
H5    H     H_    0.455430 0.601674 0.287968 0.125205
H6    H     H_    0.778308 0.811074 0.313431 0.142298
H7    H     H_    0.490240 0.696435 0.195366 0.122233
H8    H     H_    0.361902 0.806068 0.135284 0.150190
C21   C     C_R   0.621649 0.364995 0.669298 -0.098730
C22   C     C_R   0.642342 0.144340 0.838664 -0.154583
C23   C     C_R   0.828352 0.182547 0.726704 -0.156428
C24   C     C_R   0.794934 0.131249 0.781736 -0.194974
C25   C     C_R   0.522352 0.211916 0.840289 0.301457
C26   C     C_R   0.554005 0.262552 0.782929 0.083648
C27   C     C_R   0.709144 0.248265 0.726595 0.089741
C28   C     C_R   0.742924 0.299794 0.670830 -0.290927
C29   C     C_R   0.467833 0.380044 0.726129 0.332305
C30   C     C_R   0.435803 0.328867 0.782298 -0.233641
H9    H     H_    0.860528 0.287875 0.627148 0.140464
H10   H     H_    0.947729 0.170585 0.683945 0.128411
H11   H     H_    0.317366 0.341200 0.825409 0.167189
H12   H     H_    0.889294 0.080594 0.779623 0.139215
C31   C     C_R   0.811443 0.275388 0.282492 -0.153700
H13   H     H_    0.951881 0.293952 0.306359 0.115572
C32   C     C_R   0.800057 0.211575 0.217411 -0.147029
H14   H     H_    0.932377 0.182841 0.193331 0.116276
C33   C     C_R   0.620806 0.185193 0.184052 -0.043662
C34   C     C_R   0.453245 0.224373 0.217731 -0.152509
H15   H     H_    0.312813 0.205812 0.193854 0.115911
C35   C     C_R   0.464624 0.288169 0.282828 -0.148720
H16   H     H_    0.332293 0.316879 0.306925 0.117763
C36   C     C_R   0.643891 0.314599 0.316151 -0.042768
O11   O     O_R   0.774880 0.061150 0.920630 -0.536080
O12   O     O_R   0.440980 0.093710 0.086500 -0.546845
O13   O     O_R   0.266190 0.938890 0.079390 -0.530272
C37   C     C_R   0.609629 0.116828 0.115211 0.685025
O14   O     O_R   0.445420 0.070740 0.921670 -0.533808
O15   O     O_R   0.270660 0.915760 0.913380 -0.542028
C38   C     C_R   0.618323 0.088534 0.896940 0.693591
O16   O     O_R   0.770400 0.084270 0.086640 -0.543730
O17   O     O_3   0.602590 0.949210 0.997500 -0.365245
V3    V     V_3+5 0.329470 0.009420 0.000470 1.432648
O18   O     O_R   0.940650 0.906250 0.913470 -0.544987
C39   C     C_R   0.110129 0.883366 0.884661 0.707635
O19   O     O_R   0.936210 0.929220 0.078300 -0.532853
C40   C     C_R   0.100275 0.914944 0.106645 0.699634
V4    V     V_3+5 0.828930 0.990510 0.999490 1.433786
O20   O     O_3   0.105680 0.050790 0.002500 -0.367080
O21   O     O_3   0.352157 0.445765 0.726538 -0.641163
H17   H     H_    0.251445 0.447548 0.769415 0.283286
O22   O     O_3   0.378324 0.231623 0.897918 -0.648605
H18   H     H_    0.417422 0.215018 0.947772 0.287010
O23   O     O_3   0.804357 0.711221 0.657259 -0.575825
C41   C     C_3   0.812799 0.749987 0.589987 0.101750
H19   H     H_    0.747305 0.707916 0.539627 0.156325
H20   H     H_    0.962867 0.763799 0.569520 0.073464
C42   C     C_3   0.694960 0.827098 0.606523 -0.344008
H21   H     H_    0.546366 0.812671 0.627084 0.207215
H22   H     H_    0.763194 0.871670 0.654291 0.185748
C43   C     C_3   0.683154 0.864673 0.531806 -0.822648
H23   H     H_    0.830158 0.880340 0.510548 0.234190
H24   H     H_    0.598129 0.920663 0.545710 0.237284
H25   H     H_    0.610914 0.821940 0.483662 0.226387
O24   O     O_3   0.787957 0.924268 0.230448 -0.640713
H26   H     H_    0.847701 0.974280 0.216660 0.281530

loop_
_geom_bond_atom_site_label_1
_geom_bond_atom_site_label_2
_ccdc_geom_bond_type
O12   C37   A    
C31   H13   S    
O11   V4    S    
C12   C14   A    
C19   H5    S    
O17   V3    S    
O2    C1    A    
C6    H2    S    
C1    O6    A    
C12   C40   S    
O21   H17   S    
O19   C40   A    
C7    C39   S    
O22   H18   S    
C13   C14   A    
C6    C7    A    
O16   V4    S    
O5    C3    A    
C15   C16   A    
C41   H20   S    
C23   H10   S    
C32   C33   A    
C1    C21   S    
V2    O10   S    
O12   V3    S    
C18   H4    S    
C34   C35   A    
C19   C20   A    
C29   O21   S    
O14   C38   A    
C43   H23   S    
C35   C36   A    
O8    V2    S    
C11   C19   A    
C28   H9    S    
C27   C28   A    
O15   V3    S    
O1    V2    S    
C42   H22   S    
C9    O23   S    
C33   C34   A    
V3    O20   S    
C7    C8    A    
O24   H26   S    
C12   C15   A    
C25   O22   S    
O13   C40   A    
C22   C24   A    
C21   C29   A    
O19   V4    S    
C30   H11   S    
C13   C17   A    
C9    C10   A    
O4    C2    A    
C41   H19   S    
O23   C41   S    
C43   H25   S    
C3    C11   S    
C34   H15   S    
C22   C25   A    
C20   H7    S    
O18   C39   A    
C35   H16   S    
C24   H12   S    
C33   C37   S    
C11   C18   A    
C16   C17   A    
C13   H6    S    
C37   O16   A    
C31   C36   A    
C43   H24   S    
C5    H1    S    
O17   V4    S    
C15   H8    S    
O14   V3    S    
O13   V3    S    
C42   C43   S    
O3    C4    A    
O6    V2    S    
C31   C32   A    
C23   C24   A    
O15   C39   A    
C16   C20   A    
O2    V1    S    
O7    V1    S    
C26   C27   A    
O1    C2    A    
C41   C42   S    
O5    V1    S    
C14   O24   S    
O8    C3    A    
C26   C30   A    
C5    C10   A    
C17   C18   A    
O9    V2    S    
O7    V2    S    
O4    V1    S    
O3    V1    S    
O11   C38   A    
C32   H14   S    
O18   V4    S    
C22   C38   S    
C5    C6    A    
C21   C28   A    
C8    C9    A    
C4    C10   S    
C2    C36   S    
V4    O20   S    
C25   C26   A    
C29   C30   A    
C8    H3    S    
V1    O10   S    
C42   H21   S    
O9    C4    A    
C23   C27   A    
