data_mof_unit_32432.cif
_audit_creation_date              2012-10-26T18:29:02-0400
_audit_creation_method            fapswitch 2.2
_symmetry_space_group_name_H-M    P1
_symmetry_Int_Tables_number       1
_space_group_crystal_system       triclinic
_cell_length_a                    11.752573
_cell_length_b                    12.95085
_cell_length_c                    15.960556
_cell_angle_alpha                 94.642739
_cell_angle_beta                  74.234442
_cell_angle_gamma                 98.763456
_cell_volume                      2308.61175445

loop_
_atom_site_label
_atom_site_type_symbol
_atom_type_description
_atom_site_fract_x
_atom_site_fract_y
_atom_site_fract_z
_atom_type_partial_charge
C1    C     C_R   0.521098 0.700426 0.499954 0.509777
C2    C     C_R   0.388329 0.018999 0.442042 -0.155687
C3    C     C_R   0.611440 0.873130 0.545973 -0.146120
C4    C     C_R   0.388776 0.126410 0.454382 -0.143097
C5    C     C_R   0.465147 0.863055 0.462589 -0.149134
C6    C     C_R   0.540834 0.137384 0.532780 -0.147161
C7    C     C_R   0.464969 0.970455 0.474432 0.047852
C8    C     C_R   0.540445 0.029899 0.521433 0.048219
C9    C     C_R   0.931861 0.586507 0.591297 -0.203411
C10   C     C_R   0.069875 0.418145 0.405434 -0.187262
C11   C     C_R   0.814798 0.582207 0.581302 0.385899
C12   C     C_R   0.479187 0.299536 0.499794 0.518880
C13   C     C_R   0.185420 0.418738 0.417833 0.386122
C14   C     C_R   0.862402 0.459289 0.460965 0.367955
C15   C     C_R   0.138965 0.544208 0.535821 0.375630
C16   C     C_R   0.427301 0.489402 0.667727 0.566929
C17   C     C_R   0.573106 0.511148 0.332680 0.553240
C18   C     C_R   0.983108 0.469285 0.465776 -0.090051
C19   C     C_R   0.017784 0.533346 0.531803 -0.095919
C20   C     C_R   0.385960 0.472786 0.763337 -0.041278
C21   C     C_R   0.617652 0.526175 0.237565 -0.064019
C22   C     C_R   0.229948 0.441376 0.898163 0.227408
C23   C     C_R   0.364212 0.452284 0.082880 -0.133411
C24   C     C_R   0.779089 0.542649 0.104063 0.255546
C25   C     C_R   0.264048 0.461791 0.808659 0.197459
C26   C     C_R   0.740981 0.542740 0.195388 0.226872
C27   C     C_R   0.471323 0.462949 0.809169 0.178115
C28   C     C_R   0.534787 0.526498 0.188260 0.175733
C29   C     C_R   0.440038 0.469052 0.901648 -0.030335
C30   C     C_R   0.569964 0.510763 0.096533 -0.026445
C31   C     C_R   0.316780 0.451964 0.945141 -0.036548
C32   C     C_R   0.693896 0.523781 0.054775 -0.043080
C33   C     C_R   0.525882 0.488054 0.952406 0.043426
C34   C     C_R   0.649588 0.512634 0.914788 -0.140859
C35   C     C_R   0.486050 0.485062 0.044970 0.046071
C36   C     C_3   0.234223 0.293612 0.301067 -0.020219
C37   C     C_3   0.339427 0.242353 0.245157 -0.370048
C38   C     C_3   0.760375 0.697581 0.704297 -0.016499
C39   C     C_3   0.652390 0.743744 0.761541 -0.365916
C40   C     C_3   0.421498 0.657635 0.236326 0.007019
C41   C     C_3   0.296269 0.681369 0.282101 -0.367230
C42   C     C_3   0.581587 0.331307 0.754292 0.003215
C43   C     C_3   0.705122 0.307275 0.704027 -0.370420
C44   C     C_3   0.837634 0.665721 0.271563 0.024406
C45   C     C_R   0.281153 0.440117 0.034905 -0.145132
C46   C     C_3   0.933294 0.686576 0.320948 -0.343949
C47   C     C_3   0.106530 0.533451 0.788594 0.036731
C48   C     C_3   0.985960 0.494858 0.771589 -0.347095
C49   C     C_3   0.072501 0.312006 0.931185 0.000714
C50   C     C_3   0.942685 0.287769 0.982546 -0.354664
C51   C     C_3   0.945608 0.654574 0.037579 0.014910
C52   C     C_3   0.070061 0.683275 0.051098 -0.357434
C53   C     C_3   0.186310 0.718513 0.568973 -0.008520
C54   C     C_3   0.231572 0.794646 0.634248 -0.374401
C55   C     C_3   0.814107 0.290183 0.413359 0.007989
C56   C     C_R   0.731088 0.522501 0.964217 -0.160497
C57   C     C_3   0.758089 0.224789 0.347518 -0.348971
C58   C     C_R   0.468353 0.186168 0.496680 -0.003162
C59   C     C_R   0.533632 0.813777 0.501895 -0.007717
C60   C     C_R   0.614959 0.980983 0.555673 -0.154835
Cu1   Cu    Cu3+1 0.386820 0.492450 0.493500 1.071503
Cu2   Cu    Cu3+1 0.613180 0.507550 0.506500 1.054547
H1    H     H_    0.188057 0.419808 0.069008 0.170071
H2    H     H_    0.667649 0.835938 0.574464 0.149888
H3    H     H_    0.674226 0.025739 0.590929 0.094792
H4    H     H_    0.328106 0.974050 0.407649 0.093428
H5    H     H_    0.202967 0.336691 0.256151 0.118611
H6    H     H_    0.162624 0.231576 0.332839 0.103870
H7    H     H_    0.371584 0.192596 0.284661 0.136959
H8    H     H_    0.311753 0.192804 0.192088 0.084342
H9    H     H_    0.414010 0.303050 0.215720 0.172640
H10   H     H_    0.832977 0.762749 0.680895 0.103057
H11   H     H_    0.787641 0.646027 0.745419 0.119340
H12   H     H_    0.824391 0.533352 0.930577 0.140532
H13   H     H_    0.577939 0.680388 0.785057 0.171985
H14   H     H_    0.675984 0.787123 0.818742 0.083353
H15   H     H_    0.622523 0.798335 0.724454 0.136670
H16   H     H_    0.448140 0.690603 0.170350 0.120726
H17   H     H_    0.483168 0.696384 0.275083 0.109623
H18   H     H_    0.267192 0.649365 0.348195 0.159743
H19   H     H_    0.294996 0.767233 0.288227 0.070320
H20   H     H_    0.233249 0.645203 0.243911 0.148932
H21   H     H_    0.516435 0.294299 0.717740 0.123118
H22   H     H_    0.558856 0.296737 0.819471 0.123672
H23   H     H_    0.957563 0.631789 0.644424 0.113684
H24   H     H_    0.705438 0.221343 0.696003 0.075222
H25   H     H_    0.730521 0.341000 0.638674 0.161801
H26   H     H_    0.771629 0.341440 0.739953 0.142384
H27   H     H_    0.752675 0.686881 0.315752 0.119136
H28   H     H_    0.864731 0.718471 0.216161 0.095758
H29   H     H_    0.952147 0.771830 0.335346 0.071319
H30   H     H_    0.902300 0.646574 0.383387 0.169788
H31   H     H_    0.016691 0.658018 0.281567 0.147610
H32   H     H_    0.149514 0.603087 0.750340 0.173867
H33   H     H_    0.091015 0.559636 0.858321 0.149114
H34   H     H_    0.046456 0.378761 0.349260 0.126146
H35   H     H_    0.938972 0.430509 0.815345 0.145761
H36   H     H_    0.931414 0.559821 0.783703 0.055762
H37   H     H_    0.997579 0.464120 0.703384 0.180746
H38   H     H_    0.126542 0.264638 0.956571 0.106827
H39   H     H_    0.079062 0.288987 0.861461 0.161508
H40   H     H_    0.886142 0.333172 0.958251 0.171204
H41   H     H_    0.911358 0.203066 0.975067 0.070961
H42   H     H_    0.933519 0.308750 0.052727 0.181083
H43   H     H_    0.889014 0.714551 0.072551 0.084645
H44   H     H_    0.953713 0.659388 0.967121 0.104866
H45   H     H_    0.330050 0.432875 0.149810 0.180243
H46   H     H_    0.130428 0.628847 0.011808 0.180480
H47   H     H_    0.106508 0.764202 0.030467 0.067884
H48   H     H_    0.066778 0.678553 0.120805 0.161197
H49   H     H_    0.099715 0.739890 0.566299 0.095761
H50   H     H_    0.246448 0.729692 0.502941 0.140847
H51   H     H_    0.317391 0.775507 0.641113 0.171552
H52   H     H_    0.244870 0.875767 0.612137 0.111854
H53   H     H_    0.165275 0.789818 0.698853 0.114753
H54   H     H_    0.758640 0.274005 0.480228 0.131729
H55   H     H_    0.900645 0.262883 0.408123 0.086121
H56   H     H_    0.688194 0.526425 0.847197 0.180370
H57   H     H_    0.819077 0.233611 0.281054 0.141840
H58   H     H_    0.741979 0.141040 0.363500 0.094663
H59   H     H_    0.672074 0.250653 0.348167 0.174272
H60   H     H_    0.597499 0.182951 0.569484 0.093933
H61   H     H_    0.411057 0.817848 0.423832 0.090780
H62   H     H_    0.328558 0.163018 0.429510 0.146947
N1    N     N_R   0.216750 0.481110 0.483710 -0.204718
N2    N     N_R   0.783250 0.518890 0.516290 -0.217987
O1    O     O_R   0.419950 0.645670 0.495380 -0.506782
O2    O     O_3   0.728583 0.640475 0.633012 -0.497079
O3    O     O_3   0.421037 0.548284 0.230221 -0.536284
O4    O     O_3   0.582963 0.440750 0.762435 -0.544119
O5    O     O_3   0.825897 0.559281 0.242397 -0.481250
O6    O     O_3   0.178513 0.452495 0.762775 -0.534354
O7    O     O_3   0.110213 0.419860 0.941467 -0.542483
O8    O     O_3   0.900530 0.551025 0.063973 -0.506475
O9    O     O_3   0.178647 0.614913 0.594817 -0.539470
O10   O     O_3   0.826231 0.397332 0.395438 -0.496062
O11   O     O_R   0.580050 0.354330 0.504620 -0.516084
O12   O     O_R   0.611110 0.658410 0.506370 -0.489480
O13   O     O_R   0.388890 0.341590 0.493630 -0.476926
O14   O     O_R   0.350820 0.490050 0.621260 -0.436105
O15   O     O_R   0.649180 0.509950 0.378740 -0.442644
O16   O     O_R   0.541970 0.502800 0.632250 -0.415089
O17   O     O_R   0.458030 0.497200 0.367750 -0.415062
O18   O     O_3   0.272379 0.362355 0.364433 -0.493273

loop_
_geom_bond_atom_site_label_1
_geom_bond_atom_site_label_2
_ccdc_geom_bond_type
C34   H56   S    
C40   O3    S    
C34   C56   A    
C23   C45   A    
C37   H7    S    
C27   C29   A    
C14   C18   A    
C16   O16   A    
C2    C7    A    
C53   O9    S    
C21   C26   A    
C41   H18   S    
C36   H5    S    
C7    C8    A    
C3    H2    S    
C44   O5    S    
C50   H42   S    
C48   H35   S    
C30   C35   A    
C43   H26   S    
C39   H15   S    
C36   C37   S    
C24   C26   A    
C18   C19   A    
C1    C59   S    
C49   H39   S    
C38   C39   S    
C51   O8    S    
C15   O9    S    
C55   H54   S    
C55   O10   S    
C54   H51   S    
C29   C33   A    
C4    H62   S    
C17   O15   A    
C28   O3    S    
C13   O18   S    
C6    C58   A    
C9    H23   S    
C15   C19   A    
Cu1   O17   S    
C44   C46   S    
C22   C25   A    
C39   H13   S    
C16   C20   S    
C57   H57   S    
C12   C58   S    
C3    C60   A    
C53   H49   S    
C26   O5    S    
C23   H45   S    
C50   H41   S    
C37   H8    S    
C16   O14   A    
Cu2   O16   S    
C9    C19   A    
C38   H10   S    
C40   H17   S    
C56   H12   S    
C22   C31   A    
C5    C59   A    
C22   O7    S    
C51   C52   S    
C11   N2    A    
C42   H22   S    
C42   O4    S    
Cu2   N2    S    
Cu1   O13   S    
C6    C8    A    
C46   H29   S    
C10   H34   S    
C53   C54   S    
C45   H1    S    
C17   C21   S    
C2    C4    A    
C24   C32   A    
C47   C48   S    
C52   H48   S    
C51   H43   S    
C41   H19   S    
C54   H53   S    
C33   C34   A    
C12   O13   A    
Cu1   O1    S    
C39   H14   S    
Cu2   O12   S    
C9    C11   A    
C57   H58   S    
C53   H50   S    
C40   C41   S    
C21   C28   A    
C60   H3    S    
C50   H40   S    
C23   C35   A    
C37   H9    S    
C15   N1    A    
C40   H16   S    
C42   C43   S    
C6    H60   S    
Cu2   O15   S    
C31   C45   A    
C44   H28   S    
C5    C7    A    
C55   H55   S    
C24   O8    S    
C48   H37   S    
C49   O7    S    
C43   H24   S    
C42   H21   S    
C1    O1    A    
C2    H4    S    
C10   C13   A    
C38   O2    S    
C36   H6    S    
Cu1   O14   S    
C20   C27   A    
C48   H36   S    
C5    H61   S    
C14   N2    A    
C47   O6    S    
C17   O17   A    
C43   H25   S    
C55   C57   S    
C11   O2    S    
C36   O18   S    
C13   N1    A    
C29   C31   A    
C8    C60   A    
C49   H38   S    
C30   C32   A    
C46   H31   S    
C14   O10   S    
C52   H47   S    
C10   C18   A    
C51   H44   S    
C41   H20   S    
C54   H52   S    
C28   C30   A    
C33   C35   A    
C47   H32   S    
Cu2   O11   S    
Cu1   Cu2   S    
C44   H27   S    
C57   H59   S    
C46   H30   S    
C52   H46   S    
C49   C50   S    
C20   C25   A    
C4    C58   A    
C27   O4    S    
C47   H33   S    
C12   O11   A    
Cu1   N1    S    
C25   O6    S    
C32   C56   A    
C1    O12   A    
C38   H11   S    
C3    C59   A    
