data_mof_unit_65131.cif
_audit_creation_date              2012-12-10T19:27:00-0500
_audit_creation_method            fapswitch 2.2
_symmetry_space_group_name_H-M    P1
_symmetry_Int_Tables_number       1
_space_group_crystal_system       triclinic
_cell_length_a                    17.681947
_cell_length_b                    16.478411
_cell_length_c                    14.358166
_cell_angle_alpha                 90.007672
_cell_angle_beta                  90.775569
_cell_angle_gamma                 90.07004
_cell_volume                      4183.15798475

loop_
_atom_site_label
_atom_site_type_symbol
_atom_type_description
_atom_site_fract_x
_atom_site_fract_y
_atom_site_fract_z
_atom_type_partial_charge
C1    C     C_R   0.355820 0.499921 0.512684 0.803453
C2    C     C_R   0.644403 0.500071 0.499190 0.825928
C3    C     C_1   0.966675 0.503231 0.484188 -0.053937
C4    C     C_1   0.034513 0.502935 0.486930 -0.053401
C5    C     C_R   0.548187 0.829438 0.560098 0.000443
C6    C     C_R   0.451048 0.170859 0.439921 -0.000724
C7    C     C_R   0.450774 0.829001 0.440295 -0.001171
C8    C     C_R   0.547893 0.170687 0.560409 -0.000779
C9    C     C_R   0.547591 0.743274 0.558890 0.321935
C10   C     C_R   0.452345 0.257026 0.440862 0.303127
C11   C     C_R   0.452061 0.742843 0.441223 0.304548
C12   C     C_R   0.547353 0.256848 0.559145 0.319905
C13   C     C_R   0.499321 0.873294 0.500248 0.002343
C14   C     C_R   0.499285 0.126697 0.500245 0.002767
C15   C     C_1   0.499132 0.962859 0.500233 -0.032808
C16   C     C_1   0.499115 0.037131 0.500228 -0.032952
C17   C     C_R   0.499728 0.499992 0.330735 0.838949
C18   C     C_R   0.500371 0.500003 0.669280 0.808743
C19   C     C_1   0.499846 0.499961 0.228535 -0.204839
C20   C     C_1   0.500630 0.500006 0.771477 -0.200239
C21   C     C_1   0.500104 0.499955 0.143218 -0.015939
C22   C     C_1   0.500733 0.499996 0.856797 -0.014669
C23   C     C_1   0.500452 0.499968 0.042676 0.001379
C24   C     C_1   0.500657 0.499981 0.957347 0.000223
C25   C     C_R   0.849636 0.519359 0.572120 0.135874
C26   C     C_R   0.152790 0.427503 0.509182 0.144706
C27   C     C_R   0.154083 0.575273 0.514225 0.145683
C28   C     C_R   0.842834 0.485799 0.406283 0.132204
C29   C     C_R   0.770205 0.518597 0.576767 0.108128
C30   C     C_R   0.230340 0.425901 0.533101 0.134756
C31   C     C_R   0.231662 0.574306 0.538035 0.133202
C32   C     C_R   0.763325 0.483797 0.410010 0.111585
C33   C     C_R   0.727145 0.500487 0.495472 -0.181852
C34   C     C_R   0.272438 0.499897 0.530346 -0.244562
C35   C     C_R   0.885477 0.503130 0.487170 -0.026877
C36   C     C_R   0.115380 0.502052 0.498220 -0.034050
Cu1   Cu    Cu3+1 0.500000 0.580420 0.500000 0.952664
Cu2   Cu    Cu3+1 0.500000 0.419580 0.500000 0.954152
N1    N     N_R   0.500000 0.701220 0.500000 -0.193984
N2    N     N_R   0.500000 0.298780 0.500000 -0.194677
O1    O     O_R   0.391260 0.567930 0.500000 -0.563640
O2    O     O_R   0.608740 0.432070 0.500000 -0.558106
O3    O     O_R   0.608740 0.567930 0.500000 -0.560589
O4    O     O_R   0.391260 0.432070 0.500000 -0.564331
O5    O     O_R   0.500000 0.567920 0.376050 -0.537752
O6    O     O_R   0.500000 0.432080 0.623950 -0.544973
O7    O     O_R   0.500000 0.567920 0.623950 -0.551500
O8    O     O_R   0.500000 0.432080 0.376050 -0.541689
N3    N     N_3   0.893602 0.536921 0.654606 -0.595583
H1    H     H_    0.927203 0.587874 0.641823 0.218443
H2    H     H_    0.929074 0.487557 0.668608 0.224466
N4    N     N_3   0.112354 0.352495 0.496532 -0.595233
H3    H     H_    0.067621 0.350650 0.543386 0.221412
H4    H     H_    0.089689 0.351430 0.428902 0.220138
N5    N     N_3   0.114986 0.651456 0.506733 -0.594801
H5    H     H_    0.070258 0.651612 0.553645 0.218639
H6    H     H_    0.092382 0.656365 0.439305 0.221759
N6    N     N_3   0.879827 0.470808 0.319507 -0.597958
H7    H     H_    0.912486 0.521629 0.303039 0.226351
H8    H     H_    0.915886 0.421036 0.328022 0.220351
C37   C     C_3   0.732676 0.535596 0.669559 -0.366562
C38   C     C_3   0.731664 0.459805 0.730476 -0.811012
H9    H     H_    0.699881 0.410542 0.694688 0.254456
H10   H     H_    0.790112 0.438790 0.746005 0.265488
H11   H     H_    0.703375 0.473637 0.797198 0.239248
H12   H     H_    0.762891 0.585257 0.706964 0.223176
H13   H     H_    0.673778 0.557220 0.660561 0.203127
C39   C     C_3   0.262940 0.346601 0.571628 -0.337768
C40   C     C_3   0.226592 0.323373 0.664094 -0.833300
H14   H     H_    0.232815 0.373870 0.714934 0.247233
H15   H     H_    0.165807 0.308572 0.655200 0.268298
H16   H     H_    0.255306 0.268926 0.693294 0.235604
H17   H     H_    0.254492 0.296992 0.520135 0.211886
H18   H     H_    0.323741 0.349459 0.588619 0.222497
C41   C     C_3   0.266117 0.650944 0.581264 -0.335800
C42   C     C_3   0.229954 0.671329 0.674699 -0.833289
H19   H     H_    0.169838 0.688952 0.666213 0.268793
H20   H     H_    0.233942 0.618388 0.722435 0.247265
H21   H     H_    0.260440 0.723198 0.707437 0.235520
H22   H     H_    0.326744 0.645276 0.598565 0.220636
H23   H     H_    0.259471 0.702873 0.532521 0.211931
C43   C     C_3   0.717844 0.467017 0.321382 -0.373174
C44   C     C_3   0.699906 0.545851 0.270001 -0.816536
H24   H     H_    0.664713 0.586027 0.313838 0.252046
H25   H     H_    0.752978 0.578043 0.252045 0.263548
H26   H     H_    0.668241 0.532130 0.204588 0.240529
H27   H     H_    0.749291 0.426041 0.274271 0.229433
H28   H     H_    0.664460 0.434451 0.336292 0.191387
N7    N     N_3   0.598890 0.871026 0.622696 -0.611960
H29   H     H_    0.634191 0.908327 0.583474 0.228669
H30   H     H_    0.566920 0.907938 0.666377 0.228245
N8    N     N_3   0.400325 0.129586 0.377075 -0.612009
H31   H     H_    0.364537 0.092713 0.416155 0.228310
H32   H     H_    0.432213 0.092271 0.333750 0.229418
N9    N     N_3   0.399729 0.870134 0.377852 -0.611916
H33   H     H_    0.364154 0.906927 0.417221 0.228327
H34   H     H_    0.431388 0.907517 0.334268 0.229549
N10   N     N_3   0.598324 0.129239 0.623335 -0.612034
H35   H     H_    0.633783 0.092002 0.584353 0.228651
H36   H     H_    0.566157 0.092274 0.666820 0.228437
N11   N     N_3   0.597302 0.699390 0.619968 -0.531142
H37   H     H_    0.652917 0.716487 0.605674 0.212735
H38   H     H_    0.585562 0.716057 0.688525 0.213792
N12   N     N_3   0.403565 0.301233 0.378893 -0.511297
H39   H     H_    0.347731 0.284136 0.391720 0.208042
H40   H     H_    0.416299 0.284615 0.310605 0.217257
N13   N     N_3   0.402868 0.698504 0.379740 -0.510791
H41   H     H_    0.347108 0.715259 0.393397 0.209091
H42   H     H_    0.414978 0.715290 0.311318 0.217277
N14   N     N_3   0.597012 0.300861 0.620272 -0.522573
H43   H     H_    0.652582 0.283612 0.606176 0.212672
H44   H     H_    0.585073 0.284314 0.688819 0.213947

loop_
_geom_bond_atom_site_label_1
_geom_bond_atom_site_label_2
_ccdc_geom_bond_type
N5    H5    S    
C4    C36   S    
C12   N2    A    
N11   H37   S    
N9    H33   S    
C42   H21   S    
C18   O7    A    
C12   N14   S    
Cu2   O4    S    
Cu1   Cu2   S    
C19   C21   T    
C42   H20   S    
Cu2   O2    S    
C27   N5    S    
N6    H8    S    
C43   H27   S    
C29   C33   A    
C9    N1    A    
C18   C20   S    
C10   N2    A    
C40   H15   S    
C8    N10   S    
N14   H43   S    
C38   H10   S    
C37   H12   S    
C28   C35   A    
C39   C40   S    
N3    H2    S    
C23   C24   T    
C17   O8    A    
N7    H30   S    
C41   H22   S    
Cu2   O8    S    
C43   H28   S    
N11   H38   S    
N13   H42   S    
C40   H14   S    
C18   O6    A    
N12   H40   S    
N12   H39   S    
N4    H4    S    
C1    C34   S    
N14   H44   S    
C25   C29   A    
C29   C37   S    
C30   C34   A    
C27   C31   A    
C28   C32   A    
C42   H19   S    
C41   H23   S    
N6    H7    S    
Cu1   O3    S    
C40   H16   S    
C7    C11   A    
C41   C42   S    
C5    C9    A    
C38   H9    S    
C26   N4    S    
C6    C14   A    
C37   H13   S    
C1    O4    A    
C31   C41   S    
C44   H24   S    
C13   C15   S    
C3    C35   S    
C2    O3    A    
C8    C12   A    
N8    H32   S    
C31   C34   A    
C11   N1    A    
C25   C35   A    
C2    C33   S    
C1    O1    A    
C44   H25   S    
C20   C22   T    
C43   C44   S    
N10   H36   S    
N5    H6    S    
C11   N13   S    
N3    H1    S    
C14   C16   S    
Cu1   O7    S    
N13   H41   S    
Cu1   O5    S    
C3    C4    T    
C7    N9    S    
N4    H3    S    
C26   C36   A    
C8    C14   A    
C38   H11   S    
C5    C13   A    
C17   O5    A    
C6    C10   A    
N9    H34   S    
C26   C30   A    
C28   N6    S    
C27   C36   A    
C32   C43   S    
C32   C33   A    
C21   C23   S    
C39   H17   S    
Cu1   N1    S    
C30   C39   S    
Cu2   N2    S    
C2    O2    A    
C6    N8    S    
C10   N12   S    
N8    H31   S    
C17   C19   S    
C22   C24   S    
Cu1   O1    S    
C37   C38   S    
C25   N3    S    
Cu2   O6    S    
C7    C13   A    
C44   H26   S    
C9    N11   S    
N10   H35   S    
N7    H29   S    
C39   H18   S    
C5    N7    S    
C15   C16   T    
