data_mof_unit_14602.cif
_audit_creation_date              2012-12-10T17:11:12-0500
_audit_creation_method            fapswitch 2.2
_symmetry_space_group_name_H-M    P1
_symmetry_Int_Tables_number       1
_space_group_crystal_system       triclinic
_cell_length_a                    9.976061
_cell_length_b                    10.743236
_cell_length_c                    16.55661
_cell_angle_alpha                 89.971706
_cell_angle_beta                  85.852759
_cell_angle_gamma                 89.975324
_cell_volume                      1769.81083499

loop_
_atom_site_label
_atom_site_type_symbol
_atom_type_description
_atom_site_fract_x
_atom_site_fract_y
_atom_site_fract_z
_atom_type_partial_charge
C1    C     C_R   0.500365 0.737485 0.497904 0.936504
C2    C     C_R   0.527728 0.481343 0.258545 -0.192517
C3    C     C_2   0.613522 0.067052 0.493949 -0.163056
C4    C     C_R   0.482077 0.490541 0.653612 0.926880
C5    C     C_2   0.499512 0.130982 0.508206 -0.328263
C6    C     C_2   0.613577 0.933165 0.498662 -0.159099
C7    C     C_2   0.501374 0.868860 0.489237 -0.332987
C8    C     C_2   0.082179 0.431516 0.450486 0.546374
C9    C     C_2   0.932081 0.447867 0.443657 -0.279656
C10   C     C_R   0.499932 0.262507 0.501480 0.927063
C11   C     C_R   0.517885 0.498686 0.346073 0.923779
C12   C     C_R   0.348943 0.425223 0.781431 0.437825
C13   C     C_R   0.473345 0.437500 0.735584 -0.213752
C14   C     C_R   0.588460 0.380108 0.762416 -0.281870
C15   C     C_R   0.583971 0.321503 0.836737 -0.242427
C16   C     C_R   0.464323 0.319042 0.886005 -0.035256
C17   C     C_R   0.342673 0.359295 0.855278 0.419433
C18   C     C_3   0.834034 0.300307 0.095591 0.061383
C19   C     C_3   0.906545 0.272661 0.172338 -0.362697
C20   C     C_3   0.977346 0.146711 0.166863 -0.942968
C21   C     C_3   0.096928 0.233473 0.398290 -0.330017
C22   C     C_3   0.186417 0.229335 0.923381 0.060221
C23   C     C_R   0.418245 0.436299 0.136193 0.444809
C24   C     C_3   0.057008 0.190673 0.885912 -0.377110
C25   C     C_3   0.004913 0.065866 0.919240 -0.964679
C26   C     C_3   0.267180 0.542385 0.065420 0.082023
C27   C     C_3   0.116190 0.546632 0.055001 -0.258248
C28   C     C_3   0.077569 0.662766 0.008938 -0.923066
C29   C     C_3   0.141762 0.409014 0.730032 -0.212696
C30   C     C_R   0.410656 0.465059 0.218142 -0.274257
C31   C     C_R   0.653678 0.470603 0.216092 -0.298594
C32   C     C_R   0.663493 0.434884 0.135050 0.473775
C33   C     C_R   0.545406 0.416200 0.094782 -0.064253
C34   C     C_2   0.474086 0.309955 0.973646 -0.150181
C35   C     C_2   0.557284 0.388440 0.008142 -0.198624
H1    H     H_    0.683862 0.382725 0.726789 0.189585
H2    H     H_    0.745054 0.485979 0.246253 0.178353
H3    H     H_    0.630985 0.441913 0.971038 0.188271
H4    H     H_    0.400761 0.256742 0.010688 0.186506
H5    H     H_    0.676702 0.287216 0.858970 0.169520
H6    H     H_    0.906590 0.287628 0.042261 0.175252
H7    H     H_    0.751710 0.231578 0.088761 0.135424
H8    H     H_    0.982113 0.346366 0.181354 0.244127
H9    H     H_    0.832746 0.271619 0.225860 0.207048
H10   H     H_    0.904436 0.071564 0.155840 0.260126
H11   H     H_    0.023458 0.126994 0.224540 0.262249
H12   H     H_    0.709361 0.113102 0.479796 0.167859
H13   H     H_    0.058259 0.147375 0.117228 0.262855
H14   H     H_    0.007986 0.232183 0.361692 0.153710
H15   H     H_    0.069691 0.199523 0.460956 0.147390
H16   H     H_    0.171324 0.167129 0.369793 0.193698
H17   H     H_    0.168655 0.226431 0.990327 0.175802
H18   H     H_    0.265472 0.158785 0.905866 0.118265
H19   H     H_    0.978398 0.262818 0.898482 0.223714
H20   H     H_    0.077083 0.181722 0.819346 0.207806
H21   H     H_    0.081541 0.991972 0.906737 0.272634
H22   H     H_    0.912483 0.039905 0.889696 0.267472
H23   H     H_    0.403995 0.088082 0.527040 0.145411
H24   H     H_    0.979932 0.072059 0.985518 0.261347
H25   H     H_    0.323379 0.554005 0.005363 0.180927
H26   H     H_    0.291750 0.622048 0.105137 0.112786
H27   H     H_    0.085567 0.462975 0.021626 0.270720
H28   H     H_    0.060648 0.546317 0.115653 0.216962
H29   H     H_    0.105603 0.748007 0.041722 0.248674
H30   H     H_    0.967281 0.663488 0.003458 0.278700
H31   H     H_    0.129014 0.663135 0.947136 0.280936
H32   H     H_    0.183801 0.318367 0.707026 0.111815
H33   H     H_    0.094974 0.454580 0.678916 0.161462
H34   H     H_    0.707801 0.887573 0.509679 0.172691
H35   H     H_    0.060646 0.393497 0.778259 0.178494
H36   H     H_    0.408550 0.911461 0.472963 0.147402
H37   H     H_    0.096843 0.566983 0.532069 0.103757
H38   H     H_    0.888469 0.411953 0.390275 0.177370
H39   H     H_    0.891643 0.522435 0.552666 0.149193
H40   H     H_    0.312276 0.474615 0.249819 0.210134
N1    N     N_2   0.147950 0.498670 0.499150 -0.227410
N2    N     N_2   0.852290 0.498640 0.499130 -0.208867
O1    O     O_R   0.386960 0.680940 0.500010 -0.621617
O2    O     O_3   0.155964 0.352772 0.397787 -0.563917
O3    O     O_3   0.220641 0.353713 0.901107 -0.635448
O4    O     O_3   0.299749 0.425618 0.098267 -0.648632
O5    O     O_3   0.238250 0.490995 0.758617 -0.585611
O6    O     O_R   0.613100 0.680900 0.499990 -0.606164
O7    O     O_R   0.373570 0.500040 0.615810 -0.578165
O8    O     O_R   0.599710 0.500000 0.615790 -0.627812
O9    O     O_R   0.386900 0.319100 0.500010 -0.587159
O10   O     O_R   0.613040 0.319060 0.499990 -0.616835
O11   O     O_R   0.400290 0.500000 0.384210 -0.573415
O12   O     O_R   0.626430 0.499960 0.384190 -0.620718
O13   O     O_3   0.789360 0.425392 0.094503 -0.659635
Zn1   Zn    Zn3+2 0.349000 0.500030 0.500020 0.983563
Zn2   Zn    Zn3+2 0.651000 0.499970 0.499980 0.927601

loop_
_geom_bond_atom_site_label_1
_geom_bond_atom_site_label_2
_ccdc_geom_bond_type
C6    H34   S    
N2    Zn2   S    
C19   C20   S    
C25   H21   S    
H37   N1    S    
C3    C6    S    
C21   H14   S    
C24   H20   S    
O6    Zn2   S    
C26   C27   S    
C25   H22   S    
C5    H23   S    
C26   H26   S    
C18   C19   S    
O9    Zn1   S    
C18   H7    S    
C14   H1    S    
C24   H19   S    
C15   C16   A    
C8    N1    D    
C34   C35   D    
C4    C13   S    
C16   C34   S    
C29   H32   S    
C32   O13   S    
C8    C9    S    
C23   C33   A    
H39   N2    S    
C12   C17   A    
C8    O2    S    
O7    Zn1   S    
C20   H10   S    
C13   C14   A    
C1    O1    A    
C9    H38   S    
C2    C11   S    
C21   H15   S    
O8    Zn2   S    
C19   H8    S    
C22   H18   S    
C10   O10   A    
C34   H4    S    
C18   O13   S    
C23   C30   A    
C35   H3    S    
C24   C25   S    
C18   H6    S    
C16   C17   A    
C4    O8    A    
C17   O3    S    
C31   H2    S    
C2    C31   A    
C28   H31   S    
C27   H27   S    
C29   H33   S    
C11   O12   A    
C31   C32   A    
C4    O7    A    
O11   Zn1   S    
C11   O11   A    
C21   O2    S    
C12   O5    S    
C9    N2    D    
O12   Zn2   S    
C20   H13   S    
C27   H28   S    
C28   H29   S    
C26   O4    S    
C22   C24   S    
C21   H16   S    
C19   H9    S    
C22   H17   S    
C29   H35   S    
C10   O9    A    
C23   O4    S    
C1    C7    S    
C3    C5    D    
C6    C7    D    
O1    Zn1   S    
C1    O6    A    
C2    C30   A    
C32   C33   A    
C28   H30   S    
C22   O3    S    
C5    C10   S    
C7    H36   S    
C30   H40   S    
C3    H12   S    
C33   C35   S    
C15   H5    S    
N1    Zn1   S    
C29   O5    S    
C12   C13   A    
C27   C28   S    
C14   C15   A    
C25   H24   S    
O10   Zn2   S    
C26   H25   S    
C20   H11   S    
