data_mof_unit_60575.cif
_audit_creation_date              2012-10-26T18:02:21-0400
_audit_creation_method            fapswitch 2.2
_symmetry_space_group_name_H-M    P1
_symmetry_Int_Tables_number       1
_space_group_crystal_system       triclinic
_cell_length_a                    18.894269
_cell_length_b                    18.861732
_cell_length_c                    18.747046
_cell_angle_alpha                 109.423425
_cell_angle_beta                  109.440546
_cell_angle_gamma                 109.689074
_cell_volume                      5134.18019849

loop_
_atom_site_label
_atom_site_type_symbol
_atom_type_description
_atom_site_fract_x
_atom_site_fract_y
_atom_site_fract_z
_atom_type_partial_charge
C1    C     C_R   0.118950 0.000331 0.619365 0.551572
C2    C     C_R   0.522134 0.437787 0.805449 -0.111831
C3    C     C_R   0.539255 0.523375 0.834680 -0.103709
C4    C     C_R   0.117705 0.118743 0.498906 0.551530
C5    C     C_R   0.486105 0.542426 0.781317 -0.094978
C6    C     C_R   0.416009 0.476011 0.698345 -0.060071
C7    C     C_R   0.398708 0.389917 0.668356 0.048103
C8    C     C_R   0.240830 0.972760 0.669048 0.012961
C9    C     C_R   0.188771 0.004813 0.687876 -0.034227
C10   C     C_R   0.208215 0.045841 0.775372 -0.118558
C11   C     C_R   0.271544 0.044830 0.839974 0.200469
C12   C     C_R   0.948852 0.989133 0.169662 -0.100298
C13   C     C_R   0.316500 0.003462 0.817080 0.034320
C14   C     C_R   0.304239 0.972918 0.732858 -0.025722
C15   C     C_3   0.284821 0.885884 0.670632 -0.293346
C16   C     C_R   0.881266 0.999913 0.381106 0.552640
C17   C     C_3   0.215485 0.885918 0.600420 -0.247732
C18   C     C_R   0.815092 0.741175 0.494587 -0.035619
C19   C     C_R   0.813630 0.815479 0.499077 0.013852
C20   C     C_R   0.744045 0.824809 0.504007 -0.149914
C21   C     C_R   0.678693 0.759498 0.503125 -0.161606
C22   C     C_R   0.684124 0.685924 0.500404 0.011981
C23   C     C_R   0.240172 0.248884 0.422717 -0.148060
C24   C     C_R   0.754353 0.680356 0.497157 0.052791
C25   C     C_3   0.795439 0.625350 0.492072 0.253806
C26   C     C_3   0.865285 0.695189 0.489928 -0.214924
C27   C     C_R   0.757017 0.928751 0.232132 0.017927
C28   C     C_R   0.881145 0.881378 0.499854 0.554940
C29   C     C_R   0.815208 0.000889 0.315093 0.009322
C30   C     C_R   0.807178 0.075930 0.333025 -0.164582
C31   C     C_R   0.742803 0.076118 0.267929 -0.160551
C32   C     C_R   0.684514 0.000644 0.185203 0.022273
C33   C     C_R   0.693850 0.928252 0.170684 0.009034
C34   C     C_R   0.314277 0.316448 0.502693 0.001815
C35   C     C_3   0.660360 0.837771 0.103374 -0.282739
C36   C     C_3   0.732104 0.838011 0.173699 -0.263869
C37   C     C_R   0.501023 0.619435 0.619110 0.542152
C38   C     C_R   0.381234 0.382311 0.501366 0.541670
C39   C     C_R   0.499766 0.381401 0.381265 0.569030
C40   C     C_R   0.026756 0.988268 0.191370 -0.106301
C41   C     C_R   0.618472 0.618655 0.499948 0.568695
C42   C     C_R   0.500032 0.118711 0.118760 0.579861
C43   C     C_R   0.381565 0.000131 0.881346 0.596312
C44   C     C_R   0.500194 0.881028 0.881475 0.539205
C45   C     C_R   0.323293 0.318877 0.581558 -0.030636
C46   C     C_R   0.618436 0.999487 0.118047 0.545341
C47   C     C_R   0.427399 0.669637 0.693059 -0.010529
C48   C     C_R   0.502264 0.685369 0.687420 0.015322
C49   C     C_R   0.580878 0.761728 0.754750 -0.158979
C50   C     C_R   0.580850 0.826389 0.819126 -0.161279
C51   C     C_R   0.502597 0.813407 0.818011 0.013870
C52   C     C_R   0.100561 0.051522 0.273094 -0.077974
C53   C     C_R   0.427750 0.732052 0.757962 0.022099
C54   C     C_3   0.338646 0.709591 0.697416 -0.269868
C55   C     C_3   0.338392 0.640659 0.626233 -0.269699
C56   C     C_R   0.257424 0.253229 0.578238 -0.148015
C57   C     C_R   0.505080 0.320862 0.246073 0.038804
C58   C     C_R   0.498224 0.313776 0.314980 0.036282
C59   C     C_R   0.491610 0.238630 0.319048 -0.150741
C60   C     C_R   0.491077 0.173479 0.253874 -0.149334
C61   C     C_R   0.500223 0.184488 0.185915 0.039658
C62   C     C_R   0.507959 0.260120 0.185594 0.047561
C63   C     C_3   0.518548 0.308847 0.138078 -0.257578
C64   C     C_R   0.096301 0.115226 0.334062 0.045265
C65   C     C_3   0.516127 0.378636 0.207744 -0.264540
C66   C     C_R   0.017842 0.115640 0.312049 -0.079182
C67   C     C_R   0.183742 0.185736 0.498270 0.006639
C68   C     C_R   0.944637 0.053184 0.229678 -0.102965
C69   C     C_R   0.174698 0.183209 0.419659 -0.033515
C70   C     C_R   0.451894 0.371132 0.722755 -0.088613
Cl1   Cl    Cl    0.290683 0.092776 0.947631 -0.627314
Cu1   Cu    Cu3+1 0.000020 0.938200 0.438220 0.929939
Cu2   Cu    Cu3+1 0.999980 0.061800 0.561780 0.935510
Cu3   Cu    Cu3+1 0.438190 0.500040 0.438260 0.936367
Cu4   Cu    Cu3+1 0.561780 0.500000 0.561820 0.957199
Cu5   Cu    Cu3+1 0.561810 0.061820 0.000020 0.942913
Cu6   Cu    Cu3+1 0.438190 0.938280 0.000080 0.965459
F1    F     F_    0.744142 0.547194 0.413868 -0.638369
H1    H     H_    0.891891 0.940488 0.106212 0.104969
H2    H     H_    0.739564 0.881446 0.507245 0.131957
H3    H     H_    0.030090 0.938899 0.144682 0.110810
H4    H     H_    0.625173 0.767067 0.505929 0.127435
H5    H     H_    0.819300 0.619145 0.551200 0.120726
H6    H     H_    0.930284 0.732152 0.549604 0.085525
H7    H     H_    0.864959 0.672352 0.426923 0.178431
H8    H     H_    0.851148 0.134504 0.396349 0.137484
H9    H     H_    0.738094 0.134394 0.282315 0.125518
H10   H     H_    0.593514 0.792386 0.085211 0.147550
H11   H     H_    0.670600 0.835280 0.047719 0.128470
H12   H     H_    0.593480 0.574881 0.898817 0.107225
H13   H     H_    0.706756 0.792991 0.196460 0.143394
H14   H     H_    0.160810 0.050737 0.289036 0.109007
H15   H     H_    0.783396 0.835238 0.158290 0.143912
H16   H     H_    0.641127 0.773083 0.754979 0.123766
H17   H     H_    0.641146 0.886784 0.868267 0.130814
H18   H     H_    0.290731 0.681984 0.716333 0.143178
H19   H     H_    0.338648 0.763218 0.685200 0.124916
H20   H     H_    0.290866 0.573157 0.604587 0.133200
H21   H     H_    0.337562 0.654286 0.572716 0.154018
H22   H     H_    0.485906 0.229936 0.371555 0.123872
H23   H     H_    0.499172 0.608654 0.804571 0.116590
H24   H     H_    0.485046 0.115729 0.257410 0.128119
H25   H     H_    0.582694 0.331138 0.141577 0.151955
H26   H     H_    0.013758 0.164840 0.358152 0.101972
H27   H     H_    0.461395 0.274481 0.071587 0.187072
H28   H     H_    0.579029 0.440944 0.251729 0.196157
H29   H     H_    0.457778 0.384812 0.181396 0.151393
H30   H     H_    0.884667 0.054544 0.212197 0.122019
H31   H     H_    0.233384 0.247137 0.362277 0.135054
H32   H     H_    0.263565 0.254689 0.638425 0.126880
H33   H     H_    0.439138 0.305011 0.700927 0.107764
H34   H     H_    0.374823 0.491331 0.657745 0.097703
H35   H     H_    0.563148 0.423043 0.846970 0.110245
H36   H     H_    0.171847 0.075166 0.793015 0.171240
H37   H     H_    0.339905 0.889462 0.659607 0.137608
H38   H     H_    0.257585 0.835321 0.686954 0.132109
H39   H     H_    0.230786 0.890053 0.549091 0.143701
H40   H     H_    0.148390 0.834939 0.575674 0.144669
O1    O     O_R   0.090190 0.947810 0.538000 -0.510996
O2    O     O_R   0.447820 0.038100 0.090220 -0.493797
O3    O     O_R   0.462030 0.052220 0.909860 -0.506813
O4    O     O_R   0.090150 0.052180 0.642350 -0.513641
O5    O     O_R   0.357640 0.947890 0.909900 -0.484178
O6    O     O_R   0.552180 0.962000 0.909880 -0.517163
O7    O     O_R   0.447790 0.857670 0.909930 -0.515336
O8    O     O_R   0.642360 0.052210 0.090200 -0.516173
O9    O     O_R   0.537970 0.947880 0.090240 -0.513569
O10   O     O_R   0.090200 0.037990 0.447830 -0.500220
O11   O     O_R   0.090160 0.142360 0.552180 -0.513851
O12   O     O_R   0.552160 0.590170 0.642390 -0.511525
O13   O     O_R   0.909850 0.947820 0.357650 -0.503689
O14   O     O_R   0.909810 0.052190 0.462000 -0.517956
O15   O     O_R   0.909840 0.857640 0.447820 -0.511800
O16   O     O_R   0.909800 0.962010 0.552170 -0.510242
O17   O     O_R   0.447790 0.590200 0.538040 -0.516510
O18   O     O_R   0.357620 0.409850 0.447860 -0.517061
O19   O     O_R   0.461990 0.409820 0.552210 -0.501267
O20   O     O_R   0.447810 0.409860 0.357690 -0.508094
O21   O     O_R   0.552180 0.409830 0.462050 -0.500198
O22   O     O_R   0.537970 0.590210 0.447870 -0.510151
O23   O     O_R   0.642350 0.590180 0.552220 -0.509873
O24   O     O_R   0.552210 0.142430 0.090170 -0.511047

loop_
_geom_bond_atom_site_label_1
_geom_bond_atom_site_label_2
_ccdc_geom_bond_type
C66   C68   A    
C63   C65   S    
C27   C29   A    
Cu5   O8    S    
C23   C69   A    
C35   C36   S    
C18   C26   S    
Cu6   O2    S    
C7    C70   A    
Cu1   O15   S    
C57   C62   A    
C53   C54   S    
C27   C33   A    
C12   C68   A    
C29   C30   A    
Cu1   O10   S    
C3    H12   S    
C18   C24   A    
Cu5   O3    S    
C7    C45   S    
C22   C24   A    
C21   C22   A    
C30   C31   A    
C2    H35   S    
C11   Cl1   S    
C50   H17   S    
C22   C41   S    
C70   H33   S    
C12   H1    S    
C37   O12   A    
Cu1   O1    S    
C18   C19   A    
C1    O1    A    
C16   O13   A    
C1    O4    A    
C41   O22   A    
Cu2   O16   S    
Cu4   O23   S    
C36   H15   S    
C47   C48   A    
C45   C56   A    
C8    C9    A    
Cu3   O18   S    
C42   O24   A    
C8    C14   A    
C37   O17   A    
C54   H19   S    
C38   O18   A    
C49   H16   S    
C63   H27   S    
C9    C10   A    
C43   O3    A    
C54   H18   S    
Cu6   O9    S    
Cu4   O12   S    
C17   H39   S    
C47   C53   A    
Cu2   O14   S    
C59   C60   A    
C13   C14   A    
C59   H22   S    
C32   C46   S    
C60   H24   S    
C56   H32   S    
C5    H23   S    
C23   H31   S    
C39   O21   A    
C44   O7    A    
C31   H9    S    
Cu3   Cu4   S    
C20   H2    S    
C25   F1    S    
Cu5   O6    S    
C66   H26   S    
C46   O9    A    
C1    C9    S    
Cu5   Cu6   S    
C63   H25   S    
C52   C64   A    
C4    O10   A    
C16   C29   S    
C40   C52   A    
C39   C58   S    
Cu3   O22   S    
C44   O6    A    
C28   O15   A    
C60   C61   A    
C67   C69   A    
C64   C66   A    
C12   C40   A    
C41   O23   A    
C62   C63   S    
Cu6   O5    S    
Cu3   O20   S    
C35   H10   S    
C31   C32   A    
C14   C15   S    
C23   C34   A    
Cu3   O17   S    
C50   C51   A    
C34   C45   A    
C64   C69   S    
C24   C25   S    
C37   C48   S    
C19   C28   S    
C42   C61   S    
C4    O11   A    
C17   H40   S    
C35   H11   S    
C36   H13   S    
C48   C49   A    
C49   C50   A    
Cu4   O19   S    
C28   O16   A    
C52   H14   S    
C30   H8    S    
C43   O5    A    
C65   H28   S    
C13   C43   S    
Cu6   O7    S    
C44   C51   S    
Cu1   O13   S    
C47   C55   S    
C15   C17   S    
C54   C55   S    
C26   H6    S    
C34   C38   S    
C6    H34   S    
C40   H3    S    
C46   O8    A    
C57   C65   S    
Cu1   Cu2   S    
C3    C5    A    
C10   H36   S    
C4    C67   S    
C6    C7    A    
C27   C36   S    
C56   C67   A    
C8    C17   S    
C32   C33   A    
C19   C20   A    
C2    C3    A    
C25   C26   S    
Cu4   O21   S    
C21   H4    S    
C11   C13   A    
C42   O2    A    
C57   C58   A    
C5    C6    A    
C26   H7    S    
C55   H20   S    
C33   C35   S    
C38   O19   A    
C15   H37   S    
C61   C62   A    
C16   O14   A    
C58   C59   A    
C39   O20   A    
C10   C11   A    
C20   C21   A    
Cu2   O4    S    
C55   H21   S    
C25   H5    S    
C15   H38   S    
C68   H30   S    
C51   C53   A    
C2    C70   A    
C65   H29   S    
Cu2   O11   S    
Cu5   O24   S    
