data_mof_unit_50314.cif
_audit_creation_date              2013-03-05T16:06:22-0500
_audit_creation_method            fapswitch 2.2
_symmetry_space_group_name_H-M    P1
_symmetry_Int_Tables_number       1
_space_group_crystal_system       triclinic
_cell_length_a                    10.826924
_cell_length_b                    9.509428
_cell_length_c                    27.812277
_cell_angle_alpha                 89.835856
_cell_angle_beta                  90.238627
_cell_angle_gamma                 90.036679
_cell_volume                      2863.45521084

loop_
_atom_site_label
_atom_site_type_symbol
_atom_site_description
_atom_site_fract_x
_atom_site_fract_y
_atom_site_fract_z
_atom_type_partial_charge
O1    O     O_R   0.319640 0.618740 0.500000 -0.588155
O2    O     O_R   0.680360 0.381260 0.500000 -0.588218
O3    O     O_R   0.680360 0.618740 0.500000 -0.587422
O4    O     O_R   0.319640 0.381260 0.500000 -0.587430
C1    C     C_R   0.262037 0.499974 0.499964 0.797258
C2    C     C_R   0.737963 0.500025 0.500035 0.797190
O5    O     O_R   0.500020 0.618770 0.430260 -0.583494
O6    O     O_R   0.499980 0.381230 0.569740 -0.583612
O7    O     O_R   0.499980 0.618770 0.569740 -0.583926
O8    O     O_R   0.500020 0.381230 0.430260 -0.583994
C3    C     C_R   0.499650 0.500230 0.407406 0.806446
C4    C     C_R   0.500419 0.499781 0.592599 0.806372
Cu1   Cu    Cu3+1 0.500000 0.640660 0.500000 0.951215
Cu2   Cu    Cu3+1 0.500000 0.359340 0.500000 0.951055
C5    C     C_R   0.389811 0.525307 0.177681 0.576858
C6    C     C_R   0.617197 0.497774 0.821727 0.576129
O9    O     O_2   0.283757 0.533554 0.202754 -0.457024
O10   O     O_2   0.722249 0.506937 0.796051 -0.453895
N1    N     N_R   0.498342 0.505599 0.202062 -0.477920
N2    N     N_R   0.506662 0.495794 0.797848 -0.479668
C7    C     C_R   0.607537 0.487887 0.178552 0.551908
C8    C     C_R   0.397005 0.493144 0.821748 0.551520
C9    C     C_R   0.511545 0.376571 0.278518 -0.091204
C10   C     C_R   0.496230 0.624660 0.721442 -0.093310
C11   C     C_R   0.511713 0.375060 0.328676 -0.207986
C12   C     C_R   0.494601 0.625837 0.671290 -0.205867
C13   C     C_R   0.484777 0.628402 0.329149 -0.205958
C14   C     C_R   0.511313 0.371236 0.670930 -0.204456
C15   C     C_R   0.483945 0.629474 0.279029 -0.090546
C16   C     C_R   0.513294 0.370473 0.721056 -0.093491
C17   C     C_R   0.497671 0.503742 0.253598 0.344493
C18   C     C_R   0.505627 0.497049 0.746367 0.349829
C19   C     C_R   0.500445 0.509346 0.101937 -0.085465
C20   C     C_R   0.507679 0.495066 0.897946 -0.085728
C21   C     C_R   0.388537 0.532592 0.126859 -0.141615
C22   C     C_R   0.620868 0.493086 0.872597 -0.143024
C23   C     C_R   0.279714 0.559730 0.100126 0.366690
C24   C     C_R   0.732818 0.490722 0.898955 0.370024
C25   C     C_R   0.610562 0.488152 0.128214 -0.017823
C26   C     C_R   0.395278 0.494243 0.872079 -0.020110
C27   C     C_R   0.498723 0.501129 0.354453 -0.042955
C28   C     C_R   0.501944 0.499007 0.645561 -0.042641
H1    H     H_    0.474196 0.727091 0.348026 0.157400
H2    H     H_    0.517444 0.271932 0.652106 0.157474
H3    H     H_    0.473302 0.728059 0.259877 0.146866
H4    H     H_    0.520536 0.271612 0.740294 0.142402
C29   C     C_R   0.391770 0.506617 0.973755 0.070133
C30   C     C_R   0.616668 0.489404 0.026309 0.070105
C31   C     C_R   0.618901 0.493839 0.975151 -0.012658
C32   C     C_R   0.390907 0.520183 0.024610 -0.013711
C33   C     C_R   0.506235 0.498353 0.949104 0.077234
C34   C     C_R   0.502660 0.506552 0.050794 0.077312
C35   C     C_R   0.281341 0.499184 0.946593 -0.183057
C36   C     C_R   0.724707 0.467008 0.054057 -0.178313
C37   C     C_R   0.283324 0.493606 0.896805 -0.097637
C38   C     C_R   0.721411 0.466522 0.103891 -0.096735
O11   O     O_2   0.289891 0.490448 0.796738 -0.498713
O12   O     O_2   0.712939 0.469939 0.203936 -0.505633
C39   C     C_R   0.281826 0.551067 0.050078 -0.256596
C40   C     C_R   0.730502 0.493539 0.949075 -0.253848
H5    H     H_    0.487302 0.725808 0.652731 0.158994
H6    H     H_    0.522643 0.275502 0.347210 0.159701
H7    H     H_    0.490204 0.722745 0.740988 0.141785
H8    H     H_    0.522062 0.279041 0.258961 0.144641
H9    H     H_    0.196007 0.489115 0.877700 0.233923
H10   H     H_    0.806807 0.448203 0.123361 0.225695
H11   H     H_    0.191256 0.493863 0.962845 0.165588
H12   H     H_    0.813573 0.445509 0.038515 0.163055
H13   H     H_    0.196898 0.577098 0.031772 0.176182
H14   H     H_    0.819301 0.495880 0.966598 0.172169
C41   C     C_R   0.063789 0.372172 0.499983 -0.171799
C42   C     C_R   0.936211 0.627827 0.500015 -0.171698
C43   C     C_R   0.936055 0.372202 0.500038 -0.172118
C44   C     C_R   0.063945 0.627798 0.499961 -0.171983
H15   H     H_    0.111789 0.272255 0.499966 0.150825
H16   H     H_    0.888211 0.727745 0.500032 0.150824
H17   H     H_    0.887932 0.272290 0.500073 0.150787
H18   H     H_    0.112068 0.727710 0.499925 0.150806
C45   C     C_R   0.871787 0.500031 0.500041 -0.019822
C46   C     C_R   0.128213 0.499969 0.499958 -0.019852
C47   C     C_R   0.422801 0.074639 0.470197 -0.022173
C48   C     C_R   0.577196 0.925361 0.529804 -0.022297
C49   C     C_R   0.577189 0.074263 0.529807 -0.023030
C50   C     C_R   0.422811 0.925737 0.470193 -0.022710
H19   H     H_    0.360985 0.130981 0.446334 0.122141
H20   H     H_    0.639009 0.869018 0.553669 0.121916
H21   H     H_    0.638981 0.130306 0.553678 0.120617
H22   H     H_    0.361018 0.869693 0.446323 0.120328
N3    N     N_R   0.500000 0.852070 0.500000 -0.158308
N4    N     N_R   0.500000 0.147930 0.500000 -0.158412
N5    N     N_R   0.167034 0.603565 0.122547 0.169632
O13   O     O_R   0.063021 0.544994 0.110213 -0.358273
O14   O     O_R   0.164794 0.720320 0.146822 -0.292751
N6    N     N_R   0.850773 0.480271 0.875980 0.162735
O15   O     O_R   0.937285 0.570266 0.886461 -0.354495
O16   O     O_R   0.880052 0.364995 0.853665 -0.294701

loop_
_geom_bond_atom_site_label_1
_geom_bond_atom_site_label_2
_geom_bond_distance
_ccdc_geom_bond_type
C49   H21   1.081772 S    
C13   C15   1.393954 A    
C42   H16   1.083296 S    
O3    C2    1.290071 A    
N1    C17   1.433421 S    
C8    O11   1.350097 S    
C19   C34   1.423019 A    
C30   C36   1.414570 A    
C20   C33   1.423391 A    
C19   C25   1.410086 A    
C48   N3    1.366827 A    
O1    C1    1.289801 A    
C32   C39   1.411163 A    
C21   C23   1.414076 A    
C12   H5    1.083229 S    
C10   C12   1.394887 A    
C42   C45   1.400836 A    
C36   H12   1.076377 S    
O7    Cu1   1.950174 S    
Cu2   N4    2.010389 S    
C4    C28   1.473001 S    
C5    N1    1.366969 A    
C31   C33   1.416737 A    
C32   C34   1.415432 A    
O3    Cu1   1.963971 S    
O6    C4    1.295845 A    
C29   C35   1.413446 A    
C44   C46   1.401034 A    
Cu1   Cu2   2.675192 S    
O2    C2    1.289800 A    
C35   H11   1.077798 S    
C5    C21   1.414984 A    
C41   C46   1.400836 A    
C37   H9    1.083420 S    
C29   C32   1.420697 A    
C35   C37   1.386127 A    
C36   C38   1.386605 A    
C41   H15   1.083296 S    
C23   N5    1.435069 S    
C42   C44   1.382968 A    
O8    Cu2   1.950174 S    
C11   C27   1.406041 A    
N5    O13   1.301223 A    
C41   C43   1.382968 A    
C29   C33   1.421127 A    
C48   H20   1.081757 S    
C14   H2    1.083258 S    
C15   H3    1.082889 S    
C9    C17   1.399992 A    
O5    C3    1.295690 A    
C10   C18   1.399378 A    
N5    O14   1.301371 A    
C13   C27   1.406191 A    
C25   C38   1.395782 A    
C7    C25   1.400512 A    
C40   H14   1.076329 S    
C6    N2    1.366400 A    
C26   C37   1.396108 A    
C8    C26   1.400083 A    
C24   N6    1.434054 S    
C43   C45   1.401033 A    
C1    C46   1.448898 S    
N6    O16   1.301262 A    
C31   C40   1.411832 A    
C23   C39   1.394912 A    
C39   H13   1.077794 S    
C24   C40   1.394590 A    
C47   N4    1.366830 A    
C30   C31   1.423647 A    
N2    C8    1.363249 A    
C10   H7    1.083072 S    
C20   C26   1.411157 A    
O1    Cu1   1.963705 S    
C50   N3    1.366777 A    
C22   C24   1.414065 A    
C47   C50   1.415972 A    
C12   C28   1.406615 A    
N2    C18   1.431833 S    
C5    O9    1.348323 S    
C49   N4    1.366778 A    
C9    H8    1.082838 S    
O6    Cu2   1.951360 S    
Cu1   N3    2.010388 S    
C16   H4    1.083096 S    
C50   H22   1.081776 S    
O4    C1    1.290070 A    
C14   C16   1.394198 A    
C7    O12   1.350070 S    
C15   C17   1.399232 A    
C6    C22   1.415784 A    
C16   C18   1.398817 A    
C2    C45   1.448896 S    
C38   H10   1.083470 S    
C14   C28   1.406802 A    
C19   C21   1.416173 A    
C3    C27   1.472731 S    
C20   C22   1.416521 A    
C11   H6    1.082988 S    
C9    C11   1.395032 A    
O4    Cu2   1.963971 S    
N6    O15   1.301088 A    
O2    Cu2   1.963705 S    
O7    C4    1.296306 A    
O8    C3    1.296325 A    
C13   H1    1.083029 S    
O5    Cu1   1.951360 S    
C6    O10   1.348138 S    
C48   C49   1.415973 A    
C44   H18   1.083294 S    
C43   H17   1.083294 S    
C30   C34   1.421923 A    
C47   H19   1.081752 S    
N1    C7    1.364175 A    
