data_mof_unit_35445.cif
_audit_creation_date              2012-12-11T16:57:19-0500
_audit_creation_method            fapswitch 2.2
_symmetry_space_group_name_H-M    P1
_symmetry_Int_Tables_number       1
_space_group_crystal_system       triclinic
_cell_length_a                    14.512349
_cell_length_b                    16.192017
_cell_length_c                    6.93534
_cell_angle_alpha                 89.996672
_cell_angle_beta                  99.144537
_cell_angle_gamma                 89.9906
_cell_volume                      1608.98280639

loop_
_atom_site_label
_atom_site_type_symbol
_atom_type_description
_atom_site_fract_x
_atom_site_fract_y
_atom_site_fract_z
_atom_type_partial_charge
O1    O     O_R   0.584990 0.413650 0.534420 -0.543483
O2    O     O_R   0.584990 0.586350 0.534420 -0.534674
O3    O     O_R   0.596190 0.585230 0.208380 -0.542104
O4    O     O_R   0.596190 0.414770 0.208380 -0.520706
O5    O     O_R   0.415010 0.586420 0.976930 -0.551795
O6    O     O_R   0.415010 0.413580 0.976930 -0.539673
C1    C     C_R   0.617081 0.615601 0.383930 0.696370
C2    C     C_R   0.618210 0.385226 0.384401 0.771226
O7    O     O_3   0.440560 0.500000 0.319140 -0.380003
V1    V     V_3+5 0.511030 0.500000 0.068070 1.483662
O8    O     O_R   0.403810 0.414840 0.643540 -0.540346
O9    O     O_R   0.403810 0.585160 0.643540 -0.540016
C3    C     C_R   0.381487 0.386006 0.805351 0.779784
C4    C     C_R   0.381533 0.614031 0.805353 0.757264
V2    V     V_3+5 0.488970 0.500000 0.560620 1.468325
O10   O     O_3   0.559440 0.500000 0.859420 -0.380990
H1    H     H_    0.186303 0.804861 0.808041 0.108528
H2    H     H_    0.186172 0.195246 0.807991 0.108937
H3    H     H_    0.322286 0.693919 0.099941 0.194594
H4    H     H_    0.321865 0.306372 0.099908 0.201238
C5    C     C_2   0.311985 0.681579 0.794748 -0.358172
C6    C     C_2   0.311898 0.318497 0.794732 -0.364708
C7    C     C_2   0.289018 0.715964 0.957878 -0.085339
C8    C     C_2   0.288763 0.284220 0.957839 -0.073140
C9    C     C_2   0.196783 0.818050 0.115157 0.174899
C10   C     C_2   0.196658 0.182030 0.115112 0.176189
C11   C     C_2   0.219448 0.783501 0.950920 -0.128595
C12   C     C_2   0.219272 0.216627 0.950869 -0.135220
H5    H     H_    0.279488 0.703549 0.652131 0.167532
H6    H     H_    0.279541 0.296440 0.652111 0.166609
C13   C     C_R   0.761124 0.682976 0.566995 -0.031667
C14   C     C_R   0.764445 0.318712 0.565657 -0.069613
C15   C     C_R   0.684798 0.685687 0.414501 -0.182450
C16   C     C_R   0.687495 0.316421 0.414708 -0.118368
C17   C     C_R   0.679999 0.754973 0.285054 0.411101
C18   C     C_R   0.681681 0.248256 0.284560 0.403808
C19   C     C_R   0.749601 0.817193 0.314754 -0.159670
C20   C     C_R   0.749650 0.183754 0.315196 -0.255645
C21   C     C_R   0.820310 0.816749 0.479637 -0.141315
C22   C     C_R   0.820646 0.183569 0.479848 -0.097715
C23   C     C_R   0.825977 0.747084 0.599639 -0.042093
C24   C     C_R   0.828131 0.253819 0.598079 -0.037976
C25   C     C_3   0.838066 0.740353 0.816442 -0.379521
C26   C     C_3   0.842957 0.262509 0.814663 -0.380658
C27   C     C_3   0.766146 0.671060 0.783466 0.668629
C28   C     C_3   0.772594 0.333172 0.781730 0.662600
O11   O     O_R   0.921430 0.915960 0.371040 -0.538807
O12   O     O_R   0.921430 0.084040 0.371040 -0.536910
O13   O     O_R   0.910450 0.087500 0.697310 -0.543503
O14   O     O_R   0.910450 0.912500 0.697310 -0.541304
O15   O     O_R   0.091710 0.087460 0.928430 -0.548183
O16   O     O_R   0.091710 0.912540 0.928430 -0.548169
C29   C     C_R   0.887895 0.114062 0.518881 0.718893
C30   C     C_R   0.888006 0.885870 0.518930 0.720379
O17   O     O_3   0.065970 1.000000 0.586140 -0.372258
V3    V     V_3+5 0.995640 0.000000 0.837400 1.414724
O18   O     O_R   0.103020 0.915700 0.261710 -0.541256
O19   O     O_R   0.103020 0.084300 0.261710 -0.541349
C31   C     C_R   0.125888 0.885922 0.101152 0.651166
C32   C     C_R   0.125854 0.114099 0.101136 0.651176
V4    V     V_3+5 0.017940 0.000000 0.344880 1.409498
O20   O     O_3   0.947330 0.000000 0.046180 -0.366231
O21   O     O_3   0.801173 0.593481 0.852504 -0.631059
H7    H     H_    0.857014 0.580960 0.791381 0.274718
O22   O     O_3   0.810380 0.410658 0.844355 -0.632513
H8    H     H_    0.865161 0.421250 0.778343 0.271187
O23   O     O_3   0.240306 0.789080 0.294669 -0.655061
H9    H     H_    0.217804 0.820677 0.400106 0.291219
O24   O     O_3   0.240141 0.211016 0.294619 -0.653819
H10   H     H_    0.217704 0.179374 0.400061 0.291089
O25   O     O_3   0.605592 0.768428 0.137734 -0.619826
H11   H     H_    0.552963 0.732200 0.156957 0.285131
O26   O     O_3   0.605640 0.242621 0.137703 -0.630904
H12   H     H_    0.610526 0.190962 0.063210 0.304138
H13   H     H_    0.743872 0.869469 0.216009 0.139774
H14   H     H_    0.743621 0.131327 0.216941 0.117290
H15   H     H_    0.813397 0.796305 0.886146 0.186752
H16   H     H_    0.817835 0.207868 0.888549 0.178670
H17   H     H_    0.909504 0.719583 0.879742 0.131248
H18   H     H_    0.915330 0.282267 0.873479 0.134031
O27   O     O_3   0.682889 0.692542 0.849437 -0.614589
H19   H     H_    0.650009 0.640609 0.870957 0.339375
O28   O     O_3   0.690175 0.314587 0.854024 -0.627155
H20   H     H_    0.659263 0.367605 0.874735 0.346799

loop_
_geom_bond_atom_site_label_1
_geom_bond_atom_site_label_2
_ccdc_geom_bond_type
O17   V3    S    
O1    C2    A    
C1    C15   S    
O26   H12   S    
O2    C1    A    
C9    O23   S    
O4    C2    A    
O27   H19   S    
C21   C23   A    
C20   H14   S    
O14   C30   A    
C4    C5    S    
C17   C19   A    
O3    C1    A    
O18   C31   A    
C21   C30   S    
O19   C32   A    
V2    O10   S    
O15   V3    S    
O8    V2    S    
H4    C8    S    
C13   C15   A    
O1    V2    S    
C7    C11   S    
C13   C23   A    
O7    V1    S    
C16   C18   A    
O19   V4    S    
C22   C24   A    
C19   H13   S    
C17   O25   S    
C23   C25   S    
V4    O20   S    
C24   C26   S    
C26   C28   S    
O12   C29   A    
O23   H9    S    
H1    C11   S    
C26   H18   S    
H2    C12   S    
C28   O22   S    
C5    H5    S    
C27   O21   S    
O14   V3    S    
C28   O28   S    
C14   C16   A    
H3    C7    S    
O11   V4    S    
O16   C31   A    
O28   H20   S    
O9    V2    S    
C2    C16   S    
O2    V2    S    
C25   C27   S    
O5    C4    A    
C25   H17   S    
O11   C30   A    
O9    C4    A    
O22   H8    S    
C5    C7    D    
V3    O20   S    
C9    C11   D    
O4    V1    S    
C6    H6    S    
C14   C28   S    
C27   O27   S    
C8    C12   S    
O6    V1    S    
O18   V4    S    
C25   H15   S    
O13   V3    S    
C10   C12   D    
C18   C20   A    
O7    V2    S    
O25   H11   S    
C19   C21   A    
O3    V1    S    
V1    O10   S    
O6    C3    A    
C20   C22   A    
O8    C3    A    
O12   V4    S    
O13   C29   A    
O17   V4    S    
C26   H16   S    
C15   C17   A    
C3    C6    S    
C6    C8    D    
O24   H10   S    
C18   O26   S    
O21   H7    S    
O5    V1    S    
C22   C29   S    
C13   C27   S    
C10   O24   S    
C14   C24   A    
O15   C32   A    
C9    C31   S    
C10   C32   S    
O16   V3    S    
