data_mof_unit_27257.cif
_audit_creation_date              2012-12-10T19:47:27-0500
_audit_creation_method            fapswitch 2.2
_symmetry_space_group_name_H-M    P1
_symmetry_Int_Tables_number       1
_space_group_crystal_system       triclinic
_cell_length_a                    10.882074
_cell_length_b                    10.874577
_cell_length_c                    12.691875
_cell_angle_alpha                 93.064463
_cell_angle_beta                  92.187855
_cell_angle_gamma                 89.421905
_cell_volume                      1498.64071043

loop_
_atom_site_label
_atom_site_type_symbol
_atom_type_description
_atom_site_fract_x
_atom_site_fract_y
_atom_site_fract_z
_atom_type_partial_charge
C1    C     C_R   0.262028 0.494616 0.501490 0.795003
C2    C     C_R   0.738309 0.499651 0.498403 0.794249
C3    C     C_R   0.503557 0.872068 0.498615 -0.133161
C4    C     C_R   0.496383 0.128836 0.502298 -0.137040
C5    C     C_R   0.412517 0.932191 0.436662 -0.058752
C6    C     C_R   0.586843 0.069222 0.564245 -0.058386
C7    C     C_R   0.236534 0.322294 0.817574 -0.146963
C8    C     C_R   0.780492 0.629490 0.159946 -0.148003
C9    C     C_R   0.192359 0.350576 0.716774 -0.102615
C10   C     C_R   0.820770 0.616111 0.264691 -0.108008
C11   C     C_R   0.124687 0.459671 0.702270 0.135680
C12   C     C_R   0.877345 0.505797 0.294297 0.138646
C13   C     C_R   0.102819 0.540003 0.790219 -0.166892
C14   C     C_R   0.892469 0.409239 0.217641 -0.158647
C15   C     C_R   0.146734 0.511082 0.890896 -0.136838
C16   C     C_R   0.852486 0.423161 0.112970 -0.145107
C17   C     C_R   0.212408 0.401781 0.904644 -0.117223
C18   C     C_R   0.797660 0.533608 0.083973 -0.113281
C19   C     C_R   0.937569 0.490689 0.592662 -0.233350
C20   C     C_R   0.063191 0.490708 0.406473 -0.241818
C21   C     C_R   0.872012 0.497539 0.495921 -0.073575
C22   C     C_R   0.128673 0.487575 0.503368 -0.092201
C23   C     C_R   0.498533 0.262232 0.500666 0.804190
C24   C     C_R   0.502797 0.738077 0.499452 0.818235
C25   C     C_R   0.935942 0.496696 0.401001 -0.019660
C26   C     C_R   0.064982 0.482534 0.597886 -0.016913
C27   C     C_2   0.489676 0.453282 0.031691 -0.269372
C28   C     C_2   0.509627 0.546628 0.968322 -0.275103
C29   C     C_1   0.516232 0.529505 0.852706 0.202484
C30   C     C_1   0.483419 0.470396 0.147294 0.204839
C31   C     C_R   0.890216 0.213404 0.654045 -0.134242
C32   C     C_R   0.115883 0.774270 0.343978 -0.131771
C33   C     C_R   0.797015 0.160041 0.588736 -0.151845
C34   C     C_R   0.204105 0.836929 0.408640 -0.181148
C35   C     C_R   0.680417 0.141946 0.628386 0.126413
C36   C     C_R   0.320531 0.859715 0.370324 0.138430
C37   C     C_R   0.656986 0.181524 0.732986 -0.101042
C38   C     C_R   0.348818 0.815395 0.267942 -0.098416
C39   C     C_R   0.749463 0.238551 0.797029 -0.149399
C40   C     C_R   0.261174 0.750301 0.204438 -0.138841
C41   C     C_R   0.866441 0.253259 0.757953 -0.132834
C42   C     C_R   0.144455 0.730523 0.242160 -0.120111
C43   C     C_R   0.591607 0.939930 0.562702 0.040379
C44   C     C_R   0.406821 0.061673 0.440027 0.027009
Cu1   Cu    Cu3+1 0.492140 0.492110 0.395880 0.969858
Cu2   Cu    Cu3+1 0.507860 0.507890 0.604120 0.972870
H1    H     H_    0.938526 0.295575 0.808157 0.142463
H2    H     H_    0.076306 0.681037 0.192604 0.132598
H3    H     H_    0.050000 0.623862 0.781081 0.122008
H4    H     H_    0.937732 0.324348 0.238637 0.121438
H5    H     H_    0.128435 0.572594 0.958491 0.127006
H6    H     H_    0.865775 0.349058 0.054010 0.123387
H7    H     H_    0.889089 0.487971 0.665512 0.172811
H8    H     H_    0.111380 0.492474 0.333399 0.170888
H9    H     H_    0.520927 0.639297 0.003382 0.148031
H10   H     H_    0.479112 0.360478 0.996745 0.148732
H11   H     H_    0.980804 0.223834 0.623771 0.132281
H12   H     H_    0.025398 0.759450 0.372895 0.132191
H13   H     H_    0.816588 0.129558 0.508471 0.114623
H14   H     H_    0.181059 0.870137 0.487473 0.120956
H15   H     H_    0.567728 0.166855 0.764932 0.114735
H16   H     H_    0.438533 0.831736 0.237516 0.108685
H17   H     H_    0.731029 0.269445 0.877421 0.120007
H18   H     H_    0.283439 0.716001 0.125754 0.120383
H19   H     H_    0.244119 0.378566 0.982912 0.126191
H20   H     H_    0.769017 0.544972 0.002488 0.131821
H21   H     H_    0.287822 0.237829 0.828420 0.117415
H22   H     H_    0.737805 0.714936 0.137309 0.116248
N1    N     N_1   0.480320 0.480250 0.239400 -0.158716
N2    N     N_1   0.519680 0.519750 0.760600 -0.160464
O1    O     O_R   0.313000 0.493330 0.412070 -0.581796
O2    O     O_R   0.687000 0.506670 0.587930 -0.577704
O3    O     O_R   0.326280 0.506660 0.587930 -0.567896
O4    O     O_R   0.673720 0.493340 0.412070 -0.575229
O5    O     O_R   0.493370 0.312980 0.412070 -0.580611
O6    O     O_R   0.506630 0.687020 0.587930 -0.588360
O7    O     O_R   0.506650 0.326310 0.587930 -0.576397
O8    O     O_R   0.493350 0.673690 0.412070 -0.573726
C45   C     C_3   0.696288 0.876419 0.624082 -0.387885
C46   C     C_3   0.798434 0.832552 0.550770 -0.346115
C47   C     C_3   0.915172 0.799821 0.614011 -0.857738
H23   H     H_    0.955269 0.883994 0.654601 0.251225
H24   H     H_    0.894046 0.733244 0.673936 0.254089
H25   H     H_    0.984068 0.757957 0.560483 0.247384
H26   H     H_    0.766613 0.750776 0.501968 0.199076
H27   H     H_    0.820604 0.905417 0.496605 0.211327
H28   H     H_    0.736908 0.938113 0.688148 0.206104
H29   H     H_    0.663874 0.799355 0.668653 0.213585
C48   C     C_3   0.301203 0.127902 0.382466 -0.372634
C49   C     C_3   0.325960 0.141067 0.265175 -0.297345
C50   C     C_3   0.230699 0.224994 0.213645 -0.864699
H30   H     H_    0.136636 0.188811 0.221748 0.246226
H31   H     H_    0.236505 0.319599 0.250772 0.268084
H32   H     H_    0.248533 0.229166 0.128393 0.226953
H33   H     H_    0.418916 0.179203 0.255860 0.234558
H34   H     H_    0.322277 0.049795 0.222188 0.208279
H35   H     H_    0.213320 0.078824 0.389467 0.184962
H36   H     H_    0.283247 0.219886 0.421276 0.183901
H37   H     H_    0.208656 0.286433 0.650393 0.095000
H38   H     H_    0.810523 0.692505 0.321909 0.095941

loop_
_geom_bond_atom_site_label_1
_geom_bond_atom_site_label_2
_ccdc_geom_bond_type
Cu1   O1    S    
C32   H12   S    
C30   N1    T    
Cu2   O6    S    
C47   H23   S    
C49   H33   S    
C39   C41   A    
Cu1   Cu2   S    
C3    C43   A    
C1    O1    A    
C28   C29   S    
C19   C21   A    
C20   C25   A    
C43   C45   S    
C5    C36   S    
C6    C35   S    
C15   C17   A    
C19   C26   A    
C46   H27   S    
C7    C17   A    
C31   C33   A    
Cu1   O8    S    
C15   H5    S    
Cu2   O2    S    
C2    O4    A    
C19   H7    S    
C40   C42   A    
C33   H13   S    
C1    C22   S    
C9    H37   S    
C27   C30   S    
C34   H14   S    
C3    C24   S    
C2    O2    A    
C45   H28   S    
C45   H29   S    
C47   H24   S    
C28   H9    S    
Cu1   N1    S    
C20   H8    S    
C23   O5    A    
C50   H30   S    
C4    C23   S    
C27   H10   S    
C24   O6    A    
C4    C44   A    
C11   C26   S    
C8    C18   A    
C48   H35   S    
Cu1   O4    S    
C32   C34   A    
C46   H26   S    
C50   H31   S    
C2    C21   S    
C41   H1    S    
C42   H2    S    
C23   O7    A    
C10   H38   S    
C9    C11   A    
C10   C12   A    
C13   H3    S    
C24   O8    A    
C5    C44   A    
C20   C22   A    
C8    H22   S    
C6    C43   A    
C13   C15   A    
C14   C16   A    
C4    C6    A    
C47   H25   S    
C29   N2    T    
C7    C9    A    
C21   C25   A    
C31   C41   A    
C35   C37   A    
C8    C10   A    
C16   H6    S    
C12   C14   A    
C46   C47   S    
C3    C5    A    
Cu2   O7    S    
C37   H15   S    
C49   H34   S    
C18   H20   S    
C39   H17   S    
C12   C25   S    
C17   H19   S    
C40   H18   S    
C48   H36   S    
Cu1   O5    S    
C1    O3    A    
C31   H11   S    
C36   C38   A    
C37   C39   A    
C50   H32   S    
C38   C40   A    
C11   C13   A    
C49   C50   S    
C14   H4    S    
C33   C35   A    
C34   C36   A    
Cu2   N2    S    
C7    H21   S    
C45   C46   S    
C16   C18   A    
C22   C26   A    
C27   C28   D    
C32   C42   A    
C48   C49   S    
Cu2   O3    S    
C44   C48   S    
C38   H16   S    
