data_mof_unit_13756.cif
_audit_creation_date              2012-12-10T18:01:16-0500
_audit_creation_method            fapswitch 2.2
_symmetry_space_group_name_H-M    P1
_symmetry_Int_Tables_number       1
_space_group_crystal_system       triclinic
_cell_length_a                    9.58583
_cell_length_b                    10.809461
_cell_length_c                    17.367867
_cell_angle_alpha                 91.479128
_cell_angle_beta                  86.686177
_cell_angle_gamma                 90.983701
_cell_volume                      1795.78830891

loop_
_atom_site_label
_atom_site_type_symbol
_atom_type_description
_atom_site_fract_x
_atom_site_fract_y
_atom_site_fract_z
_atom_type_partial_charge
C1    C     C_R   0.500759 0.737699 0.500252 0.788023
C2    C     C_R   0.499241 0.262301 0.499748 0.788023
C3    C     C_R   0.622412 0.937139 0.476703 -0.191099
C4    C     C_R   0.377588 0.062861 0.523297 -0.191097
C5    C     C_R   0.621417 0.065140 0.476323 -0.175314
C6    C     C_R   0.378583 0.934860 0.523677 -0.175315
C7    C     C_R   0.498906 0.128345 0.499499 -0.016338
C8    C     C_R   0.501094 0.871655 0.500501 -0.016338
C9    C     C_R   0.925766 0.587409 0.542546 0.273062
C10   C     C_R   0.074234 0.412591 0.457454 0.273067
C11   C     C_R   0.073760 0.585848 0.542129 -0.064260
C12   C     C_R   0.926240 0.414152 0.457871 -0.064260
C13   C     C_R   0.482454 0.501868 0.649737 0.787106
C14   C     C_R   0.517546 0.498129 0.350263 0.787107
C15   C     C_R   0.474348 0.508537 0.733996 -0.029112
C16   C     C_R   0.525654 0.491444 0.266004 -0.029111
C17   C     C_R   0.597383 0.520030 0.773697 -0.209304
C18   C     C_R   0.402627 0.479884 0.226303 -0.209304
C19   C     C_R   0.590648 0.527429 0.853634 -0.145776
C20   C     C_R   0.409368 0.472459 0.146366 -0.145784
C21   C     C_R   0.460673 0.521796 0.895072 0.193573
C22   C     C_R   0.539338 0.478132 0.104930 0.193563
C23   C     C_R   0.337560 0.513773 0.855597 -0.171976
C24   C     C_R   0.662445 0.486224 0.144405 -0.171968
C25   C     C_R   0.344174 0.506616 0.775403 -0.194529
C26   C     C_R   0.655826 0.493408 0.224598 -0.194534
C27   C     C_2   0.450581 0.524285 0.979507 -0.230188
C28   C     C_2   0.549431 0.475627 0.020496 -0.230200
Cu1   Cu    Cu3+1 0.359340 0.499980 0.500000 0.940539
Cu2   Cu    Cu3+1 0.640660 0.500020 0.500000 0.940537
H1    H     H_    0.699047 0.524004 0.743144 0.152929
H2    H     H_    0.300967 0.475875 0.256856 0.152919
H3    H     H_    0.752334 0.500981 0.253997 0.152483
H4    H     H_    0.247660 0.499097 0.746005 0.152477
H5    H     H_    0.642375 0.435653 0.991857 0.144776
H6    H     H_    0.357639 0.564259 0.008148 0.144780
H7    H     H_    0.236494 0.510781 0.886907 0.121568
H8    H     H_    0.763508 0.489251 0.113095 0.121574
H9    H     H_    0.312862 0.460992 0.117401 0.122365
H10   H     H_    0.687164 0.538848 0.882597 0.122352
H11   H     H_    0.717060 0.889659 0.457273 0.142580
H12   H     H_    0.282940 0.110341 0.542727 0.142581
H13   H     H_    0.715989 0.114466 0.457221 0.142065
H14   H     H_    0.284012 0.885534 0.542779 0.142065
H15   H     H_    0.130123 0.654608 0.575085 0.133916
H16   H     H_    0.869877 0.345392 0.424915 0.133919
N1    N     N_R   0.147930 0.499970 0.499980 -0.175226
N2    N     N_R   0.852070 0.500030 0.500020 -0.175227
O1    O     O_R   0.381260 0.680340 0.500000 -0.588031
O2    O     O_R   0.618740 0.319660 0.500000 -0.588033
O3    O     O_R   0.618830 0.680370 0.500010 -0.583035
O4    O     O_R   0.381170 0.319630 0.499990 -0.583035
O5    O     O_R   0.367440 0.500000 0.613600 -0.585563
O6    O     O_R   0.632560 0.500000 0.386400 -0.585564
O7    O     O_R   0.605010 0.500030 0.613600 -0.589813
O8    O     O_R   0.394990 0.499970 0.386400 -0.589809
C29   C     C_3   0.856384 0.692402 0.587764 -0.811005
H17   H     H_    0.927015 0.734565 0.630037 0.174910
H18   H     H_    0.832225 0.766731 0.548209 0.230680
H19   H     H_    0.762438 0.662713 0.622019 0.260018
C30   C     C_3   0.143616 0.307597 0.412236 -0.811014
H20   H     H_    0.072985 0.265435 0.369963 0.174911
H21   H     H_    0.237561 0.337286 0.377982 0.260013
H22   H     H_    0.167774 0.233269 0.451791 0.230681

loop_
_geom_bond_atom_site_label_1
_geom_bond_atom_site_label_2
_ccdc_geom_bond_type
C22   C28   S    
C30   H22   S    
C24   H8    S    
Cu2   O3    S    
C13   O5    A    
Cu1   Cu2   S    
C2    O4    A    
Cu1   O8    S    
C23   H7    S    
C27   H6    S    
C1    C8    S    
C1    O3    A    
Cu2   O7    S    
C26   H3    S    
C14   O8    A    
C2    C7    S    
C25   H4    S    
C12   N2    A    
Cu2   O6    S    
C13   C15   S    
C21   C27   S    
C16   C18   A    
Cu1   O1    S    
C20   H9    S    
C16   C26   A    
C9    C11   A    
C29   H17   S    
C4    H12   S    
Cu1   N1    S    
C4    C7    A    
C17   H1    S    
C10   C12   A    
C22   C24   A    
C12   H16   S    
C14   O6    A    
C24   C26   A    
Cu1   O5    S    
C18   C20   A    
C21   C23   A    
C5    H13   S    
C30   H20   S    
Cu2   O2    S    
C14   C16   S    
C29   H18   S    
C4    C6    A    
C11   H15   S    
C19   H10   S    
C10   C30   S    
C3    C5    A    
C9    N2    A    
C10   N1    A    
C23   C25   A    
C18   H2    S    
C6    H14   S    
C15   C25   A    
C5    C7    A    
C3    C8    A    
Cu2   N2    S    
C27   C28   D    
C15   C17   A    
C9    C29   S    
C3    H11   S    
C29   H19   S    
C6    C8    A    
C2    O2    A    
C17   C19   A    
C19   C21   A    
C11   N1    A    
C30   H21   S    
C28   H5    S    
C20   C22   A    
C13   O7    A    
Cu1   O4    S    
C1    O1    A    
