data_mof_unit_42402.cif
_audit_creation_date              2012-12-10T18:19:13-0500
_audit_creation_method            fapswitch 2.2
_symmetry_space_group_name_H-M    P1
_symmetry_Int_Tables_number       1
_space_group_crystal_system       triclinic
_cell_length_a                    14.946418
_cell_length_b                    14.033088
_cell_length_c                    11.540711
_cell_angle_alpha                 90.137298
_cell_angle_beta                  90.124397
_cell_angle_gamma                 89.480211
_cell_volume                      2420.48734328

loop_
_atom_site_label
_atom_site_type_symbol
_atom_type_description
_atom_site_fract_x
_atom_site_fract_y
_atom_site_fract_z
_atom_type_partial_charge
C1    C     C_R   0.326934 0.500405 0.498723 0.935964
C2    C     C_R   0.455895 0.202749 0.585147 0.028897
C3    C     C_R   0.455021 0.798476 0.584391 0.051027
C4    C     C_R   0.542836 0.201512 0.413778 -0.001438
C5    C     C_R   0.453811 0.899343 0.587302 -0.103185
C6    C     C_R   0.544670 0.100686 0.411421 -0.097151
C7    C     C_R   0.545973 0.898101 0.412547 -0.107225
C8    C     C_R   0.454034 0.101948 0.587489 -0.106140
C9    C     C_R   0.499660 0.949430 0.499724 -0.021820
C10   C     C_R   0.499314 0.050607 0.499426 -0.030978
C11   C     C_R   0.408293 0.950954 0.674965 0.339401
C12   C     C_R   0.673217 0.499554 0.502656 0.955310
C13   C     C_R   0.590912 0.049116 0.324401 0.334205
C14   C     C_R   0.591757 0.948464 0.325124 0.341297
C15   C     C_R   0.408588 0.051612 0.675215 0.339529
C16   C     C_R   0.501287 0.499930 0.281791 0.895731
C17   C     C_R   0.499868 0.500078 0.718236 0.921863
C18   C     C_1   0.501127 0.499813 0.161411 -0.140670
C19   C     C_1   0.499894 0.500168 0.838608 -0.131753
C20   C     C_1   0.500654 0.499858 0.059296 0.041751
C21   C     C_1   0.500123 0.500036 0.940737 0.041808
C22   C     C_R   0.812688 0.556625 0.426518 -0.259321
C23   C     C_R   0.905259 0.560305 0.425701 0.042017
C24   C     C_R   0.188274 0.459050 0.591591 -0.264859
C25   C     C_R   0.768881 0.499420 0.506110 -0.168688
C26   C     C_R   0.231569 0.501708 0.499165 -0.179482
C27   C     C_R   0.815245 0.446098 0.589830 0.452505
C28   C     C_R   0.184886 0.546776 0.409330 0.474028
C29   C     C_R   0.908496 0.456494 0.597510 -0.052310
C30   C     C_R   0.091969 0.556485 0.418567 -0.051778
C31   C     C_R   0.953559 0.509014 0.511138 -0.011016
C32   C     C_R   0.047044 0.509347 0.509476 -0.019580
C33   C     C_3   0.789917 0.293736 0.660486 0.076480
C34   C     C_R   0.095567 0.461151 0.597423 0.048819
C35   C     C_3   0.706739 0.235983 0.631450 -0.314322
C36   C     C_3   0.724226 0.129204 0.644731 -0.868758
C37   C     C_3   0.217896 0.525001 0.215500 0.062170
C38   C     C_3   0.262508 0.426251 0.225338 -0.449461
C39   C     C_3   0.261871 0.373833 0.109333 -0.751259
C40   C     C_R   0.957363 0.416453 0.689510 -0.232129
C41   C     C_R   0.043469 0.612192 0.339383 -0.227333
C42   C     C_R   0.050199 0.417719 0.689643 0.403424
C43   C     C_R   0.950690 0.614370 0.342169 0.394895
C44   C     C_R   0.545033 0.797277 0.415671 0.053814
Cl1   Cl    Cl    0.106388 0.362643 0.806703 -0.590727
Cl2   Cl    Cl    0.894679 0.684214 0.237219 -0.523722
Cl3   Cl    Cl    0.350550 0.890492 0.786176 -0.490440
Cl4   Cl    Cl    0.648945 0.109624 0.213488 -0.509462
Cl5   Cl    Cl    0.650867 0.886414 0.215119 -0.459018
Cl6   Cl    Cl    0.351297 0.113708 0.786792 -0.484807
H1    H     H_    0.773422 0.596125 0.363533 0.219283
H2    H     H_    0.842565 0.276544 0.594864 0.135945
H3    H     H_    0.650631 0.257649 0.689189 0.254840
H4    H     H_    0.687642 0.250489 0.540381 0.235562
H5    H     H_    0.778236 0.105540 0.584948 0.277040
H6    H     H_    0.662526 0.089375 0.623595 0.267500
H7    H     H_    0.743820 0.112272 0.735335 0.287495
H8    H     H_    0.247933 0.563031 0.140977 0.203511
H9    H     H_    0.145824 0.516456 0.194418 0.155667
H10   H     H_    0.332473 0.434097 0.254673 0.240847
H11   H     H_    0.226448 0.382548 0.290062 0.230123
H12   H     H_    0.227969 0.424603 0.658366 0.216263
H13   H     H_    0.192064 0.364145 0.078607 0.294386
H14   H     H_    0.293836 0.302612 0.119611 0.281417
H15   H     H_    0.299873 0.414429 0.043517 0.258803
H16   H     H_    0.924040 0.383816 0.762092 0.204247
H17   H     H_    0.077452 0.653754 0.274179 0.217280
H18   H     H_    0.579913 0.755312 0.351122 0.185699
H19   H     H_    0.422207 0.244717 0.650722 0.188923
H20   H     H_    0.420333 0.757432 0.649103 0.183541
H21   H     H_    0.576585 0.242545 0.348238 0.188739
H22   H     H_    0.815322 0.270127 0.746400 0.186362
N1    N     N_R   0.500000 0.750030 0.500000 -0.132852
N2    N     N_R   0.500000 0.249970 0.500000 -0.139039
O1    O     O_R   0.367850 0.580280 0.500030 -0.581252
O2    O     O_3   0.231895 0.582431 0.315419 -0.631750
O3    O     O_R   0.632150 0.419720 0.499970 -0.617155
O4    O     O_R   0.632150 0.580280 0.499970 -0.620548
O5    O     O_R   0.367850 0.419720 0.500030 -0.631475
O6    O     O_R   0.500010 0.580270 0.334450 -0.602426
O7    O     O_R   0.499990 0.419730 0.665550 -0.622197
O8    O     O_R   0.499990 0.580270 0.665550 -0.617404
O9    O     O_R   0.500010 0.419730 0.334450 -0.627293
O10   O     O_3   0.767216 0.392095 0.668866 -0.638788
Zn1   Zn    Zn3+2 0.500000 0.607200 0.500000 1.004704
Zn2   Zn    Zn3+2 0.500000 0.392800 0.500000 0.957899

loop_
_geom_bond_atom_site_label_1
_geom_bond_atom_site_label_2
_ccdc_geom_bond_type
C27   C29   A    
C39   H15   S    
C11   Cl3   S    
C35   C36   S    
C34   C42   A    
C41   H17   S    
C33   H2    S    
C39   H14   S    
C37   C38   S    
C27   O10   S    
C19   C21   T    
C24   C26   A    
C5    C11   A    
C38   C39   S    
C14   Cl5   S    
C35   H3    S    
C23   C43   A    
C17   O8    A    
C15   Cl6   S    
C33   H22   S    
C33   C35   S    
C11   C15   A    
O1    Zn1   S    
C7    C14   A    
C22   C25   A    
C12   O4    A    
C30   C41   A    
C2    H19   S    
C9    C10   A    
C4    N2    A    
C37   H8    S    
C2    N2    A    
C38   H11   S    
C40   C42   A    
C40   H16   S    
C13   C14   A    
C35   H4    S    
C41   C43   A    
C43   Cl2   S    
C1    O1    A    
C3    H20   S    
C4    C6    A    
C36   H7    S    
C16   O9    A    
C24   C34   A    
C16   O6    A    
C42   Cl1   S    
C23   C31   A    
C5    C9    A    
O6    Zn1   S    
C36   H6    S    
C31   C32   A    
C12   O3    A    
C7    C44   A    
N2    Zn2   S    
N1    Zn1   S    
C37   H9    S    
C38   H10   S    
O4    Zn1   S    
C8    C10   A    
C37   O2    S    
O3    Zn2   S    
C8    C15   A    
C1    C26   S    
C1    O5    A    
C44   H18   S    
C28   O2    S    
C7    C9    A    
C24   H12   S    
C2    C8    A    
O7    Zn2   S    
C3    C5    A    
C6    C10   A    
C13   Cl4   S    
C25   C27   A    
O8    Zn1   S    
C39   H13   S    
C26   C28   A    
C17   O7    A    
C12   C25   S    
C28   C30   A    
C29   C31   A    
C36   H5    S    
C6    C13   A    
C30   C32   A    
C29   C40   A    
C17   C19   S    
C18   C20   T    
O5    Zn2   S    
C44   N1    A    
C3    N1    A    
C33   O10   S    
O9    Zn2   S    
C20   C21   S    
C16   C18   S    
C22   C23   A    
C4    H21   S    
C32   C34   A    
C22   H1    S    
