data_mof_unit_64437.cif
_audit_creation_date              2012-10-26T21:18:27-0400
_audit_creation_method            fapswitch 2.2
_symmetry_space_group_name_H-M    P1
_symmetry_Int_Tables_number       1
_space_group_crystal_system       triclinic
_cell_length_a                    10.465792
_cell_length_b                    11.731231
_cell_length_c                    17.197639
_cell_angle_alpha                 89.994597
_cell_angle_beta                  86.935971
_cell_angle_gamma                 90.006122
_cell_volume                      2108.44952466

loop_
_atom_site_label
_atom_site_type_symbol
_atom_type_description
_atom_site_fract_x
_atom_site_fract_y
_atom_site_fract_z
_atom_type_partial_charge
C1    C     C_R   0.500004 0.716688 0.500003 0.551588
C2    C     C_R   0.515209 0.503917 0.349381 0.549279
C3    C     C_R   0.480753 0.480147 0.734980 -0.008397
C4    C     C_R   0.519247 0.519855 0.265020 -0.008396
C5    C     C_R   0.585581 0.428910 0.768611 -0.144865
C6    C     C_R   0.414421 0.571096 0.231389 -0.144865
C7    C     C_R   0.585948 0.414511 0.848567 -0.129240
C8    C     C_R   0.414055 0.585496 0.151434 -0.129243
C9    C     C_R   0.482637 0.452704 0.896153 0.112805
C10   C     C_R   0.517365 0.547303 0.103847 0.112802
C11   C     C_R   0.373700 0.500181 0.863074 0.171504
C12   C     C_R   0.499996 0.283312 0.499997 0.551587
C13   C     C_R   0.626301 0.499823 0.136927 0.171506
C14   C     C_R   0.374055 0.513760 0.782086 -0.109240
C15   C     C_R   0.625945 0.486241 0.217914 -0.109239
C16   C     C_2   0.496867 0.451061 0.980179 0.382805
C17   C     C_2   0.503136 0.548946 0.019821 0.382804
C18   C     C_3   0.196570 0.453522 0.956625 -0.290098
C19   C     C_3   0.803438 0.546489 0.043383 -0.290108
C20   C     C_1   0.500010 0.838060 0.499994 -0.009409
C21   C     C_1   0.499990 0.161939 0.500006 -0.009409
C22   C     C_1   0.500005 0.940271 0.499995 -0.026097
C23   C     C_1   0.499995 0.059729 0.500004 -0.026097
C24   C     C_1   0.927945 0.499999 0.499996 0.104444
C25   C     C_1   0.072055 0.500000 0.500004 0.104444
C26   C     C_R   0.484791 0.496083 0.650619 0.549280
Cu1   Cu    Cu3+1 0.374700 0.500000 0.500000 1.002638
Cu2   Cu    Cu3+1 0.625300 0.500000 0.500000 1.002638
F1    F     F_    0.487102 0.651060 0.983974 -0.645102
F2    F     F_    0.512900 0.348948 0.016027 -0.645103
H1    H     H_    0.667998 0.400456 0.733017 0.142541
H2    H     H_    0.244763 0.369030 0.954031 0.179369
H3    H     H_    0.791098 0.401694 0.114435 0.258896
H4    H     H_    0.900970 0.556900 0.064943 0.128216
H5    H     H_    0.755233 0.630975 0.045968 0.179375
H6    H     H_    0.812270 0.518155 0.981764 0.157607
H7    H     H_    0.332004 0.599550 0.266983 0.142540
H8    H     H_    0.707690 0.447911 0.243867 0.123818
H9    H     H_    0.292309 0.552087 0.756133 0.123819
H10   H     H_    0.330624 0.622228 0.126316 0.145014
H11   H     H_    0.669380 0.377782 0.873684 0.145016
H12   H     H_    0.208900 0.598309 0.885565 0.258894
H13   H     H_    0.099026 0.443123 0.935081 0.128211
H14   H     H_    0.187769 0.481852 0.018246 0.157611
N1    N     N_1   0.813590 0.500000 0.499990 -0.190331
N2    N     N_1   0.186410 0.500000 0.500010 -0.190331
N3    N     N_2   0.266596 0.538876 0.910644 -0.487586
N4    N     N_2   0.733405 0.461130 0.089357 -0.487588
O1    O     O_R   0.394190 0.662800 0.500010 -0.490528
O2    O     O_R   0.605810 0.337200 0.499990 -0.490528
O3    O     O_R   0.605810 0.662800 0.499990 -0.485622
O4    O     O_R   0.394190 0.337200 0.500010 -0.485622
O5    O     O_R   0.381920 0.500000 0.613600 -0.496804
O6    O     O_R   0.618080 0.500000 0.386400 -0.496805
O7    O     O_R   0.593540 0.500000 0.613600 -0.497199
O8    O     O_R   0.406460 0.500000 0.386400 -0.497199

loop_
_geom_bond_atom_site_label_1
_geom_bond_atom_site_label_2
_ccdc_geom_bond_type
C13   N4    S    
C2    C4    S    
Cu1   O5    S    
C15   H8    S    
C18   H14   S    
C9    C11   A    
C12   O2    A    
H12   N3    S    
C26   O7    A    
C4    C15   A    
C7    H11   S    
C11   N3    S    
C6    H7    S    
C10   C13   A    
C19   H5    S    
C18   H13   S    
C18   N3    S    
C1    O3    A    
C3    C14   A    
Cu2   O2    S    
C6    C8    A    
C24   N1    T    
C12   C21   S    
Cu1   N2    S    
C4    C6    A    
C11   C14   A    
C9    C16   S    
C20   C22   T    
C5    C7    A    
C19   H6    S    
C13   C15   A    
C21   C23   T    
Cu1   O4    S    
Cu2   O3    S    
Cu2   N1    S    
C18   H2    S    
C10   C17   S    
C16   F2    S    
C26   O5    A    
C3    C5    A    
C17   F1    S    
C24   C25   S    
C8    C10   A    
C2    O6    A    
Cu1   Cu2   S    
C7    C9    A    
H3    N4    S    
Cu2   O6    S    
Cu1   O8    S    
C1    C20   S    
C2    O8    A    
C8    H10   S    
C12   O4    A    
C14   H9    S    
C22   C23   S    
C1    O1    A    
C25   N2    T    
Cu2   O7    S    
C3    C26   S    
Cu1   O1    S    
C19   N4    S    
C16   C17   D    
C5    H1    S    
C19   H4    S    
