data_mof_unit_17387.cif
_audit_creation_date              2013-03-05T16:10:41-0500
_audit_creation_method            fapswitch 2.2
_symmetry_space_group_name_H-M    P1
_symmetry_Int_Tables_number       1
_space_group_crystal_system       triclinic
_cell_length_a                    9.854084
_cell_length_b                    10.713128
_cell_length_c                    15.375435
_cell_angle_alpha                 89.96177
_cell_angle_beta                  67.296112
_cell_angle_gamma                 90.007439
_cell_volume                      1497.37924055

loop_
_atom_site_label
_atom_site_type_symbol
_atom_site_description
_atom_site_fract_x
_atom_site_fract_y
_atom_site_fract_z
_atom_type_partial_charge
O1    O     O_R   0.385370 0.683250 0.500010 -0.632835
O2    O     O_R   0.614630 0.316750 0.499990 -0.623605
O3    O     O_R   0.614700 0.683220 0.500000 -0.632444
O4    O     O_R   0.385300 0.316780 0.500000 -0.632906
C1    C     C_R   0.500062 0.740095 0.499978 0.866062
C2    C     C_R   0.500068 0.259918 0.499806 0.884288
O5    O     O_R   0.319830 0.500020 0.632250 -0.560446
O6    O     O_R   0.680170 0.499980 0.367750 -0.554690
O7    O     O_R   0.549160 0.499990 0.632240 -0.612788
O8    O     O_R   0.450840 0.500010 0.367760 -0.573515
C3    C     C_R   0.407060 0.499810 0.676965 0.900888
C4    C     C_R   0.592892 0.495320 0.323208 0.895766
Zn1   Zn    Zn3+2 0.346870 0.500020 0.500000 1.033282
Zn2   Zn    Zn3+2 0.653130 0.499980 0.500000 1.021701
C5    C     C_R   0.345147 0.493987 0.780462 -0.209339
C6    C     C_R   0.651709 0.467520 0.221766 -0.198161
C7    C     C_R   0.154425 0.532269 0.934682 -0.222913
C8    C     C_R   0.795545 0.338671 0.087905 -0.228159
C9    C     C_R   0.198182 0.527043 0.836798 0.329827
C10   C     C_R   0.771661 0.385304 0.177786 0.289567
C11   C     C_R   0.439596 0.456671 0.823886 -0.177082
C12   C     C_R   0.561643 0.500321 0.174411 -0.192956
C13   C     C_R   0.391780 0.448819 0.921796 0.123301
C14   C     C_R   0.568165 0.435001 0.094285 0.122296
C15   C     C_R   0.251738 0.497563 0.976952 0.023123
C16   C     C_R   0.693799 0.361699 0.046503 0.039747
C17   C     C_R   0.485890 0.405480 0.965583 -0.072673
C18   C     C_R   0.454278 0.442993 0.059750 -0.086362
C19   C     C_R   0.308893 0.483891 0.116116 0.323990
C20   C     C_R   0.609933 0.326573 0.919536 0.311158
C21   C     C_R   0.210335 0.511223 0.073637 -0.200165
C22   C     C_R   0.712411 0.306893 0.960565 -0.195499
H1    H     H_    0.100862 0.544133 0.116344 0.205482
H2    H     H_    0.805161 0.245397 0.926324 0.196985
H3    H     H_    0.479380 0.571669 0.204932 0.186357
H4    H     H_    0.553516 0.438261 0.780493 0.200987
H5    H     H_    0.044166 0.563640 0.977715 0.175985
H6    H     H_    0.889273 0.278481 0.052805 0.189138
C23   C     C_R   0.632936 0.936118 0.478516 -0.164811
C24   C     C_R   0.367469 0.063932 0.520646 -0.158241
H7    H     H_    0.736383 0.887382 0.461445 0.164941
H8    H     H_    0.263999 0.112645 0.537740 0.166776
C25   C     C_R   0.632973 0.064017 0.478318 -0.124145
C26   C     C_R   0.367444 0.936056 0.520797 -0.156108
H9    H     H_    0.736450 0.112803 0.461065 0.168225
H10   H     H_    0.263960 0.887310 0.537992 0.161278
C27   C     C_R   0.500197 0.127483 0.499532 -0.021110
C28   C     C_R   0.500152 0.872564 0.499799 -0.025245
C29   C     C_R   0.945253 0.397058 0.471633 0.056692
C30   C     C_R   0.054358 0.602634 0.529032 0.011595
H11   H     H_    0.905288 0.314804 0.448360 0.144577
H12   H     H_    0.094215 0.684728 0.552568 0.134030
C31   C     C_R   0.088572 0.396867 0.472170 0.054221
C32   C     C_R   0.910649 0.602574 0.529076 -0.039137
H13   H     H_    0.156156 0.314277 0.449643 0.144880
H14   H     H_    0.842430 0.684669 0.552605 0.136529
N1    N     N_R   0.142780 0.500030 0.500020 -0.083951
N2    N     N_R   0.857220 0.499970 0.499980 -0.087902
N3    N     N_R   0.862341 0.340027 0.224993 0.196892
O9    O     O_R   0.931849 0.417881 0.257829 -0.355751
O10   O     O_R   0.896898 0.222269 0.219867 -0.384491
N4    N     N_R   0.093838 0.559687 0.796593 0.203399
O11   O     O_R   0.042665 0.473189 0.758149 -0.367502
O12   O     O_R   0.024841 0.665831 0.818379 -0.387238
N5    N     N_R   0.252372 0.480054 0.217149 0.214947
O13   O     O_R   0.271343 0.380548 0.259690 -0.383209
O14   O     O_R   0.168162 0.569255 0.266577 -0.385264
N6    N     N_R   0.622619 0.251419 0.839281 0.193851
O15   O     O_R   0.507724 0.194037 0.836800 -0.368161
O16   O     O_R   0.751591 0.226077 0.775161 -0.373959

loop_
_geom_bond_atom_site_label_1
_geom_bond_atom_site_label_2
_geom_bond_distance
_ccdc_geom_bond_type
C15   C21   1.389212 A    
C24   C27   1.396877 A    
C30   H12   1.081086 S    
O7    Zn2   1.890955 S    
C21   H1    1.082961 S    
C16   C22   1.392219 A    
N4    O11   1.301185 A    
C13   C17   1.417908 A    
C25   H9    1.083577 S    
C19   N5    1.434241 S    
N4    O12   1.300938 A    
C8    C16   1.401378 A    
C6    C10   1.419255 A    
O6    C4    1.290703 A    
C7    C15   1.400366 A    
O3    C1    1.283686 A    
C3    C5    1.469282 S    
C24   H8    1.083730 S    
C8    H6    1.084406 S    
O2    Zn2   1.999255 S    
N3    O9    1.298862 A    
C19   C21   1.394645 A    
C11   H4    1.079952 S    
C30   C32   1.415868 A    
C10   N3    1.435563 S    
C20   C22   1.397781 A    
C12   H3    1.081000 S    
O7    C3    1.300120 A    
O2    C2    1.283521 A    
O3    Zn2   1.999315 S    
O8    C4    1.300404 A    
C29   C31   1.415489 A    
O1    C1    1.283578 A    
C12   C14   1.397009 A    
N6    O16   1.301572 A    
C18   C19   1.427491 A    
C7    C9    1.397603 A    
C14   C16   1.409973 A    
O5    C3    1.291411 A    
C8    C10   1.401676 A    
C31   H13   1.081150 S    
C11   C13   1.395564 A    
C23   C25   1.370203 A    
Zn2   N2    2.011001 S    
C1    C28   1.419152 S    
C32   H14   1.081263 S    
C5    C11   1.396876 A    
N3    O10   1.301236 A    
O1    Zn1   1.999255 S    
C2    C27   1.418801 S    
C7    H5    1.084742 S    
C9    N4    1.432525 S    
C4    C6    1.469754 S    
C24   C26   1.369952 A    
C13   C15   1.411965 A    
Zn1   N1    2.011002 S    
C23   H7    1.083707 S    
C14   C18   1.417289 A    
O4    C2    1.283619 A    
N5    O13   1.301035 A    
C32   N2    1.366717 A    
C17   C18   1.416865 A    
C31   N1    1.366452 A    
C17   C20   1.429331 A    
C23   C28   1.397020 A    
C6    C12   1.392782 A    
O5    Zn1   1.946144 S    
O6    Zn2   1.946145 S    
N5    O14   1.301432 A    
C5    C9    1.416056 A    
C30   N1    1.366494 A    
C25   C27   1.397014 A    
C20   N6    1.438327 S    
C29   N2    1.366395 A    
C26   C28   1.397011 A    
O4    Zn1   1.999315 S    
C26   H10   1.083534 S    
N6    O15   1.301690 A    
C29   H11   1.081090 S    
O8    Zn1   1.890958 S    
C22   H2    1.084306 S    
