data_mof_unit_62602.cif
_audit_creation_date              2012-10-26T18:57:01-0400
_audit_creation_method            fapswitch 2.2
_symmetry_space_group_name_H-M    P1
_symmetry_Int_Tables_number       1
_space_group_crystal_system       triclinic
_cell_length_a                    23.558832
_cell_length_b                    15.905778
_cell_length_c                    14.614679
_cell_angle_alpha                 90.028818
_cell_angle_beta                  89.773244
_cell_angle_gamma                 90.008772
_cell_volume                      5476.39154932

loop_
_atom_site_label
_atom_site_type_symbol
_atom_type_description
_atom_site_fract_x
_atom_site_fract_y
_atom_site_fract_z
_atom_type_partial_charge
C1    C     C_R   0.500005 0.339504 0.499966 0.548395
C2    C     C_R   0.703053 0.500644 0.416558 0.377764
C3    C     C_R   0.237769 0.499190 0.582115 -0.001705
C4    C     C_R   0.762230 0.500865 0.417885 -0.001703
C5    C     C_R   0.208682 0.499324 0.498824 0.175990
C6    C     C_R   0.791318 0.500679 0.501174 0.175973
C7    C     C_3   0.546972 0.971957 0.540186 0.372206
C8    C     C_3   0.453026 0.028043 0.459813 0.372204
C9    C     C_3   0.545284 0.028057 0.454501 0.373425
C10   C     C_3   0.454714 0.971943 0.545498 0.373426
C11   C     C_1   0.500005 0.250076 0.499961 0.056705
C12   C     C_R   0.499995 0.660496 0.500034 0.548409
C13   C     C_1   0.499993 0.749923 0.500039 0.056716
C14   C     C_3   0.501719 0.027687 0.587268 0.047759
C15   C     C_3   0.498278 0.972312 0.412732 0.047759
C16   C     C_R   0.390590 0.499940 0.500261 0.571732
C17   C     C_R   0.609410 0.500061 0.499739 0.571733
C18   C     C_3   0.500016 0.083378 0.500763 -0.084913
C19   C     C_3   0.499982 0.916622 0.499237 -0.084913
C20   C     C_1   0.500008 0.174754 0.500171 0.084990
C21   C     C_1   0.499991 0.825246 0.499829 0.084995
C22   C     C_3   0.484824 0.576248 0.969338 -0.094196
C23   C     C_R   0.239133 0.499756 0.416420 -0.065999
C24   C     C_3   0.515176 0.423752 0.030662 -0.094202
C25   C     C_3   0.447824 0.518643 0.031135 -0.100770
C26   C     C_3   0.552175 0.481357 0.968865 -0.100773
C27   C     C_3   0.536992 0.557602 0.030607 -0.092144
C28   C     C_3   0.463008 0.442398 0.969393 -0.092147
C29   C     C_3   0.499993 0.499997 0.091278 0.008562
C30   C     C_3   0.500007 0.500003 0.908722 0.008563
C31   C     C_1   0.499986 0.499999 0.194078 0.172753
C32   C     C_1   0.500014 0.500001 0.805922 0.172753
C33   C     C_R   0.880750 0.570292 0.470772 0.410605
C34   C     C_R   0.760867 0.500196 0.583579 -0.065997
C35   C     C_R   0.119251 0.429713 0.529230 0.410610
C36   C     C_R   0.880511 0.431177 0.532568 0.413633
C37   C     C_R   0.119490 0.568825 0.467426 0.413635
C38   C     C_R   0.940049 0.429471 0.532660 0.029725
C39   C     C_R   0.059952 0.570532 0.467336 0.029722
C40   C     C_R   0.970048 0.500209 0.500484 -0.026172
C41   C     C_R   0.029953 0.499794 0.499514 -0.026173
C42   C     C_R   0.940286 0.571348 0.469236 0.030309
C43   C     C_R   0.059716 0.428656 0.530763 0.030306
C44   C     C_R   0.970161 0.358828 0.563613 -0.108226
C45   C     C_R   0.298305 0.499975 0.417232 -0.184980
C46   C     C_R   0.029841 0.641175 0.436384 -0.108226
C47   C     C_R   0.029378 0.358422 0.562668 -0.107435
C48   C     C_R   0.970623 0.641582 0.437332 -0.107433
C49   C     C_R   0.701695 0.499976 0.582767 -0.184985
C50   C     C_R   0.327930 0.499793 0.500626 0.013420
C51   C     C_R   0.672070 0.500209 0.499374 0.013419
C52   C     C_R   0.296946 0.499412 0.583442 0.377769
Cu1   Cu    Cu3+1 0.500010 0.500000 0.590220 1.084908
Cu2   Cu    Cu3+1 0.499990 0.500000 0.409780 1.084908
F1    F     F_    0.323470 0.499290 0.665729 -0.593581
F2    F     F_    0.676529 0.500822 0.334271 -0.593583
F3    F     F_    0.592522 0.057751 0.408311 -0.533216
F4    F     F_    0.407476 0.942249 0.591688 -0.533211
F5    F     F_    0.595921 0.942278 0.580833 -0.535829
F6    F     F_    0.404077 0.057722 0.419166 -0.535832
H1    H     H_    0.948101 0.303638 0.588630 0.182126
H2    H     H_    0.948740 0.697054 0.412960 0.182813
H3    H     H_    0.216874 0.499664 0.351734 0.160198
H4    H     H_    0.783126 0.500246 0.648264 0.160221
H5    H     H_    0.320812 0.500233 0.352478 0.155789
H6    H     H_    0.679188 0.499676 0.647520 0.155789
H7    H     H_    0.214323 0.499163 0.646007 0.166050
H8    H     H_    0.785676 0.500934 0.353992 0.166071
H9    H     H_    0.051901 0.696365 0.411365 0.182126
H10   H     H_    0.404634 0.534073 0.056707 0.138066
H11   H     H_    0.595365 0.465927 0.943293 0.138063
H12   H     H_    0.472263 0.639368 0.944166 0.150060
H13   H     H_    0.527737 0.360632 0.055833 0.150054
H14   H     H_    0.432387 0.394716 0.944259 0.151398
H15   H     H_    0.567613 0.605285 0.055741 0.151406
H16   H     H_    0.051261 0.302950 0.587040 0.182811
I1    I     I_    0.495559 0.929341 0.274382 -0.107861
I2    I     I_    0.504439 0.070659 0.725618 -0.107871
N1    N     N_R   0.852202 0.500839 0.501874 -0.398745
N2    N     N_R   0.147799 0.499164 0.498124 -0.398752
N3    N     N_1   0.499980 0.500000 0.274190 -0.172795
N4    N     N_1   0.500020 0.500000 0.725810 -0.172795
O1    O     O_R   0.500010 0.379080 0.576170 -0.493150
O2    O     O_2   0.148434 0.361763 0.558053 -0.463680
O3    O     O_2   0.851100 0.363525 0.562022 -0.465496
O4    O     O_2   0.148901 0.636474 0.437966 -0.465478
O5    O     O_R   0.499990 0.620920 0.423830 -0.493137
O6    O     O_R   0.500000 0.379080 0.423800 -0.486739
O7    O     O_R   0.500000 0.620920 0.576200 -0.486725
O8    O     O_R   0.417890 0.499980 0.576200 -0.418233
O9    O     O_R   0.582110 0.500020 0.423800 -0.418232
O10   O     O_R   0.417870 0.499970 0.423830 -0.523551
O11   O     O_R   0.582130 0.500030 0.576170 -0.523551
O12   O     O_2   0.851568 0.638245 0.441957 -0.463691

loop_
_geom_bond_atom_site_label_1
_geom_bond_atom_site_label_2
_ccdc_geom_bond_type
C30   C32   S    
C16   O8    A    
C23   C45   A    
C27   C29   S    
C14   C18   S    
C17   O9    A    
C28   H14   S    
C33   O12   S    
C17   C51   S    
C39   C41   A    
Cu1   Cu2   S    
C25   C28   S    
C38   C44   A    
C26   C27   S    
C33   C42   A    
C10   F4    S    
C16   C50   S    
C47   H16   S    
Cu2   O5    S    
C24   H13   S    
C35   N2    A    
C7    F5    S    
C24   C29   S    
C46   H9    S    
C15   C19   S    
C45   H5    S    
C7    C14   S    
C49   C51   A    
C22   C25   S    
C1    C11   S    
C50   C52   A    
C35   C43   A    
C18   C20   S    
C44   C47   A    
C1    O6    A    
C23   H3    S    
C26   H11   S    
C41   C43   A    
C27   H15   S    
C22   H12   S    
C25   C29   S    
C37   N2    A    
C46   C48   A    
C11   C20   T    
C49   H6    S    
Cu1   O11   S    
C12   O7    A    
C4    C6    A    
C10   C14   S    
C4    H8    S    
C33   N1    A    
C8    C18   S    
C6    C34   A    
Cu1   N4    S    
C2    C4    A    
Cu2   O10   S    
C37   O4    S    
C48   H2    S    
C5    C23   A    
C10   C19   S    
C3    C52   A    
C34   H4    S    
C13   C21   T    
C42   C48   A    
C5    N2    S    
C39   C46   A    
C8    C10   S    
C40   C41   A    
C16   O10   A    
C8    C15   S    
C7    C19   S    
C22   C27   S    
Cu1   O7    S    
C44   H1    S    
C17   O11   A    
C7    C9    S    
C34   C49   A    
C22   C30   S    
C12   O5    A    
C19   C21   S    
C3    H7    S    
C24   C28   S    
C24   C26   S    
C40   C42   A    
C3    C5    A    
C36   N1    A    
C35   O2    S    
C52   F1    S    
C26   C30   S    
C36   O3    S    
C1    O1    A    
C32   N4    T    
C31   N3    T    
Cu1   O1    S    
Cu2   O6    S    
C36   C38   A    
C9    C15   S    
Cu2   O9    S    
C29   C31   S    
C2    F2    S    
C8    F6    S    
C38   C40   A    
C6    N1    S    
C15   I1    S    
C45   C50   A    
C28   C30   S    
C9    F3    S    
C14   I2    S    
C2    C51   A    
C9    C18   S    
C12   C13   S    
C37   C39   A    
Cu1   O8    S    
C25   H10   S    
C43   C47   A    
Cu2   N3    S    
