data_mof_unit_43734.cif
_audit_creation_date              2012-12-10T17:04:20-0500
_audit_creation_method            fapswitch 2.2
_symmetry_space_group_name_H-M    P1
_symmetry_Int_Tables_number       1
_space_group_crystal_system       triclinic
_cell_length_a                    11.641574
_cell_length_b                    11.037774
_cell_length_c                    9.948956
_cell_angle_alpha                 112.158265
_cell_angle_beta                  96.172893
_cell_angle_gamma                 92.778889
_cell_volume                      1171.61397069

loop_
_atom_site_label
_atom_site_type_symbol
_atom_type_description
_atom_site_fract_x
_atom_site_fract_y
_atom_site_fract_z
_atom_type_partial_charge
C1    C     C_R   0.490843 0.253896 0.439053 0.780300
C2    C     C_R   0.507074 0.746139 0.560625 0.776266
C3    C     C_R   0.284680 0.500760 0.502545 0.809934
C4    C     C_R   0.715349 0.499818 0.497439 0.821081
C5    C     C_1   0.163289 0.502308 0.506059 -0.190143
C6    C     C_1   0.836759 0.499653 0.493424 -0.194524
C7    C     C_1   0.060265 0.502039 0.502648 -0.013199
C8    C     C_1   0.939773 0.500618 0.496298 -0.010564
C9    C     C_2   0.473027 0.112622 0.401753 0.199678
C10   C     C_2   0.516589 0.887590 0.595682 0.211608
C11   C     C_2   0.520713 0.061756 0.496332 0.307024
C12   C     C_2   0.474612 0.932489 0.492301 0.302881
C13   C     C_2   0.526079 0.465002 0.056369 0.122720
C14   C     C_2   0.484755 0.487319 0.917509 0.183668
Cu1   Cu    Cu3+1 0.519790 0.521810 0.644910 0.934345
Cu2   Cu    Cu3+1 0.480210 0.478190 0.355090 0.940464
H1    H     H_    0.626169 0.603641 0.925772 0.180787
H2    H     H_    0.365515 0.457357 0.111290 0.214170
N1    N     N_2   0.450460 0.445430 0.137370 -0.311604
N2    N     N_2   0.549540 0.554570 0.862630 -0.301739
O1    O     O_R   0.510560 0.332330 0.577400 -0.571276
O2    O     O_R   0.489440 0.667670 0.422600 -0.541694
O3    O     O_R   0.477140 0.295500 0.332650 -0.563599
O4    O     O_R   0.522860 0.704500 0.667350 -0.556305
O5    O     O_R   0.353910 0.518430 0.622380 -0.594113
O6    O     O_R   0.646090 0.481570 0.377620 -0.600193
O7    O     O_R   0.320490 0.481600 0.377630 -0.564624
O8    O     O_R   0.679510 0.518400 0.622370 -0.560399
O9    O     O_3   0.393714 0.853133 0.374860 -0.556019
C15   C     C_3   0.283104 0.859215 0.421538 -0.252754
H3    H     H_    0.217834 0.801848 0.325630 0.192146
H4    H     H_    0.259304 0.962131 0.465816 0.153717
H5    H     H_    0.278336 0.814624 0.504375 0.109835
O10   O     O_3   0.613260 0.132920 0.601090 -0.570655
C16   C     C_3   0.716465 0.106385 0.537324 -0.284909
H6    H     H_    0.729687 0.000082 0.500271 0.159410
H7    H     H_    0.790876 0.161942 0.620977 0.192212
H8    H     H_    0.717271 0.139474 0.444637 0.117316
O11   O     O_3   0.582223 0.969081 0.726292 -0.546559
C17   C     C_3   0.505965 0.036595 0.823800 -0.281379
H9    H     H_    0.445366 0.966869 0.845201 0.135047
H10   H     H_    0.456172 0.101984 0.782502 0.152208
H11   H     H_    0.558108 0.099855 0.929470 0.183354
O12   O     O_3   0.395196 0.038389 0.279095 -0.559079
C18   C     C_3   0.458931 0.977690 0.162668 -0.230459
H12   H     H_    0.517590 0.909686 0.186993 0.165520
H13   H     H_    0.509950 0.051974 0.136792 0.133110
H14   H     H_    0.397080 0.918431 0.063828 0.179011
C19   C     C_3   0.364470 0.420065 0.842414 -0.320307
C20   C     C_3   0.268720 0.514899 0.885050 -0.334549
C21   C     C_3   0.147988 0.440550 0.830571 -0.860322
H15   H     H_    0.138850 0.381023 0.711176 0.258347
H16   H     H_    0.133009 0.374136 0.888856 0.247489
H17   H     H_    0.081022 0.511363 0.852019 0.251840
H18   H     H_    0.275753 0.568106 0.005331 0.203202
H19   H     H_    0.276872 0.593417 0.842076 0.245729
H20   H     H_    0.360271 0.367501 0.723713 0.231171
H21   H     H_    0.344492 0.336212 0.874873 0.136354
C22   C     C_3   0.650757 0.435519 0.083259 -0.388057
C23   C     C_3   0.707691 0.366971 0.944743 -0.384043
C24   C     C_3   0.819768 0.312417 0.981257 -0.814923
H22   H     H_    0.880961 0.392287 0.064800 0.250604
H23   H     H_    0.800857 0.234729 0.023526 0.255198
H24   H     H_    0.862062 0.268906 0.881242 0.247200
H25   H     H_    0.646793 0.284864 0.865161 0.289542
H26   H     H_    0.730376 0.435926 0.892673 0.235805
H27   H     H_    0.704735 0.527376 0.156152 0.201033
H28   H     H_    0.649018 0.363132 0.135783 0.246664

loop_
_geom_bond_atom_site_label_1
_geom_bond_atom_site_label_2
_ccdc_geom_bond_type
C2    O2    A    
C24   H24   S    
C4    O6    A    
C11   C12   S    
C21   H15   S    
C1    O1    A    
O9    C15   S    
C13   C22   S    
C12   O9    S    
C20   H18   S    
C11   O10   S    
Cu1   O1    S    
C3    C5    S    
C21   H17   S    
C24   H22   S    
Cu2   O7    S    
C17   H10   S    
C20   C21   S    
C23   H26   S    
C22   C23   S    
C24   H23   S    
C13   C14   S    
C15   H4    S    
C9    C11   D    
Cu1   O8    S    
Cu1   N2    S    
C10   C12   D    
C23   C24   S    
Cu2   N1    S    
C3    O7    A    
C17   H9    S    
C16   H7    S    
C23   H25   S    
C1    O3    A    
Cu2   O3    S    
C18   H13   S    
C2    O4    A    
C15   H3    S    
C22   H28   S    
C19   C20   S    
Cu1   O5    S    
C14   C19   S    
C7    C8    S    
C13   N1    D    
Cu1   Cu2   S    
C2    C10   S    
C1    C9    S    
C14   N2    D    
C3    O5    A    
H1    N2    S    
C19   H20   S    
O12   C18   S    
C4    C6    S    
O10   C16   S    
C4    O8    A    
C18   H14   S    
O11   C17   S    
C5    C7    T    
H2    N1    S    
C16   H8    S    
Cu1   O4    S    
C9    O12   S    
C6    C8    T    
C15   H5    S    
C22   H27   S    
C18   H12   S    
C17   H11   S    
C20   H19   S    
C19   H21   S    
C16   H6    S    
Cu2   O2    S    
C10   O11   S    
C21   H16   S    
Cu2   O6    S    
