data_mof_unit_67287.cif
_audit_creation_date              2013-03-05T16:01:59-0500
_audit_creation_method            fapswitch 2.2
_symmetry_space_group_name_H-M    P1
_symmetry_Int_Tables_number       1
_space_group_crystal_system       triclinic
_cell_length_a                    8.25375
_cell_length_b                    14.559929
_cell_length_c                    15.250635
_cell_angle_alpha                 96.553428
_cell_angle_beta                  97.404744
_cell_angle_gamma                 92.09121
_cell_volume                      1803.13062129

loop_
_atom_site_label
_atom_site_type_symbol
_atom_site_description
_atom_site_fract_x
_atom_site_fract_y
_atom_site_fract_z
_atom_type_partial_charge
P1    P     P_3+3 0.018620 0.416870 0.295980 0.518023
O1    O     O_2   0.841250 0.444240 0.280450 -0.350856
O2    O     O_3   0.112870 0.447390 0.393710 -0.401506
O3    O     O_3   0.597960 0.615760 0.327700 -0.350591
O4    O     O_2   0.698419 0.548778 0.179372 -0.373356
O5    O     O_3   0.008740 0.296009 0.267538 -0.535397
O6    O     O_3   0.610746 0.718918 0.187463 -0.493285
H1    H     H_    0.434829 0.778687 0.257972 0.059862
C1    C     C_3   0.504023 0.865545 0.161235 -0.594381
H2    H     H_    0.548055 0.858077 0.095276 0.243769
P2    P     P_3+3 0.635650 0.716500 0.560900 0.459107
P3    P     P_3+3 0.038373 0.783063 0.371642 0.513903
O7    O     O_2   0.802240 0.729720 0.532850 -0.330162
O8    O     O_3   0.017190 0.664840 0.371090 -0.362583
O9    O     O_2   0.923195 0.826943 0.434621 -0.323867
O10   O     O_3   0.673956 0.740852 0.676652 -0.584531
O11   O     O_3   0.953457 0.814987 0.269746 -0.515301
C2    C     C_3   0.018322 0.765352 0.199625 0.336131
H3    H     H_    0.946461 0.698633 0.179099 0.153879
H4    H     H_    0.148663 0.751401 0.217383 -0.023719
C3    C     C_3   0.002731 0.824476 0.123355 -0.299814
H5    H     H_    0.874479 0.844628 0.108605 0.218056
C4    C     C_3   0.281474 0.758109 0.698075 0.485948
H6    H     H_    0.361867 0.716627 0.658278 0.079751
C5    C     C_3   0.380590 0.834191 0.764761 -0.231934
H7    H     H_    0.486956 0.860468 0.735571 0.151418
H8    H     H_    0.305731 0.894464 0.779547 0.157388
Ba1   Ba    Ba6+2 0.833410 0.543320 0.453520 1.593005
C6    C     C_3   0.950614 0.240195 0.327143 0.286030
H9    H     H_    0.820283 0.220506 0.304633 0.136620
C7    C     C_3   0.049453 0.153925 0.320992 -0.108612
H10   H     H_    0.179863 0.176004 0.340523 0.165390
C8    C     C_3   0.758374 0.668420 0.710945 0.414191
H11   H     H_    0.877828 0.665375 0.686209 0.138023
H12   H     H_    0.688704 0.600682 0.692209 0.107290
C9    C     C_3   0.785247 0.687182 0.811631 -0.870760
H13   H     H_    0.809358 0.762409 0.833427 0.309119
H14   H     H_    0.891085 0.650665 0.838980 0.228035
H15   H     H_    0.676650 0.660848 0.838638 0.250297
P4    P     P_3+3 0.171070 0.583210 0.704020 0.476741
O12   O     O_2   0.348460 0.555790 0.719610 -0.379765
O13   O     O_3   0.076820 0.552690 0.606290 -0.399039
O14   O     O_3   0.591740 0.384320 0.672310 -0.368785
O15   O     O_3   0.178092 0.703848 0.740043 -0.552462
P5    P     P_3+3 0.141988 0.216687 0.638006 0.486340
O16   O     O_3   0.629090 0.386360 0.459240 -0.393891
O17   O     O_3   0.172500 0.335240 0.628910 -0.324268
O18   O     O_2   0.251305 0.168496 0.573304 -0.378912
O19   O     O_3   0.243114 0.204765 0.743744 -0.470571
Ba2   Ba    Ba6+2 0.356410 0.456750 0.546480 1.583147
P6    P     P_3+3 0.561654 0.607856 0.212627 0.467682
C10   C     C_3   0.470844 0.770592 0.189724 0.274584
H16   H     H_    0.368807 0.736493 0.141326 0.090165
H17   H     H_    0.389744 0.903618 0.156476 0.184108
O20   O     O_3   0.560600 0.613720 0.540760 -0.403941
C11   C     C_3   0.484012 0.310778 0.277872 0.271302
H18   H     H_    0.376574 0.342124 0.304402 0.059890
H19   H     H_    0.584515 0.364554 0.286036 0.125631
C12   C     C_3   0.434423 0.274897 0.178199 -0.111249
H20   H     H_    0.300610 0.257707 0.165578 0.155240
P7    P     P_3+3 0.564048 0.268203 0.439563 0.428864
O21   O     O_2   0.387470 0.270310 0.467210 -0.353168
O22   O     O_3   0.535847 0.236977 0.324131 -0.583116
H21   H     H_    0.084378 0.887662 0.141943 0.193417
C13   C     C_3   0.179206 0.126507 0.776172 0.198268
H22   H     H_    0.045312 0.130768 0.776964 0.044220
H23   H     H_    0.205466 0.062462 0.734382 0.086319
C14   C     C_3   0.262916 0.123745 0.871366 -0.361108
H24   H     H_    0.396280 0.117823 0.870864 0.174216
P8    P     P_3+3 0.630911 0.394068 0.788102 0.499077
C15   C     C_3   0.683455 0.217920 0.794888 0.415411
H25   H     H_    0.786203 0.243976 0.762235 0.000046
O23   O     O_2   0.503874 0.458276 0.823430 -0.382384
O24   O     O_3   0.582004 0.287797 0.824712 -0.486178
C16   C     C_3   0.757504 0.171442 0.876185 -0.625519
H26   H     H_    0.674741 0.176858 0.928271 0.256466
H27   H     H_    0.875226 0.208664 0.904709 0.205453
C17   C     C_R   0.352364 0.556558 0.165199 0.120242
H28   H     H_    0.309162 0.537436 0.298491 0.178482
C18   C     C_R   0.114002 0.472679 0.204723 0.269747
C19   C     C_R   0.933203 0.471041 0.765414 -0.484511
C20   C     C_R   0.837316 0.444793 0.828131 0.220041
C21   C     C_R   0.893589 0.461851 0.919345 -0.271956
C22   C     C_R   0.056529 0.493747 0.950886 0.101039
C23   C     C_R   0.146397 0.529303 0.886108 -0.003253
C24   C     C_R   0.127502 0.498725 0.044818 -0.001937
C25   C     C_R   0.285808 0.545824 0.072092 -0.046760
C26   C     C_R   0.371491 0.577535 0.004262 -0.040302
C27   C     C_R   0.297731 0.573481 0.916500 -0.049499
C28   C     C_R   0.054115 0.453300 0.111553 0.070831
C29   C     C_R   0.259812 0.525997 0.228667 -0.524684
C30   C     C_R   0.081893 0.520472 0.792142 0.270120
H29   H     H_    0.884365 0.460915 0.695493 0.156975
H30   H     H_    0.805334 0.453926 0.964297 0.183931
H31   H     H_    0.365282 0.603899 0.870512 0.187431
C31   C     C_R   0.697520 0.937352 0.555611 -0.144039
C32   C     C_R   0.507832 0.798504 0.502841 0.235333
C33   C     C_R   0.357139 0.763171 0.455599 -0.426170
C34   C     C_R   0.250987 0.821241 0.412490 0.249675
C35   C     C_R   0.301673 0.910967 0.407389 -0.309723
C36   C     C_R   0.453487 0.948743 0.452045 0.050866
C37   C     C_R   0.553928 0.894436 0.505207 -0.010250
H32   H     H_    0.317853 0.691710 0.457142 0.172327
C38   C     C_R   0.639151 0.086337 0.498539 -0.031413
C39   C     C_R   0.739276 0.032112 0.553914 0.101298
C40   C     C_R   0.676099 0.184495 0.507234 0.204526
C41   C     C_R   0.804247 0.222395 0.572338 -0.425654
C42   C     C_R   0.925796 0.167047 0.606466 0.160191
C43   C     C_R   0.887299 0.071953 0.602280 -0.298585
C44   C     C_R   0.505470 0.039210 0.441046 -0.020368
H33   H     H_    0.219432 0.951621 0.368932 0.161705
H34   H     H_    0.975155 0.027998 0.632498 0.149479
H35   H     H_    0.818809 0.296465 0.589469 0.157218
H36   H     H_    0.775461 0.898522 0.598553 0.184082
I1    I     I_    0.460625 0.802168 0.894908 -0.398503
C45   C     C_1   0.969306 0.286978 0.417380 0.067469
N1    N     N_1   0.985646 0.332345 0.484898 0.011197
I2    I     I_    0.016639 0.087900 0.186082 -0.343799
C46   C     C_1   0.005834 0.086352 0.378751 0.047509
N2    N     N_1   0.974314 0.031545 0.423733 -0.022968
C47   C     C_1   0.627651 0.919140 0.225803 0.353076
N3    N     N_1   0.725074 0.961558 0.277108 -0.032373
C48   C     C_1   0.474866 0.343396 0.120542 0.128865
N4    N     N_1   0.509357 0.394562 0.072529 -0.026664
I3    I     I_    0.554048 0.154479 0.129607 -0.325114
C49   C     C_1   0.235751 0.209533 0.926427 0.296596
N5    N     N_1   0.213498 0.278054 0.968276 -0.075149
C50   C     C_1   0.200974 0.044421 0.910745 0.146701
N6    N     N_1   0.153174 0.981943 0.942404 0.012520
C51   C     C_1   0.582068 0.150379 0.729593 0.163029
N7    N     N_1   0.503539 0.095318 0.679785 -0.062414
C52   C     C_1   0.788813 0.072681 0.855744 0.143348
N8    N     N_1   0.811438 0.995024 0.839174 -0.046537
C53   C     C_1   0.541686 0.608859 0.015333 0.233521
N9    N     N_1   0.677928 0.633620 0.020698 -0.029089
I4    I     I_    0.896986 0.331018 0.075734 -0.345036
C54   C     C_1   0.444837 0.065765 0.355737 0.145136
N10   N     N_1   0.391369 0.077703 0.284483 -0.024997
I5    I     I_    0.069429 0.754316 0.005751 -0.450163
I6    I     I_    0.127296 0.836473 0.617993 -0.419406

loop_
_geom_bond_atom_site_label_1
_geom_bond_atom_site_label_2
_geom_bond_distance
_ccdc_geom_bond_type
C17   C25   1.443772 A    
C38   C44   1.419548 A    
C31   C39   1.413769 A    
C49   N5    1.155255 T    
C31   C37   1.409773 A    
C2    C3    1.519408 S    
C25   C26   1.434272 A    
C50   N6    1.157339 T    
C38   C40   1.437925 A    
C32   C33   1.403017 A    
C48   N4    1.155397 T    
C45   N1    1.147702 T    
C13   H22   1.110660 S    
Ba1   O16   2.806500 S    
C36   C37   1.410932 A    
O19   C13   1.404677 S    
C21   C22   1.411524 A    
C9    H13   1.110725 S    
C22   C24   1.468817 A    
O6    C10   1.402984 S    
C2    H3    1.110911 S    
C5    I1    2.118751 S    
H1    C10   1.113492 S    
C40   C41   1.403815 A    
C33   H32   1.082220 S    
C8    C9    1.514488 S    
C19   H29   1.081800 S    
C42   C43   1.401626 A    
P1    O1    1.527367 D    
P7    O22   1.750391 S    
C41   H35   1.078851 S    
C3    H21   1.107627 S    
C19   C30   1.389213 A    
Ba1   Ba2   4.536879 S    
O2    Ba2   2.861416 S    
C34   C35   1.370933 A    
C11   H19   1.104716 S    
C14   H24   1.108194 S    
C13   H23   1.112387 S    
P3    O11   1.740691 S    
P8    O24   1.754570 S    
P1    Ba1   3.411938 S    
C1    C47   1.458524 S    
C4    H6    1.105808 S    
O7    Ba1   2.877018 S    
C1    H2    1.108127 S    
C14   C50   1.466387 S    
H28   C29   1.081821 S    
C32   C37   1.429388 A    
P5    C42   1.882304 S    
P4    O13   1.596491 S    
C12   H20   1.110655 S    
C3    H5    1.110670 S    
C31   H36   1.079280 S    
C1    C10   1.521594 S    
C38   C39   1.428067 A    
O3    Ba1   2.867288 S    
Ba1   O20   2.918958 S    
C19   C20   1.394187 A    
O17   Ba2   2.796069 S    
P5    O17   1.759011 S    
C12   C48   1.459735 S    
O16   P7    1.763841 S    
P1    O5    1.759997 S    
C4    I6    2.106239 S    
C22   C23   1.439348 A    
C24   C28   1.457206 A    
C43   H34   1.078348 S    
C23   C27   1.383055 A    
C24   C25   1.442202 A    
C52   N8    1.157377 T    
O3    P6    1.731668 S    
C36   C44   1.405335 A    
C21   H30   1.074500 S    
C9    H15   1.107340 S    
C4    O15   1.403169 S    
P1    O2    1.596491 S    
C27   H31   1.073577 S    
C16   H26   1.110560 S    
C7    I2    2.148615 S    
C6    H9    1.103193 S    
O10   C8    1.398848 S    
C28   I4    2.139420 S    
P2    O10   1.745570 S    
C7    H10   1.104938 S    
P3    O9    1.540795 D    
P5    O19   1.747778 S    
C41   C42   1.395325 A    
C13   C14   1.530828 S    
P8    O23   1.538133 D    
O11   C2    1.397116 S    
C11   O22   1.401476 S    
C10   H16   1.107326 S    
P4    C30   1.915302 S    
P7    C40   1.878606 S    
C16   H27   1.107185 S    
C7    C46   1.458495 S    
C47   N3    1.153902 T    
O13   Ba2   2.931820 S    
P4    O12   1.527809 D    
C6    C45   1.450944 S    
P3    O8    1.722773 S    
C20   C21   1.399520 A    
O14   P8    1.742232 S    
Ba2   O21   2.877081 S    
C12   I3    2.148585 S    
C11   H18   1.112746 S    
C3    I5    2.107287 S    
C14   C49   1.464633 S    
O12   Ba2   2.870123 S    
P2    O20   1.579831 S    
C16   C52   1.475537 S    
P5    O18   1.548465 D    
C39   C43   1.411223 A    
O2    Ba1   2.930845 S    
C44   C54   1.433074 S    
C15   O24   1.413456 S    
C46   N2    1.153642 T    
P3    C34   1.828823 S    
O14   Ba2   2.866715 S    
C53   N9    1.158082 T    
C17   C29   1.408015 A    
C5    H8    1.110433 S    
C54   N10   1.153659 T    
O16   Ba2   2.918006 S    
Ba2   O20   2.806000 S    
C11   C12   1.547211 S    
P2    C32   1.847981 S    
C18   C29   1.392185 A    
C9    H14   1.100166 S    
C51   N7    1.155842 T    
C5    H7    1.109227 S    
P6    C17   1.877627 S    
O6    P6    1.749361 S    
C15   H25   1.113373 S    
C6    C7    1.523060 S    
C15   C51   1.469881 S    
C15   C16   1.547593 S    
P2    O7    1.503909 D    
P2    Ba1   3.427942 S    
P4    Ba2   3.412608 S    
Ba1   O13   2.860766 S    
C35   C36   1.407358 A    
C8    H12   1.112188 S    
C8    H11   1.100727 S    
C2    H4    1.106959 S    
C4    C5    1.546905 S    
C18   C28   1.435337 A    
P7    O21   1.568922 D    
P8    C20   1.832377 S    
C26   C53   1.443726 S    
P4    O15   1.776091 S    
O5    C6    1.403368 S    
C26   C27   1.390991 A    
C35   H33   1.077523 S    
C23   C30   1.452549 A    
C33   C34   1.395430 A    
P1    C18   1.926349 S    
O4    P6    1.546019 D    
O1    Ba1   2.869417 S    
C1    H17   1.109930 S    
O8    Ba1   2.795545 S    
