data_mof_unit_50395.cif
_audit_creation_date              2012-12-10T16:44:42-0500
_audit_creation_method            fapswitch 2.2
_symmetry_space_group_name_H-M    P1
_symmetry_Int_Tables_number       1
_space_group_crystal_system       triclinic
_cell_length_a                    15.033313
_cell_length_b                    8.771
_cell_length_c                    7.48517
_cell_angle_alpha                 102.908265
_cell_angle_beta                  94.535629
_cell_angle_gamma                 93.361845
_cell_volume                      956.057103749

loop_
_atom_site_label
_atom_site_type_symbol
_atom_type_description
_atom_site_fract_x
_atom_site_fract_y
_atom_site_fract_z
_atom_type_partial_charge
C1    C     C_R   0.498244 0.200818 0.454475 0.882805
C2    C     C_R   0.501756 0.799182 0.545525 0.882805
C3    C     C_R   0.030866 0.381312 0.171828 -0.236150
C4    C     C_R   0.969134 0.618688 0.828172 -0.236151
C5    C     C_2   0.509151 0.037188 0.432079 -0.079836
C6    C     C_2   0.490849 0.962812 0.567921 -0.079836
C7    C     C_R   0.328852 0.498904 0.501437 0.802670
C8    C     C_R   0.671148 0.501096 0.498562 0.802670
C9    C     C_R   0.822496 0.559773 0.661393 -0.213262
C10   C     C_R   0.177504 0.440228 0.338608 -0.213261
C11   C     C_R   0.767904 0.502454 0.496846 -0.083449
C12   C     C_R   0.232096 0.497547 0.503154 -0.083449
C13   C     C_R   0.805694 0.444792 0.332655 -0.236541
C14   C     C_R   0.194306 0.555209 0.667345 -0.236543
C15   C     C_R   0.898538 0.441698 0.331427 0.096338
C16   C     C_R   0.101461 0.558303 0.668573 0.096337
C17   C     C_R   0.953397 0.500421 0.498609 0.007722
C18   C     C_R   0.046603 0.499581 0.501391 0.007723
C19   C     C_R   0.914966 0.559912 0.663361 0.082374
C20   C     C_R   0.085034 0.440089 0.336639 0.082375
C21   C     C_R   0.937590 0.381014 0.167408 0.135321
C22   C     C_R   0.062410 0.618986 0.832592 0.135323
Cu1   Cu    Cu3+1 0.510010 0.517380 0.684380 0.968317
Cu2   Cu    Cu3+1 0.489990 0.482620 0.315620 0.968317
H1    H     H_    0.793032 0.605324 0.788373 0.152506
H2    H     H_    0.206968 0.394675 0.211627 0.152506
H3    H     H_    0.762309 0.400273 0.206937 0.176270
H4    H     H_    0.237691 0.599728 0.793062 0.176269
H5    H     H_    0.061314 0.335440 0.046228 0.153388
H6    H     H_    0.938686 0.664559 0.953773 0.153388
N1    N     N_2   0.474890 0.456420 0.038520 -0.004321
N2    N     N_2   0.525110 0.543580 0.961480 -0.004321
O1    O     O_R   0.506510 0.286130 0.619770 -0.593815
O2    O     O_R   0.493490 0.713870 0.380230 -0.593815
O3    O     O_R   0.489600 0.256770 0.308360 -0.568836
O4    O     O_R   0.510400 0.743230 0.691640 -0.568836
O5    O     O_R   0.378710 0.514640 0.655720 -0.570338
O6    O     O_R   0.621290 0.485360 0.344280 -0.570338
O7    O     O_R   0.361800 0.485290 0.344300 -0.609268
O8    O     O_R   0.638200 0.514710 0.655700 -0.609268
N3    N     N_3   0.882581 0.319353 0.997368 -0.605249
H7    H     H_    0.849978 0.213477 0.007638 0.212733
H8    H     H_    0.922129 0.292107 0.887458 0.228070
N4    N     N_3   0.117419 0.680645 0.002633 -0.605247
H9    H     H_    0.150025 0.786519 0.992362 0.212732
H10   H     H_    0.077870 0.707896 0.112542 0.228069
N5    N     N_3   0.547381 0.963714 0.266814 -0.586817
H11   H     H_    0.499426 0.885473 0.178442 0.268844
H12   H     H_    0.603835 0.907854 0.300346 0.224949
N6    N     N_3   0.452619 0.036286 0.733186 -0.586817
H13   H     H_    0.500574 0.114527 0.821558 0.268844
H14   H     H_    0.396165 0.092146 0.699654 0.224949
N7    N     N_3   0.392499 0.400823 0.943324 -0.426810
H15   H     H_    0.373442 0.297473 0.982359 0.201686
H16   H     H_    0.346837 0.481519 0.993385 0.220700
N8    N     N_3   0.607501 0.599177 0.056676 -0.426810
H17   H     H_    0.626558 0.702527 0.017641 0.201686
H18   H     H_    0.653163 0.518482 0.006614 0.220700

loop_
_geom_bond_atom_site_label_1
_geom_bond_atom_site_label_2
_ccdc_geom_bond_type
Cu2   O6    S    
Cu1   Cu2   S    
C15   C17   A    
N8    H18   S    
C4    C22   A    
N3    H7    S    
N3    H8    S    
N6    H14   S    
N5    H11   S    
C12   C14   A    
C9    C11   A    
C14   H4    S    
Cu1   N2    S    
C10   H2    S    
C13   C15   A    
C17   C18   A    
C7    O5    A    
Cu2   N1    S    
C1    O1    A    
C3    C20   A    
N5    H12   S    
N7    H15   S    
N1    N7    S    
N2    N8    S    
C11   C13   A    
C2    O2    A    
C2    C6    S    
C10   C12   A    
C8    O6    A    
C8    C11   S    
C1    C5    S    
C5    N5    S    
N4    H10   S    
N6    H13   S    
C18   C20   A    
N7    H16   S    
C5    C6    D    
C14   C16   A    
C7    C12   S    
C3    C21   A    
Cu2   O3    S    
C9    H1    S    
Cu1   O8    S    
C15   C21   A    
Cu2   O7    S    
C8    O8    A    
N8    H17   S    
C1    O3    A    
C16   C18   A    
Cu1   O4    S    
C21   N3    S    
C2    O4    A    
C3    H5    S    
C7    O7    A    
C22   N4    S    
C13   H3    S    
C16   C22   A    
C6    N6    S    
C17   C19   A    
Cu1   O5    S    
C4    C19   A    
C9    C19   A    
C4    H6    S    
N4    H9    S    
N1    N2    D    
C10   C20   A    
Cu1   O1    S    
Cu2   O2    S    
