data_mof_unit_28469.cif
_audit_creation_date              2013-03-05T16:32:05-0500
_audit_creation_method            fapswitch 2.2
_symmetry_space_group_name_H-M    P1
_symmetry_Int_Tables_number       1
_space_group_crystal_system       triclinic
_cell_length_a                    15.12487
_cell_length_b                    14.145643
_cell_length_c                    14.135773
_cell_angle_alpha                 90.003219
_cell_angle_beta                  90.11571
_cell_angle_gamma                 89.9956
_cell_volume                      3024.35674982

loop_
_atom_site_label
_atom_site_type_symbol
_atom_site_description
_atom_site_fract_x
_atom_site_fract_y
_atom_site_fract_z
_atom_type_partial_charge
O1    O     O_R   0.369060 0.579480 0.500010 -0.596832
O2    O     O_R   0.630940 0.420520 0.499990 -0.589913
O3    O     O_R   0.630940 0.579480 0.499990 -0.596892
O4    O     O_R   0.369060 0.420520 0.500010 -0.589837
C1    C     C_R   0.327717 0.500139 0.504753 0.965992
C2    C     C_R   0.672273 0.500136 0.495174 0.965972
O5    O     O_R   0.500000 0.579500 0.373720 -0.600775
O6    O     O_R   0.500000 0.420500 0.626280 -0.606743
O7    O     O_R   0.500000 0.579500 0.626280 -0.600732
O8    O     O_R   0.500000 0.420500 0.373720 -0.606714
C3    C     C_R   0.499959 0.500001 0.329019 0.881730
C4    C     C_R   0.500042 0.500005 0.670981 0.881826
Zn1   Zn    Zn3+2 0.500000 0.606140 0.500000 0.935674
Zn2   Zn    Zn3+2 0.500000 0.393860 0.500000 0.940056
C5    C     C_R   0.480034 0.104610 0.417053 0.361108
C6    C     C_R   0.576124 0.894950 0.526877 0.393759
C7    C     C_R   0.520057 0.104697 0.583026 0.359482
C8    C     C_R   0.423854 0.894953 0.473164 0.393653
C9    C     C_R   0.478839 0.204401 0.419535 -0.181764
C10   C     C_R   0.572869 0.795572 0.529940 -0.155299
C11   C     C_R   0.521234 0.204459 0.580471 -0.180136
C12   C     C_R   0.427131 0.795575 0.470061 -0.155216
H1    H     H_    0.460674 0.243405 0.356681 0.159090
H2    H     H_    0.629950 0.756734 0.554435 0.209010
H3    H     H_    0.539460 0.243484 0.643298 0.159739
H4    H     H_    0.370084 0.756741 0.445482 0.209071
N1    N     N_R   0.500000 0.252470 0.500000 -0.117096
N2    N     N_R   0.500000 0.747530 0.500000 -0.139847
C13   C     C_1   0.499995 0.500016 0.227640 -0.213002
C14   C     C_1   0.500008 0.500029 0.772360 -0.212903
C15   C     C_1   0.500009 0.500053 0.142415 -0.018785
C16   C     C_1   0.499996 0.500064 0.857585 -0.018683
C17   C     C_1   0.500007 0.500088 0.042613 0.001597
C18   C     C_1   0.500000 0.500092 0.957387 0.001632
C19   C     C_R   0.499969 0.053369 0.500078 -0.045600
C20   C     C_R   0.499971 0.946799 0.500078 -0.051388
C21   C     C_R   0.098367 0.586415 0.478491 0.435931
C22   C     C_R   0.908246 0.426397 0.457918 0.393927
C23   C     C_R   0.901606 0.586429 0.521022 0.436032
C24   C     C_R   0.091696 0.426364 0.541519 0.393932
C25   C     C_R   0.186771 0.588642 0.503375 0.308621
C26   C     C_R   0.817102 0.418894 0.468512 0.333808
C27   C     C_R   0.813187 0.588655 0.496206 0.308568
C28   C     C_R   0.182853 0.418878 0.531053 0.333798
C29   C     C_R   0.231861 0.501954 0.513579 -0.471727
C30   C     C_R   0.768104 0.501957 0.486122 -0.471683
C31   C     C_R   0.048105 0.507036 0.505118 -0.220858
C32   C     C_R   0.951858 0.507054 0.494323 -0.220953
O9    O     O_3   0.457904 0.056834 0.334986 -0.602340
C33   C     C_3   0.527192 0.066325 0.268861 0.074598
H5    H     H_    0.592769 0.051224 0.301878 0.114683
H6    H     H_    0.527550 0.139106 0.238917 0.142225
C34   C     C_3   0.512478 0.995703 0.188560 -0.300567
H7    H     H_    0.511071 0.922837 0.218037 0.224796
H8    H     H_    0.447714 0.010031 0.154086 0.231909
C35   C     C_3   0.585553 0.002133 0.114542 -0.979660
H9    H     H_    0.586965 0.073889 0.082649 0.270283
H10   H     H_    0.573054 0.949731 0.057578 0.269560
H11   H     H_    0.650831 0.986589 0.147212 0.263991
O10   O     O_3   0.654340 0.939574 0.550926 -0.599855
C36   C     C_3   0.699354 0.967733 0.467750 0.075708
H12   H     H_    0.689521 0.044960 0.457540 0.149581
H13   H     H_    0.676345 0.930772 0.402195 0.106467
C37   C     C_3   0.798067 0.947798 0.479758 -0.319482
H14   H     H_    0.823810 0.986869 0.541973 0.237680
H15   H     H_    0.808109 0.871193 0.493085 0.254703
C38   C     C_3   0.850251 0.976722 0.392024 -0.983058
H16   H     H_    0.828072 0.935419 0.329699 0.270651
H17   H     H_    0.921723 0.963063 0.403875 0.276390
H18   H     H_    0.840856 0.052929 0.376472 0.264260
O11   O     O_3   0.542703 0.057170 0.665053 -0.602209
C39   C     C_3   0.472671 0.064664 0.730515 0.075199
H19   H     H_    0.408180 0.045308 0.697310 0.114723
H20   H     H_    0.468654 0.138049 0.758726 0.140823
C40   C     C_3   0.490084 0.996869 0.812633 -0.299606
H21   H     H_    0.495632 0.923509 0.784932 0.226301
H22   H     H_    0.553612 0.015841 0.847547 0.230790
C41   C     C_3   0.415894 0.000664 0.885573 -0.978582
H23   H     H_    0.410126 0.073060 0.915462 0.269847
H24   H     H_    0.430597 0.950676 0.944103 0.269916
H25   H     H_    0.351961 0.980136 0.852549 0.263524
O12   O     O_3   0.345719 0.939590 0.448821 -0.599625
C42   C     C_3   0.300210 0.967307 0.531833 0.074869
H26   H     H_    0.310152 0.044438 0.542654 0.149463
H27   H     H_    0.322680 0.929806 0.597279 0.105408
C43   C     C_3   0.201536 0.947695 0.518953 -0.318432
H28   H     H_    0.176340 0.986994 0.456629 0.237667
H29   H     H_    0.191408 0.871144 0.505362 0.254656
C44   C     C_3   0.148785 0.976565 0.606324 -0.982679
H30   H     H_    0.170461 0.935119 0.668750 0.270682
H31   H     H_    0.077374 0.963075 0.593876 0.276419
H32   H     H_    0.158195 0.052722 0.622105 0.264178
O13   O     O_3   0.061004 0.665062 0.436012 -0.566491
C45   C     C_3   0.070782 0.658394 0.336549 0.061162
H33   H     H_    0.018479 0.702703 0.304133 0.172106
H34   H     H_    0.060428 0.585116 0.309432 0.088414
C46   C     C_3   0.160274 0.697562 0.303613 -0.308562
H35   H     H_    0.172282 0.767534 0.337084 0.254941
H36   H     H_    0.214249 0.648673 0.324632 0.223546
C47   C     C_3   0.162830 0.708707 0.196283 -0.974528
H37   H     H_    0.151321 0.639418 0.161358 0.262816
H38   H     H_    0.228689 0.735691 0.174604 0.275019
H39   H     H_    0.111575 0.759769 0.172553 0.266679
O14   O     O_3   0.953348 0.352161 0.416479 -0.600109
C48   C     C_3   0.984866 0.379959 0.326402 0.092394
H40   H     H_    0.055940 0.399040 0.332794 0.129537
H41   H     H_    0.948708 0.441645 0.295339 0.109114
C49   C     C_3   0.975199 0.296954 0.257987 -0.312036
H42   H     H_    0.007470 0.233242 0.288210 0.234053
H43   H     H_    0.903837 0.280965 0.247922 0.232754
C50   C     C_3   0.016692 0.319111 0.162199 -0.980698
H44   H     H_    0.984288 0.381742 0.129783 0.266397
H45   H     H_    0.008088 0.257732 0.114085 0.271068
H46   H     H_    0.088534 0.333268 0.170552 0.262325
O15   O     O_3   0.938979 0.665032 0.563571 -0.566541
C51   C     C_3   0.928939 0.658445 0.663013 0.060982
H47   H     H_    0.981341 0.702514 0.695561 0.172138
H48   H     H_    0.938934 0.585131 0.690190 0.088287
C52   C     C_3   0.839532 0.698059 0.695699 -0.308048
H49   H     H_    0.827827 0.768013 0.662072 0.255109
H50   H     H_    0.785421 0.649351 0.674676 0.223797
C53   C     C_3   0.836827 0.709435 0.803003 -0.974735
H51   H     H_    0.848043 0.640173 0.838084 0.262843
H52   H     H_    0.771021 0.736729 0.824498 0.274998
H53   H     H_    0.888211 0.760341 0.826736 0.266707
O16   O     O_3   0.046567 0.352105 0.582860 -0.600095
C54   C     C_3   0.014958 0.379847 0.672925 0.092500
H54   H     H_    0.943855 0.398800 0.666492 0.129524
H55   H     H_    0.050984 0.441603 0.704019 0.109053
C55   C     C_3   0.024729 0.296857 0.741332 -0.312076
H56   H     H_    0.992582 0.233090 0.711078 0.234080
H57   H     H_    0.096113 0.280995 0.751439 0.232783
C56   C     C_3   0.983149 0.318936 0.837099 -0.980786
H58   H     H_    0.015432 0.381620 0.869545 0.266404
H59   H     H_    0.991828 0.257568 0.885208 0.271084
H60   H     H_    0.911288 0.332970 0.828705 0.262318
O17   O     O_3   0.227564 0.675933 0.512087 -0.625109
C57   C     C_3   0.247843 0.693613 0.608735 0.143019
H61   H     H_    0.291104 0.756891 0.611484 0.151830
H62   H     H_    0.286040 0.634981 0.641825 0.139531
C58   C     C_3   0.164864 0.713191 0.667659 -0.386492
H63   H     H_    0.124240 0.768467 0.632668 0.262603
H64   H     H_    0.125228 0.647343 0.672901 0.201387
C59   C     C_3   0.188822 0.744811 0.767699 -0.986664
H65   H     H_    0.225385 0.687780 0.805041 0.271487
H66   H     H_    0.127483 0.760686 0.807703 0.268435
H67   H     H_    0.230565 0.809356 0.765839 0.263273
O18   O     O_3   0.776674 0.332818 0.450846 -0.594961
C60   C     C_3   0.762938 0.284336 0.537477 0.158740
H68   H     H_    0.700429 0.243787 0.530463 0.171648
H69   H     H_    0.754279 0.332369 0.599589 0.106854
C61   C     C_3   0.837504 0.214133 0.557161 -0.373505
H70   H     H_    0.843360 0.164409 0.496987 0.241946
H71   H     H_    0.900961 0.252303 0.564554 0.277939
C62   C     C_3   0.820019 0.158775 0.647907 -0.984075
H72   H     H_    0.816136 0.207648 0.709278 0.269067
H73   H     H_    0.874806 0.108035 0.660463 0.267538
H74   H     H_    0.757014 0.118775 0.642049 0.302281
O19   O     O_3   0.772382 0.675946 0.487467 -0.625236
C63   C     C_3   0.751921 0.693511 0.390843 0.142928
H75   H     H_    0.708633 0.756787 0.388116 0.151896
H76   H     H_    0.713684 0.634830 0.357897 0.139656
C64   C     C_3   0.834787 0.713051 0.331725 -0.386823
H77   H     H_    0.875355 0.768525 0.366470 0.262251
H78   H     H_    0.874545 0.647269 0.326619 0.201429
C65   C     C_3   0.810631 0.744304 0.231627 -0.986062
H79   H     H_    0.774148 0.687071 0.194510 0.271365
H80   H     H_    0.871884 0.760198 0.191485 0.268391
H81   H     H_    0.768746 0.808753 0.233353 0.263657
O20   O     O_3   0.223267 0.332784 0.548689 -0.594922
C66   C     C_3   0.237175 0.284416 0.462019 0.158653
H82   H     H_    0.299622 0.243771 0.469150 0.171694
H83   H     H_    0.246045 0.332536 0.400017 0.106939
C67   C     C_3   0.162588 0.214347 0.441990 -0.373332
H84   H     H_    0.156558 0.164505 0.502038 0.241992
H85   H     H_    0.099183 0.252611 0.434524 0.277756
C68   C     C_3   0.180222 0.159159 0.351166 -0.984350
H86   H     H_    0.184226 0.208152 0.289907 0.269033
H87   H     H_    0.125445 0.108469 0.338393 0.267553
H88   H     H_    0.243205 0.119117 0.357071 0.302049

loop_
_geom_bond_atom_site_label_1
_geom_bond_atom_site_label_2
_geom_bond_distance
_ccdc_geom_bond_type
C24   C31   1.414306 A    
C66   H82   1.110123 S    
O13   C45   1.417185 S    
C62   H73   1.110245 S    
C55   H57   1.111656 S    
C64   H77   1.110097 S    
O3    C2    1.286559 A    
C26   O18   1.385006 S    
C54   H55   1.119063 S    
C46   H35   1.111835 S    
C57   H61   1.109439 S    
C34   H7    1.112009 S    
C49   H42   1.110016 S    
O5    C3    1.289900 A    
C48   H41   1.119059 S    
O16   C54   1.416260 S    
C42   H26   1.111910 S    
O1    C1    1.286622 A    
C64   H78   1.110304 S    
C22   C26   1.391022 A    
C27   O19   1.385808 S    
C60   H69   1.118069 S    
C26   C30   1.411498 A    
C41   H24   1.110536 S    
C52   C53   1.525950 S    
O20   C66   1.419259 S    
O15   C51   1.417250 S    
C51   H47   1.107715 S    
C6    O10   1.382751 S    
C36   H13   1.118857 S    
O7    Zn1   1.824429 S    
C67   H84   1.107377 S    
C22   O14   1.382980 S    
C46   H36   1.109944 S    
C5    C9    1.412156 A    
C21   C25   1.382275 A    
C10   H2    1.079722 S    
C49   H43   1.111658 S    
C68   H87   1.110242 S    
C56   H60   1.110980 S    
C33   H6    1.113199 S    
C15   C17   1.410783 S    
Zn1   N2    2.000052 S    
Zn2   N1    2.000052 S    
C21   C31   1.407753 A    
C9    N1    1.362730 A    
C22   C32   1.414345 A    
C36   H12   1.111878 S    
O3    Zn1   2.016007 S    
C6    C10   1.407313 A    
C52   H50   1.109933 S    
C11   N1    1.362684 A    
C12   N2    1.361526 A    
C62   H74   1.111248 S    
C65   H80   1.110397 S    
O2    C2    1.289996 A    
C59   H67   1.110429 S    
C5    C19   1.411488 A    
O14   C48   1.416239 S    
C48   C49   1.527944 S    
C33   H5    1.115939 S    
C67   H85   1.106023 S    
C34   H8    1.111808 S    
C66   C67   1.527762 S    
C33   C34   1.528034 S    
C38   H16   1.108538 S    
C37   C38   1.527242 S    
C64   C65   1.526123 S    
O18   C60   1.419248 S    
C59   H66   1.110395 S    
O8    Zn2   1.824431 S    
C58   C59   1.526133 S    
C43   H28   1.108639 S    
C39   H19   1.115758 S    
C23   C27   1.382231 A    
C10   N2    1.361565 A    
C45   C46   1.535745 S    
C40   C41   1.526352 S    
C35   H10   1.110377 S    
C1    C29   1.455637 S    
C57   C58   1.532883 S    
C47   H39   1.110905 S    
C7    C11   1.411775 A    
O10   C36   1.417009 S    
C38   H17   1.110491 S    
C19   C20   1.507510 S    
C16   C18   1.410783 S    
C36   C37   1.528520 S    
C9    H1    1.080907 S    
C40   H21   1.112350 S    
C63   C64   1.532938 S    
O7    C4    1.289904 A    
C66   H83   1.118059 S    
O19   C63   1.421766 S    
C61   C62   1.526475 S    
C24   C28   1.390986 A    
O6    C4    1.289978 A    
C68   H88   1.111254 S    
C24   O16   1.382983 S    
C47   H38   1.110475 S    
C17   C18   1.204730 T    
C21   O13   1.384271 S    
C50   H45   1.110386 S    
C49   C50   1.526106 S    
C44   H32   1.109252 S    
C45   H34   1.116087 S    
C40   H22   1.112171 S    
C67   C68   1.526470 S    
C57   H62   1.113250 S    
C39   H20   1.113711 S    
C42   H27   1.118719 S    
C61   H71   1.106033 S    
C7    O11   1.382842 S    
C23   O15   1.384284 S    
C56   H58   1.110922 S    
O9    C33   1.412063 S    
C60   C61   1.527780 S    
C55   C56   1.526107 S    
O1    Zn1   2.016067 S    
C35   H9    1.110896 S    
C53   H52   1.110478 S    
C54   H54   1.111871 S    
C46   C47   1.525944 S    
C28   C29   1.411520 A    
C48   H40   1.111874 S    
C34   C35   1.526203 S    
C11   H3    1.080954 S    
O6    Zn2   1.824388 S    
C2    C30   1.455567 S    
C50   H44   1.110920 S    
C4    C14   1.433077 S    
C8    C12   1.407321 A    
C25   O17   1.385757 S    
C63   H76   1.113250 S    
C59   H65   1.110894 S    
C31   C32   1.463393 S    
C43   C44   1.527278 S    
C52   H49   1.111842 S    
C35   H11   1.111112 S    
O17   C57   1.421752 S    
C51   C52   1.535750 S    
C38   H18   1.109277 S    
C63   H75   1.109547 S    
C53   H53   1.110906 S    
C58   H64   1.110309 S    
C55   H56   1.110026 S    
C44   H30   1.108504 S    
C54   C55   1.527939 S    
O11   C39   1.411879 S    
C13   C15   1.204718 T    
C60   H68   1.110132 S    
C6    C20   1.416408 A    
C14   C16   1.204719 T    
C41   H23   1.111288 S    
C41   H25   1.111534 S    
C39   C40   1.528196 S    
C65   H79   1.110893 S    
O4    C1    1.289977 A    
C37   H14   1.108643 S    
C44   H31   1.110502 S    
C47   H37   1.110995 S    
C8    O12   1.382751 S    
C51   H48   1.116127 S    
C50   H46   1.110980 S    
C43   H29   1.110333 S    
C5    O9    1.383090 S    
O4    Zn2   2.016010 S    
C45   H33   1.107756 S    
O2    Zn2   2.016064 S    
C27   C30   1.410338 A    
C28   O20   1.385004 S    
O8    C3    1.289984 A    
O5    Zn1   1.824389 S    
C42   C43   1.528541 S    
C61   H70   1.107415 S    
C3    C13   1.433073 S    
C65   H81   1.110417 S    
C68   H86   1.110911 S    
C12   H4    1.079716 S    
C62   H72   1.110909 S    
C56   H59   1.110386 S    
C25   C29   1.410348 A    
C7    C19   1.411673 A    
O12   C42   1.416906 S    
C53   H51   1.110992 S    
C58   H63   1.110096 S    
C8    C20   1.416452 A    
C37   H15   1.110262 S    
C23   C32   1.407766 A    
