data_mof_unit_44054.cif
_audit_creation_date              2012-12-10T18:55:22-0500
_audit_creation_method            fapswitch 2.2
_symmetry_space_group_name_H-M    P1
_symmetry_Int_Tables_number       1
_space_group_crystal_system       triclinic
_cell_length_a                    10.692053
_cell_length_b                    10.106633
_cell_length_c                    27.264993
_cell_angle_alpha                 89.340937
_cell_angle_beta                  94.832431
_cell_angle_gamma                 90.283647
_cell_volume                      2935.58234809

loop_
_atom_site_label
_atom_site_type_symbol
_atom_type_description
_atom_site_fract_x
_atom_site_fract_y
_atom_site_fract_z
_atom_type_partial_charge
C1    C     C_R   0.260861 0.500644 0.501142 0.858629
C2    C     C_R   0.360591 0.614477 0.871375 -0.016010
C3    C     C_R   0.508475 0.506736 0.352608 -0.154334
C4    C     C_R   0.473933 0.500594 0.646229 -0.187355
C5    C     C_R   0.375465 0.685976 0.971615 0.078689
C6    C     C_R   0.609790 0.651185 0.025084 0.090859
C7    C     C_R   0.605549 0.672438 0.973637 -0.048945
C8    C     C_R   0.386959 0.712592 0.022647 -0.055640
C9    C     C_R   0.486069 0.670757 0.947069 0.032509
C10   C     C_R   0.500768 0.676425 0.049563 0.034241
C11   C     C_R   0.258720 0.658696 0.945630 -0.122094
C12   C     C_R   0.739004 0.500800 0.498747 0.858806
C13   C     C_R   0.713468 0.591395 0.051849 -0.127671
C14   C     C_R   0.251661 0.621289 0.896438 -0.136250
C15   C     C_R   0.711007 0.562253 0.101766 -0.147983
C16   C     C_R   0.501569 0.500939 0.406093 0.933912
C17   C     C_R   0.494146 0.499577 0.593648 0.939687
C18   C     C_R   0.289353 0.765475 0.048626 0.359769
C19   C     C_R   0.713497 0.686746 0.947069 0.348801
C20   C     C_R   0.064018 0.388644 0.511808 -0.228808
C21   C     C_R   0.934756 0.624267 0.492700 -0.220657
C22   C     C_R   0.936939 0.385196 0.501977 -0.202978
C23   C     C_R   0.503277 0.658207 0.100897 -0.057288
C24   C     C_R   0.063585 0.623877 0.493619 -0.197219
C25   C     C_R   0.871581 0.503577 0.496980 -0.001233
C26   C     C_R   0.128109 0.504709 0.502920 0.001032
C27   C     C_R   0.579645 0.070861 0.533389 0.077404
C28   C     C_R   0.428043 0.928996 0.464936 0.138059
C29   C     C_R   0.419239 0.070837 0.467792 0.108892
C30   C     C_R   0.572939 0.927305 0.535337 0.113776
C31   C     C_R   0.405469 0.678070 0.177157 0.542336
C32   C     C_R   0.575614 0.618081 0.820469 0.512241
C33   C     C_R   0.599594 0.562817 0.176312 0.512735
C34   C     C_R   0.477369 0.645588 0.896214 -0.058641
C35   C     C_R   0.356866 0.571697 0.822559 0.519771
C36   C     C_R   0.595612 0.615733 0.283933 -0.164706
C37   C     C_R   0.375028 0.599344 0.713254 -0.158219
C38   C     C_R   0.608438 0.576325 0.333107 0.017140
C39   C     C_R   0.373689 0.574896 0.662801 0.006341
C40   C     C_R   0.406842 0.460495 0.320810 0.271527
C41   C     C_R   0.558744 0.434751 0.680463 0.279648
C42   C     C_R   0.402495 0.487595 0.269690 0.066126
C43   C     C_R   0.541961 0.439017 0.731029 0.103267
C44   C     C_R   0.496650 0.570373 0.251895 0.192182
C45   C     C_R   0.401116 0.698782 0.126169 -0.096146
C46   C     C_R   0.458411 0.533818 0.747371 0.172203
C47   C     C_3   0.664687 0.144869 0.572064 -0.301275
C48   C     C_3   0.808027 0.121040 0.573886 -0.391924
C49   C     C_3   0.867723 0.080979 0.625023 -0.808698
C50   C     C_3   0.364908 0.859381 0.420428 -0.373170
C51   C     C_3   0.442864 0.874213 0.375742 -0.383224
C52   C     C_3   0.368460 0.828842 0.328640 -0.784344
C53   C     C_3   0.315571 0.140617 0.436052 -0.334333
C54   C     C_3   0.188315 0.137288 0.458557 -0.333098
C55   C     C_3   0.096789 0.027593 0.441656 -0.920625
C56   C     C_R   0.586109 0.646558 0.870709 -0.089844
C57   C     C_3   0.648968 0.851208 0.576036 -0.347594
C58   C     C_3   0.589561 0.850610 0.625698 -0.387561
C59   C     C_3   0.665686 0.766093 0.664252 -0.773733
C60   C     C_3   0.301892 0.424194 0.234507 -0.327676
C61   C     C_3   0.170654 0.484499 0.238144 -0.283753
C62   C     C_3   0.090344 0.477942 0.189185 -0.819368
C63   C     C_3   0.613020 0.343725 0.766764 -0.305673
C64   C     C_3   0.570377 0.200247 0.756985 -0.394329
C65   C     C_3   0.642846 0.103453 0.791983 -0.795990
C66   C     C_3   0.266798 0.625490 0.626718 -0.385781
C67   C     C_R   0.297944 0.759219 0.100013 -0.182124
C68   C     C_3   0.154929 0.686311 0.650529 -0.348503
C69   C     C_3   0.045157 0.715657 0.612639 -0.853192
C70   C     C_3   0.731728 0.606794 0.362742 -0.408374
C71   C     C_3   0.842704 0.544221 0.338881 -0.324991
C72   C     C_3   0.966558 0.561427 0.370166 -0.838682
C73   C     C_R   0.702450 0.675265 0.895941 -0.170816
C74   C     C_R   0.606360 0.595583 0.126630 -0.007330
Cl1   Cl    Cl    0.283070 0.372507 0.345392 -0.755812
Cl2   Cl    Cl    0.696996 0.364575 0.661215 -0.727832
Cl3   Cl    Cl    0.165424 0.860325 0.019846 -0.537004
Cl4   Cl    Cl    0.860533 0.739422 0.974335 -0.570962
H1    H     H_    0.221997 0.798755 0.119256 0.219976
H2    H     H_    0.885406 0.717412 0.487547 0.163041
H3    H     H_    0.890312 0.290713 0.498621 0.153567
H4    H     H_    0.112064 0.716011 0.487718 0.153031
H5    H     H_    0.886521 0.169834 0.648094 0.305463
H6    H     H_    0.806728 0.014586 0.644884 0.265045
H7    H     H_    0.958578 0.030856 0.621327 0.235115
H8    H     H_    0.832848 0.051448 0.545017 0.199548
H9    H     H_    0.854673 0.215545 0.566684 0.237833
H10   H     H_    0.656189 0.249431 0.564989 0.281177
H11   H     H_    0.628754 0.132479 0.608552 0.214919
H12   H     H_    0.786037 0.684876 0.876280 0.220238
H13   H     H_    0.335045 0.725634 0.332865 0.264125
H14   H     H_    0.285982 0.893962 0.319951 0.263443
H15   H     H_    0.428766 0.834482 0.297490 0.271352
H16   H     H_    0.469945 0.979405 0.370545 0.221251
H17   H     H_    0.531277 0.817436 0.381680 0.248032
H18   H     H_    0.341192 0.756535 0.428771 0.252948
H19   H     H_    0.271682 0.898666 0.409641 0.197967
H20   H     H_    0.088701 0.019385 0.400922 0.276252
H21   H     H_    0.125558 0.932521 0.459642 0.247129
H22   H     H_    0.002378 0.051142 0.453302 0.247671
H23   H     H_    0.311810 0.670429 0.726945 0.170483
H24   H     H_    0.204699 0.130942 0.499250 0.221237
H25   H     H_    0.140034 0.230842 0.447083 0.252016
H26   H     H_    0.340397 0.244235 0.433091 0.279196
H27   H     H_    0.307117 0.108360 0.397231 0.217702
H28   H     H_    0.683991 0.666915 0.649597 0.283474
H29   H     H_    0.757422 0.813140 0.675282 0.249910
H30   H     H_    0.613287 0.754692 0.697509 0.271764
H31   H     H_    0.582687 0.950723 0.640791 0.209140
H32   H     H_    0.492171 0.812716 0.620808 0.243535
H33   H     H_    0.664090 0.750164 0.564920 0.261332
H34   H     H_    0.666738 0.678178 0.269408 0.164115
H35   H     H_    0.746774 0.883720 0.580641 0.193280
H36   H     H_    0.133905 0.537511 0.160606 0.272999
H37   H     H_    0.080058 0.373755 0.176898 0.266303
H38   H     H_    0.995646 0.518428 0.193668 0.265038
H39   H     H_    0.120534 0.429242 0.265985 0.253941
H40   H     H_    0.177712 0.589111 0.250067 0.264404
H41   H     H_    0.328304 0.431388 0.196070 0.195027
H42   H     H_    0.297987 0.316205 0.242459 0.217895
H43   H     H_    0.744796 0.109225 0.787017 0.275296
H44   H     H_    0.627484 0.126190 0.830780 0.267260
H45   H     H_    0.160676 0.596347 0.878314 0.202381
H46   H     H_    0.609754 0.000955 0.784028 0.256921
H47   H     H_    0.468566 0.190954 0.762025 0.231586
H48   H     H_    0.584713 0.172040 0.718620 0.257970
H49   H     H_    0.715577 0.354029 0.763666 0.260745
H50   H     H_    0.596376 0.365227 0.805455 0.194833
H51   H     H_    0.075213 0.783029 0.583340 0.255299
H52   H     H_    0.007831 0.622036 0.596180 0.287969
H53   H     H_    0.968740 0.764168 0.630868 0.251632
H54   H     H_    0.121448 0.616696 0.678519 0.262067
H55   H     H_    0.184613 0.780754 0.668592 0.216014
H56   H     H_    0.790884 0.512245 0.120636 0.188714
H57   H     H_    0.302880 0.700425 0.601399 0.217376
H58   H     H_    0.230980 0.539857 0.604451 0.200023
H59   H     H_    0.980025 0.665915 0.381752 0.258749
H60   H     H_    0.968434 0.495396 0.402910 0.282853
H61   H     H_    0.045449 0.533442 0.348477 0.279166
H62   H     H_    0.824891 0.436715 0.333275 0.246211
H63   H     H_    0.853240 0.590911 0.302380 0.236719
H64   H     H_    0.744899 0.715832 0.364640 0.194237
H65   H     H_    0.731973 0.568187 0.400857 0.201408
H66   H     H_    0.173038 0.654486 0.963910 0.217551
H67   H     H_    0.792891 0.556064 0.033903 0.195078
H68   H     H_    0.111862 0.300206 0.524643 0.150466
N1    N     N_R   0.499281 0.603058 0.200547 -0.339604
N2    N     N_R   0.463895 0.573184 0.798089 -0.341069
N3    N     N_R   0.500000 0.857200 0.500000 -0.142246
N4    N     N_R   0.500000 0.142800 0.500000 -0.148488
O1    O     O_R   0.316770 0.614620 0.500000 -0.646505
O2    O     O_2   0.676727 0.632509 0.794362 -0.569551
O3    O     O_2   0.247695 0.527407 0.800001 -0.563022
O4    O     O_2   0.692005 0.490364 0.200155 -0.580226
O5    O     O_R   0.683230 0.385380 0.500000 -0.638214
O6    O     O_R   0.683230 0.614620 0.500000 -0.651825
O7    O     O_R   0.316770 0.385380 0.500000 -0.637062
O8    O     O_R   0.500030 0.614650 0.428760 -0.634744
O9    O     O_R   0.499970 0.385350 0.571240 -0.615927
O10   O     O_R   0.499970 0.614650 0.571240 -0.637694
O11   O     O_R   0.500030 0.385350 0.428760 -0.602326
O12   O     O_2   0.316863 0.731665 0.203040 -0.584482
Zn1   Zn    Zn3+2 0.500000 0.653120 0.500000 0.901525
Zn2   Zn    Zn3+2 0.500000 0.346880 0.500000 0.930229

loop_
_geom_bond_atom_site_label_1
_geom_bond_atom_site_label_2
_ccdc_geom_bond_type
C2    C35   A    
C66   C68   S    
C38   C70   S    
C34   C56   A    
C23   C45   A    
C58   H31   S    
C47   H11   S    
C13   H67   S    
C43   C63   S    
C15   H56   S    
C57   H33   S    
C53   C54   S    
C62   H38   S    
C5    C9    A    
C20   C26   A    
C49   H6    S    
C28   C29   A    
C24   C26   A    
C73   H12   S    
C62   H36   S    
C11   C14   A    
C4    C41   A    
C53   H26   S    
C30   C57   S    
C7    C19   A    
C44   N1    S    
C55   H20   S    
C60   H41   S    
C65   H46   S    
C68   H54   S    
C17   O10   A    
C24   H4    S    
O5    Zn2   S    
C33   N1    A    
C29   N4    A    
C28   C50   S    
C72   H61   S    
C46   N2    S    
O6    Zn1   S    
C68   C69   S    
C22   C25   A    
C55   H22   S    
C36   H34   S    
C60   H42   S    
C70   C71   S    
N3    Zn1   S    
C65   H43   S    
C11   H66   S    
C63   H50   S    
C71   H63   S    
C31   N1    A    
C2    C34   A    
C40   C42   A    
C31   O12   S    
C28   N3    A    
C27   C30   A    
C41   C43   A    
C42   C44   A    
C12   O6    A    
C17   O9    A    
C56   C73   A    
C70   H64   S    
C59   H28   S    
C61   H39   S    
C51   C52   S    
O10   Zn1   S    
C49   H7    S    
C54   H25   S    
C19   C73   A    
C67   H1    S    
C3    C38   A    
C42   C60   S    
C33   O4    S    
C69   H52   S    
C30   N3    A    
C57   H35   S    
C58   C59   S    
C72   H60   S    
C16   O8    A    
C59   H29   S    
C66   H57   S    
C60   C61   S    
C19   Cl4   S    
C22   H3    S    
C45   C67   A    
C47   C48   S    
C32   O2    S    
C4    C39   A    
C69   H53   S    
C50   C51   S    
C70   H65   S    
C48   H9    S    
C52   H15   S    
C65   H44   S    
O7    Zn2   S    
C6    C7    A    
O8    Zn1   S    
C66   H58   S    
C4    C17   S    
C69   H51   S    
C72   H59   S    
C20   C22   A    
C3    C40   A    
C27   N4    A    
C64   H48   S    
C13   C15   A    
C1    C26   S    
C10   C23   A    
C39   C66   S    
C20   H68   S    
C36   C44   A    
C12   O5    A    
O11   Zn2   S    
C27   C47   S    
C7    C9    A    
C21   C25   A    
C54   C55   S    
C68   H55   S    
C50   H19   S    
C14   H45   S    
C61   H40   S    
C58   H32   S    
C54   H24   S    
C35   O3    S    
C6    C10   A    
C5    C8    A    
C5    C11   A    
C71   H62   S    
C32   N2    A    
C16   O11   A    
N4    Zn2   S    
O1    Zn1   S    
C59   H30   S    
C40   Cl1   S    
C12   C25   S    
C64   C65   S    
C49   H5    S    
C36   C38   A    
C18   C67   A    
C71   C72   S    
C37   C39   A    
C47   H10   S    
C41   Cl2   S    
C37   H23   S    
C50   H18   S    
C57   C58   S    
C9    C34   A    
C29   C53   S    
C18   Cl3   S    
C48   C49   S    
C21   H2    S    
C1    O7    A    
C1    O1    A    
C48   H8    S    
C35   N2    A    
C61   C62   S    
C2    C14   A    
C43   C46   A    
C8    C18   A    
C52   H14   S    
C51   H16   S    
C63   C64   S    
C53   H27   S    
C33   C74   A    
C62   H37   S    
C15   C74   A    
C8    C10   A    
C64   H47   S    
C31   C45   A    
C21   C24   A    
C55   H21   S    
O9    Zn2   S    
C52   H13   S    
C23   C74   A    
C37   C46   A    
C32   C56   A    
C63   H49   S    
C3    C16   S    
C51   H17   S    
C6    C13   A    
