data_mof_unit_38936.cif
_audit_creation_date              2012-12-11T17:14:08-0500
_audit_creation_method            fapswitch 2.2
_symmetry_space_group_name_H-M    P1
_symmetry_Int_Tables_number       1
_space_group_crystal_system       triclinic
_cell_length_a                    18.199843
_cell_length_b                    7.095424
_cell_length_c                    12.989345
_cell_angle_alpha                 90.040926
_cell_angle_beta                  72.155251
_cell_angle_gamma                 90.074284
_cell_volume                      1596.68696815

loop_
_atom_site_label
_atom_site_type_symbol
_atom_type_description
_atom_site_fract_x
_atom_site_fract_y
_atom_site_fract_z
_atom_type_partial_charge
O1    O     O_R   0.453880 0.506200 0.150010 -0.550184
O2    O     O_R   0.546120 0.006200 0.849990 -0.551727
O3    O     O_R   0.604080 0.177770 0.007280 -0.542832
O4    O     O_R   0.395920 0.677770 0.992720 -0.539475
C1    C     C_R   0.635984 0.344589 0.001678 0.750681
C2    C     C_R   0.364027 0.844432 0.998229 0.756560
O5    O     O_R   0.458010 0.176640 0.159130 -0.534614
O6    O     O_R   0.541990 0.676640 0.840870 -0.534583
O7    O     O_R   0.399010 0.004010 0.002930 -0.538009
O8    O     O_R   0.600990 0.504010 0.997070 -0.534970
C3    C     C_R   0.442509 0.345189 0.202176 0.802743
C4    C     C_R   0.557875 0.844898 0.798084 0.795384
O9    O     O_3   0.480810 0.338440 0.948570 -0.378589
O10   O     O_3   0.519190 0.838440 0.051430 -0.377715
V1    V     V_3+5 0.503560 0.064490 0.009540 1.472853
V2    V     V_3+5 0.496440 0.564490 0.990460 1.481743
C5    C     C_R   0.575982 0.760212 0.505602 0.334610
C6    C     C_R   0.422123 0.238792 0.492962 0.332155
C7    C     C_R   0.589737 0.848709 0.679576 -0.257555
C8    C     C_R   0.411817 0.349038 0.321101 -0.260850
C9    C     C_R   0.948498 0.853673 0.388263 0.174866
C10   C     C_R   0.053613 0.409903 0.612278 0.191203
C11   C     C_R   0.914578 0.822804 0.498919 0.448149
C12   C     C_R   0.087633 0.409291 0.500127 0.439333
C13   C     C_R   0.834956 0.796873 0.541843 0.392108
C14   C     C_R   0.164818 0.357022 0.455104 0.415944
C15   C     C_R   0.786006 0.824963 0.476355 -0.116171
C16   C     C_R   0.213850 0.340142 0.521741 -0.102876
C17   C     C_R   0.819857 0.827792 0.362285 -0.159080
C18   C     C_R   0.179096 0.323168 0.635581 -0.158717
C19   C     C_R   0.704075 0.832728 0.521278 -0.022373
C20   C     C_R   0.296208 0.335717 0.477764 -0.030369
C21   C     C_R   0.657210 0.778871 0.456738 -0.166350
C22   C     C_R   0.340960 0.261721 0.540766 -0.160734
C23   C     C_R   0.693011 0.739146 0.346294 0.294571
C24   C     C_R   0.303729 0.210831 0.649117 0.300588
C25   C     C_R   0.771098 0.791340 0.296945 0.358947
C26   C     C_R   0.226497 0.266691 0.699468 0.361491
C27   C     C_R   0.668099 0.893723 0.628721 0.310224
C28   C     C_R   0.335492 0.408037 0.373651 0.316610
C29   C     C_R   0.544001 0.779186 0.618518 0.328880
C30   C     C_R   0.455487 0.265696 0.380871 0.322463
C31   C     C_R   0.901612 0.855315 0.318651 -0.247135
C32   C     C_R   0.098220 0.361510 0.680823 -0.253740
C33   C     C_1   0.216257 0.858985 0.000483 -0.181033
C34   C     C_1   0.783806 0.359051 0.999195 -0.184483
C35   C     C_1   0.283579 0.852525 0.999229 -0.176866
C36   C     C_1   0.716463 0.352858 0.000512 -0.182984
O11   O     O_R   0.899030 0.205490 0.002790 -0.553633
O12   O     O_R   0.100970 0.705490 0.997210 -0.549915
O13   O     O_R   0.042000 0.536370 0.840840 -0.544535
O14   O     O_R   0.958000 0.036370 0.159160 -0.561717
C37   C     C_R   0.060726 0.368664 0.798609 0.819387
C38   C     C_R   0.939441 0.868052 0.201313 0.827143
O15   O     O_R   0.895930 0.535070 0.992690 -0.514706
O16   O     O_R   0.104070 0.035070 0.007310 -0.520702
O17   O     O_R   0.953870 0.707520 0.150040 -0.518718
O18   O     O_R   0.046130 0.207520 0.849960 -0.526273
C39   C     C_R   0.864218 0.366761 0.998390 0.724403
C40   C     C_R   0.135831 0.866855 0.001414 0.736226
O19   O     O_3   0.019200 0.374340 0.051340 -0.379280
O20   O     O_3   0.980800 0.874340 0.948660 -0.376178
V3    V     V_3+5 0.996440 0.648350 0.990470 1.493261
V4    V     V_3+5 0.003560 0.148350 0.009530 1.449532
O21   O     O_3   0.467023 0.740681 0.671336 -0.627439
H1    H     H_    0.442914 0.680547 0.620852 0.330023
O22   O     O_3   0.532006 0.222832 0.328011 -0.632780
H2    H     H_    0.555686 0.161826 0.378595 0.322139
O23   O     O_3   0.651783 0.646358 0.287982 -0.625114
H3    H     H_    0.687654 0.596077 0.219944 0.319965
O24   O     O_3   0.343282 0.106329 0.704993 -0.621082
H4    H     H_    0.306660 0.054562 0.771992 0.319987
O25   O     O_3   0.526515 0.724992 0.445922 -0.618262
H5    H     H_    0.540159 0.813842 0.384119 0.333786
O26   O     O_3   0.470084 0.192602 0.553141 -0.620238
H6    H     H_    0.456858 0.277681 0.616770 0.329772
O27   O     O_3   0.710655 0.999997 0.679688 -0.625895
H7    H     H_    0.676614 0.057555 0.746410 0.287040
O28   O     O_3   0.299215 0.540456 0.328013 -0.605463
H8    H     H_    0.338139 0.613972 0.272952 0.296129
O29   O     O_3   0.028287 0.864188 0.351347 -0.616197
H9    H     H_    0.046902 0.893199 0.273274 0.269268
O30   O     O_3   0.975791 0.452477 0.650898 -0.604832
H10   H     H_    0.953628 0.411365 0.726796 0.268221
O31   O     O_3   0.806954 0.730991 0.647105 -0.512574
C41   C     C_3   0.791859 0.536074 0.644848 -0.118954
H11   H     H_    0.777283 0.480457 0.728517 0.148714
H12   H     H_    0.843185 0.457256 0.594626 0.147303
H13   H     H_    0.741595 0.508646 0.615369 0.110348
O32   O     O_3   0.189779 0.316862 0.345409 -0.513026
C42   C     C_3   0.201315 0.120530 0.330810 -0.206471
H14   H     H_    0.151679 0.037794 0.382578 0.151675
H15   H     H_    0.255342 0.075867 0.346544 0.138306
H16   H     H_    0.207264 0.085794 0.245346 0.163363
O33   O     O_3   0.960548 0.788856 0.564032 -0.477622
C43   C     C_3   0.977427 0.960595 0.606098 -0.075630
H17   H     H_    0.925293 0.050490 0.639176 0.100921
H18   H     H_    0.022982 0.036867 0.543497 0.100588
H19   H     H_    0.000840 0.929525 0.673691 0.154694
O34   O     O_3   0.048018 0.481551 0.433429 -0.483622
C44   C     C_3   0.003396 0.339031 0.406291 -0.108282
H20   H     H_    0.972671 0.400485 0.352532 0.147355
H21   H     H_    0.958741 0.283837 0.478817 0.103576
H22   H     H_    0.040464 0.223956 0.360713 0.140014
O35   O     O_3   0.800946 0.783171 0.185470 -0.564907
C45   C     C_3   0.770978 0.934759 0.140644 -0.206469
H23   H     H_    0.785238 0.072319 0.171182 0.129522
H24   H     H_    0.707540 0.923100 0.156754 0.149992
H25   H     H_    0.797517 0.931447 0.051611 0.177990
O36   O     O_3   0.196788 0.251564 0.810670 -0.563849
C46   C     C_3   0.226117 0.400919 0.858427 -0.205822
H26   H     H_    0.213133 0.540337 0.828712 0.127458
H27   H     H_    0.289289 0.386709 0.844197 0.146350
H28   H     H_    0.197857 0.396340 0.947126 0.177641

loop_
_geom_bond_atom_site_label_1
_geom_bond_atom_site_label_2
_ccdc_geom_bond_type
C33   C40   S    
C44   H20   S    
O15   C39   A    
C34   C39   S    
C15   C17   A    
O25   H5    S    
O33   C43   S    
O1    C3    A    
O2    C4    A    
C2    O7    A    
O29   H9    S    
O27   H7    S    
O5    C3    A    
C6    O26   S    
C27   O27   S    
C23   C25   A    
C12   C14   A    
C6    C30   A    
C8    C28   A    
C41   H12   S    
C45   H23   S    
C43   H19   S    
C18   C26   A    
O19   V3    S    
O36   C46   S    
O20   V4    S    
C9    C31   A    
C32   C37   S    
C10   C32   A    
C46   H26   S    
C11   O33   S    
O15   V3    S    
O16   V4    S    
C26   O36   S    
C24   O24   S    
O5    V1    S    
O6    V2    S    
O11   V4    S    
C17   C31   A    
C5    O25   S    
O12   V3    S    
C18   C32   A    
C5    C21   A    
O14   C38   A    
O17   V3    S    
C33   C35   T    
O18   V4    S    
C1    C36   S    
C34   C36   T    
C3    C8    S    
C2    C35   S    
C15   C19   A    
O22   H2    S    
C16   C20   A    
O13   V3    S    
O4    C2    A    
O14   V4    S    
C42   H14   S    
C41   H11   S    
C29   O21   S    
O31   C41   S    
O16   C40   A    
C43   H18   S    
O13   C37   A    
C20   C22   A    
O4    V2    S    
O19   V4    S    
O26   H6    S    
C25   O35   S    
O20   V3    S    
C42   H15   S    
C31   C38   S    
O30   H10   S    
O6    C4    A    
C43   H17   S    
C13   O31   S    
C28   O28   S    
C46   H27   S    
O1    V2    S    
O2    V1    S    
C6    C22   A    
C7    C27   A    
C9    O29   S    
C44   H22   S    
C9    C11   A    
C30   O22   S    
C10   C12   A    
C14   O32   S    
O3    V1    S    
C19   C21   A    
C12   O34   S    
O3    C1    A    
C41   H13   S    
C8    C30   A    
C37   O18   A    
C13   C15   A    
O35   C45   S    
C14   C16   A    
O11   C39   A    
O12   C40   A    
C10   O30   S    
C16   C18   A    
O7    V1    S    
O24   H4    S    
O8    V2    S    
C42   H16   S    
O32   C42   S    
C45   H24   S    
C4    C7    S    
C24   C26   A    
O34   C44   S    
C21   C23   A    
C19   C27   A    
C46   H28   S    
C22   C24   A    
C20   C28   A    
O23   H3    S    
C5    C29   A    
O28   H8    S    
C1    O8    A    
C11   C13   A    
C23   O23   S    
C44   H21   S    
O21   H1    S    
O9    V2    S    
C17   C25   A    
O10   V1    S    
C45   H25   S    
C7    C29   A    
C38   O17   A    
