data_mof_unit_68061.cif
_audit_creation_date              2012-12-11T14:39:27-0500
_audit_creation_method            fapswitch 2.2
_symmetry_space_group_name_H-M    P1
_symmetry_Int_Tables_number       1
_space_group_crystal_system       triclinic
_cell_length_a                    7.267509
_cell_length_b                    14.124156
_cell_length_c                    16.583526
_cell_angle_alpha                 90.324946
_cell_angle_beta                  98.044944
_cell_angle_gamma                 90.002472
_cell_volume                      1685.47603361

loop_
_atom_site_label
_atom_site_type_symbol
_atom_type_description
_atom_site_fract_x
_atom_site_fract_y
_atom_site_fract_z
_atom_type_partial_charge
O1    O     O_R   0.525340 0.338340 0.164530 -0.525127
O2    O     O_R   0.474660 0.661660 0.835470 -0.525149
O3    O     O_R   0.974660 0.838340 0.835470 -0.521399
O4    O     O_R   0.025340 0.161660 0.164530 -0.521385
O5    O     O_R   0.253520 0.352000 0.336710 -0.534770
O6    O     O_R   0.746480 0.648000 0.663290 -0.534748
O7    O     O_R   0.246480 0.852000 0.663290 -0.537496
O8    O     O_R   0.753520 0.148000 0.336710 -0.537513
O9    O     O_R   0.083330 0.168380 0.337300 -0.516323
O10   O     O_R   0.916670 0.831620 0.662700 -0.516249
O11   O     O_R   0.416670 0.668380 0.662700 -0.518354
O12   O     O_R   0.583330 0.331620 0.337300 -0.518416
C1    C     C_R   0.434683 0.371770 0.361645 0.665050
C2    C     C_R   0.565314 0.628227 0.638357 0.665167
C3    C     C_R   0.065364 0.871483 0.638059 0.668359
C4    C     C_R   0.934633 0.128516 0.361940 0.668201
O13   O     O_R   0.195840 0.349670 0.165140 -0.500279
O14   O     O_R   0.804160 0.650330 0.834860 -0.500282
O15   O     O_R   0.304160 0.849670 0.834860 -0.509351
O16   O     O_R   0.695840 0.150330 0.165140 -0.509344
C5    C     C_R   0.359544 0.373795 0.140174 0.761299
C6    C     C_R   0.640454 0.626201 0.859822 0.761229
C7    C     C_R   0.144356 0.867120 0.865677 0.742021
C8    C     C_R   0.855643 0.132881 0.134322 0.742091
O17   O     O_3   0.387830 0.193120 0.250910 -0.347757
O18   O     O_3   0.612170 0.806880 0.749090 -0.347728
O19   O     O_3   0.112170 0.693120 0.749090 -0.340196
O20   O     O_3   0.887830 0.306880 0.250910 -0.340226
V1    V     V_3+5 0.113010 0.264540 0.250910 1.751516
V2    V     V_3+5 0.886990 0.735460 0.749090 1.751637
V3    V     V_3+5 0.386990 0.764540 0.749090 1.738290
V4    V     V_3+5 0.613010 0.235460 0.250910 1.738184
C9    C     C_R   0.974450 0.200600 0.532289 -0.169298
C10   C     C_R   0.025456 0.799394 0.467704 -0.169276
C11   C     C_R   0.524415 0.700626 0.468879 -0.171749
C12   C     C_R   0.475508 0.299372 0.531123 -0.171732
C13   C     C_R   0.956210 0.233299 0.611061 0.263458
C14   C     C_R   0.043650 0.766694 0.388930 0.263277
C15   C     C_R   0.541499 0.733140 0.390143 0.271968
C16   C     C_R   0.458388 0.266863 0.609860 0.272099
C17   C     C_R   0.947718 0.169039 0.673966 -0.075139
C18   C     C_R   0.052113 0.830952 0.326022 -0.075097
C19   C     C_R   0.556241 0.668335 0.327419 -0.069677
C20   C     C_R   0.443623 0.331672 0.672579 -0.069654
C21   C     C_R   0.946153 0.071497 0.657414 0.134335
C22   C     C_R   0.053734 0.928494 0.342577 0.134345
C23   C     C_R   0.559516 0.570919 0.344359 0.133829
C24   C     C_R   0.440388 0.429088 0.655636 0.133828
C25   C     C_R   0.981700 0.034893 0.580048 0.099668
C26   C     C_R   0.018243 0.965102 0.419949 0.099661
C27   C     C_R   0.519702 0.534857 0.420670 0.099032
C28   C     C_R   0.480254 0.465143 0.579331 0.099023
C29   C     C_R   0.980308 0.100257 0.514258 -0.023096
C30   C     C_R   0.019640 0.899738 0.485740 -0.023105
C31   C     C_R   0.519684 0.600327 0.486436 -0.024084
C32   C     C_R   0.480273 0.399671 0.513566 -0.024055
C33   C     C_R   0.018109 0.936181 0.566916 -0.040692
C34   C     C_R   0.981870 0.063816 0.433083 -0.040642
C35   C     C_R   0.482438 0.436235 0.432990 -0.035965
C36   C     C_R   0.517546 0.563762 0.567012 -0.036013
C37   C     C_2   0.152744 0.927403 0.941065 0.129022
C38   C     C_2   0.847253 0.072600 0.058933 0.128996
C39   C     C_2   0.362701 0.453083 0.081845 0.113752
C40   C     C_2   0.637287 0.546901 0.918139 0.113796
C41   C     C_2   0.997788 0.957810 0.971626 0.203051
C42   C     C_2   0.002209 0.042194 0.028371 0.203078
C43   C     C_2   0.508239 0.469004 0.037336 0.190057
C44   C     C_2   0.491740 0.530968 0.962640 0.190003
C45   C     C_2   0.057628 0.798138 0.240752 0.642300
H1    H     H_    0.985719 0.838534 0.190426 0.103765
O21   O     O_2   0.147478 0.729193 0.225287 -0.483461
C46   C     C_2   0.942119 0.201852 0.759232 0.642346
H2    H     H_    0.013935 0.161442 0.809571 0.103751
O22   O     O_2   0.852334 0.270826 0.774680 -0.483457
C47   C     C_2   0.432218 0.300264 0.757731 0.633667
H3    H     H_    0.482022 0.346612 0.808375 0.110452
O23   O     O_2   0.363833 0.224790 0.772978 -0.499371
C48   C     C_2   0.567520 0.699751 0.242262 0.633666
H4    H     H_    0.517605 0.653415 0.191632 0.110479
O24   O     O_2   0.635890 0.775221 0.226996 -0.499347
C49   C     C_2   0.012891 0.274826 0.474187 0.436074
H5    H     H_    0.141517 0.273567 0.449962 0.099939
O25   O     O_2   0.903984 0.339219 0.454732 -0.497352
C50   C     C_2   0.987059 0.725162 0.525808 0.436285
H6    H     H_    0.858382 0.726297 0.549947 0.099990
O26   O     O_2   0.096065 0.660885 0.545352 -0.497520
C51   C     C_2   0.486614 0.774917 0.527553 0.440101
H7    H     H_    0.357651 0.774051 0.551316 0.102156
O27   O     O_2   0.596040 0.839140 0.547558 -0.498897
C52   C     C_2   0.513348 0.225082 0.472452 0.439935
H8    H     H_    0.642248 0.226043 0.448615 0.102096
O28   O     O_2   0.404026 0.160767 0.452522 -0.498777
Br1   Br    Br    0.944290 0.368163 0.632793 -0.419569
Br2   Br    Br    0.055607 0.631832 0.367202 -0.419663
Br3   Br    Br    0.542955 0.868356 0.368958 -0.419653
Br4   Br    Br    0.456941 0.131650 0.631059 -0.419613
Br5   Br    Br    0.826189 0.000226 0.734156 -0.437094
Br6   Br    Br    0.173705 0.999750 0.265827 -0.437080
Br7   Br    Br    0.693378 0.499081 0.273209 -0.420915
Br8   Br    Br    0.306479 0.500942 0.726757 -0.420838
Br9   Br    Br    0.195501 0.134777 0.022163 -0.396329
Br10  Br    Br    0.804488 0.865231 0.977830 -0.396354
Br11  Br    Br    0.240597 0.571324 0.920290 -0.342941
Br12  Br    Br    0.759373 0.428604 0.079657 -0.342916
Br13  Br    Br    0.634277 0.092249 0.978819 -0.322217
Br14  Br    Br    0.365725 0.907763 0.021179 -0.322180
Br15  Br    Br    0.809609 0.448623 0.897083 -0.334695
Br16  Br    Br    0.190294 0.551342 0.102856 -0.334721

loop_
_geom_bond_atom_site_label_1
_geom_bond_atom_site_label_2
_ccdc_geom_bond_type
C51   H7    S    
O1    C5    A    
O3    V2    S    
O13   V1    S    
O3    C7    A    
C44   Br11  S    
O15   V3    S    
C49   H5    S    
C25   C33   A    
C38   Br13  S    
C19   C48   S    
C26   C30   A    
C40   C44   D    
O20   V1    S    
O9    C4    A    
C50   O26   D    
C14   C18   A    
O10   C3    A    
C11   C15   A    
O4    C8    A    
O11   C2    A    
C48   O24   D    
C23   Br7   S    
C18   C22   A    
C45   O21   D    
C28   C36   A    
C28   C32   A    
C11   C51   S    
O16   C8    A    
O2    C6    A    
O14   V2    S    
C16   C20   A    
O5    C1    A    
O4    V1    S    
O9    V1    S    
O17   V4    S    
O7    C3    A    
C22   Br6   S    
O11   V3    S    
O18   V3    S    
O8    C4    A    
O14   C6    A    
C31   C36   A    
O12   V4    S    
O19   V2    S    
C3    C33   S    
C42   Br9   S    
C10   C50   S    
C41   Br10  S    
C16   Br4   S    
C49   O25   D    
C43   Br12  S    
O5    V1    S    
C9    C29   A    
C24   Br8   S    
C39   C43   D    
O7    V3    S    
C38   C42   D    
C11   C31   A    
C43   C44   S    
O8    V4    S    
C12   C16   A    
C50   H6    S    
C46   O22   D    
C48   H4    S    
C15   C19   A    
C18   C45   S    
O13   C5    A    
O2    V3    S    
C26   C34   A    
C20   C47   S    
O15   C7    A    
C47   H3    S    
C12   C32   A    
O6    C2    A    
O10   V2    S    
C52   O28   D    
C21   C25   A    
C14   Br2   S    
C13   Br1   S    
C4    C34   S    
C37   Br14  S    
C47   O23   D    
C15   Br3   S    
C17   C46   S    
O6    V2    S    
C10   C30   A    
C51   O27   D    
C27   C35   A    
C40   Br15  S    
O16   V4    S    
C7    C37   S    
C12   C52   S    
C8    C38   S    
C10   C14   A    
C46   H2    S    
C23   C27   A    
C29   C34   A    
C1    C35   S    
C2    C36   S    
C22   C26   A    
C32   C35   A    
C21   Br5   S    
C52   H8    S    
C19   C23   A    
C25   C29   A    
C27   C31   A    
O1    V4    S    
C13   C17   A    
C45   H1    S    
C9    C13   A    
C5    C39   S    
C6    C40   S    
C37   C41   D    
C24   C28   A    
O12   C1    A    
C41   C42   S    
C17   C21   A    
C39   Br16  S    
C9    C49   S    
C20   C24   A    
C30   C33   A    
