data_mof_unit_40184.cif
_audit_creation_date              2013-03-05T15:55:10-0500
_audit_creation_method            fapswitch 2.2
_symmetry_space_group_name_H-M    P1
_symmetry_Int_Tables_number       1
_space_group_crystal_system       triclinic
_cell_length_a                    14.437989
_cell_length_b                    16.362765
_cell_length_c                    6.904778
_cell_angle_alpha                 89.553015
_cell_angle_beta                  98.179133
_cell_angle_gamma                 90.30784
_cell_volume                      1614.56546568

loop_
_atom_site_label
_atom_site_type_symbol
_atom_site_description
_atom_site_fract_x
_atom_site_fract_y
_atom_site_fract_z
_atom_type_partial_charge
O1    O     O_R   0.831700 0.662810 0.581550 -0.573446
O2    O     O_R   0.168300 0.337190 0.418450 -0.576044
O3    O     O_R   0.168300 0.162810 0.418450 -0.576224
O4    O     O_R   0.831700 0.837190 0.581550 -0.574507
O5    O     O_R   0.842890 0.834390 0.255500 -0.559111
O6    O     O_R   0.157110 0.165610 0.744500 -0.574288
O7    O     O_R   0.157110 0.334390 0.744500 -0.556738
O8    O     O_R   0.842890 0.665610 0.255500 -0.576733
O9    O     O_R   0.661690 0.835580 0.024130 -0.591402
O10   O     O_R   0.338310 0.164420 0.975870 -0.585572
O11   O     O_R   0.338310 0.335580 0.975870 -0.597070
O12   O     O_R   0.661690 0.664420 0.024130 -0.584268
C1    C     C_R   0.865207 0.864985 0.429489 1.111431
C2    C     C_R   0.135855 0.134383 0.570362 1.139779
C3    C     C_R   0.134827 0.364937 0.569735 1.120912
C4    C     C_R   0.864653 0.634677 0.430858 1.119317
C5    C     C_R   0.067780 0.064388 0.537822 -0.518872
C6    C     C_R   0.933633 0.934942 0.459810 -0.509809
C7    C     C_R   0.933464 0.565184 0.465125 -0.516971
C8    C     C_R   0.066569 0.434840 0.539006 -0.508748
C9    C     C_R   0.010455 0.941483 0.353299 0.251334
C10   C     C_R   0.991519 0.057547 0.644706 0.244265
C11   C     C_R   0.991976 0.442041 0.651136 0.252837
C12   C     C_R   0.007756 0.557710 0.352786 0.244989
O13   O     O_3   0.687240 0.750000 0.366320 -0.251733
O14   O     O_3   0.312760 0.250000 0.633680 -0.256671
V1    V     V_3+5 0.757720 0.750000 0.115230 1.390132
V2    V     V_3+5 0.242280 0.250000 0.884770 1.384292
O15   O     O_R   0.650500 0.664000 0.690740 -0.545228
O16   O     O_R   0.349500 0.336000 0.309260 -0.547117
O17   O     O_R   0.349500 0.164000 0.309260 -0.538284
O18   O     O_R   0.650500 0.836000 0.690740 -0.552725
C13   C     C_R   0.624816 0.638135 0.855321 0.998726
C14   C     C_R   0.371252 0.364549 0.143970 1.021278
C15   C     C_R   0.371568 0.135536 0.144522 0.994246
C16   C     C_R   0.626681 0.861908 0.854166 1.009772
C17   C     C_R   0.077036 0.004997 0.393333 0.451011
C18   C     C_R   0.924227 0.994863 0.603010 0.456026
C19   C     C_R   0.926666 0.506413 0.614877 0.454077
C20   C     C_R   0.074845 0.494953 0.393438 0.462402
V3    V     V_3+5 0.735670 0.750000 0.607790 1.401800
V4    V     V_3+5 0.264330 0.250000 0.392210 1.399239
O19   O     O_3   0.806150 0.750000 0.906560 -0.240082
O20   O     O_3   0.193850 0.250000 0.093440 -0.241764
C21   C     C_2   0.542326 0.912553 0.851339 -0.005762
C22   C     C_2   0.443882 0.070005 0.144834 -0.035030
C23   C     C_2   0.445868 0.428001 0.140966 -0.063734
C24   C     C_2   0.552671 0.571309 0.853521 -0.058415
C25   C     C_2   0.544750 0.981007 0.963932 0.321288
C26   C     C_2   0.459895 0.031991 0.974778 0.335293
C27   C     C_2   0.431285 0.493255 0.013837 0.357567
C28   C     C_2   0.500352 0.560995 0.004293 0.350510
N1    N     N_R   0.022443 0.883613 0.204059 0.271585
O21   O     O_R   0.969723 0.888674 0.035202 -0.313401
O22   O     O_R   0.099570 0.841876 0.217569 -0.215907
N2    N     N_R   0.978606 0.117248 0.788847 0.281697
O23   O     O_R   0.973799 0.095215 0.968612 -0.291339
O24   O     O_R   0.967186 0.193480 0.738001 -0.315886
N3    N     N_R   0.980955 0.383966 0.802878 0.271647
O25   O     O_R   0.034816 0.389163 0.970138 -0.311693
O26   O     O_R   0.903540 0.342227 0.793589 -0.223648
N4    N     N_R   0.019272 0.616990 0.204263 0.283669
O27   O     O_R   0.025327 0.594196 0.026435 -0.286592
O28   O     O_R   0.029869 0.693600 0.249911 -0.309757
Cl1   Cl    Cl    0.173765 0.007335 0.260737 -0.474797
Cl2   Cl    Cl    0.822032 0.998962 0.717635 -0.430204
Cl3   Cl    Cl    0.835452 0.510734 0.761574 -0.460521
Cl4   Cl    Cl    0.176090 0.499531 0.275640 -0.427444
Cl5   Cl    Cl    0.387235 0.046999 0.746127 -0.483881
Cl6   Cl    Cl    0.653976 0.020807 0.074781 -0.460085
Cl7   Cl    Cl    0.501802 0.632463 0.195567 -0.456975
Cl8   Cl    Cl    0.318551 0.512504 0.883953 -0.448813
N5    N     N_R   0.499429 0.049306 0.328529 0.276371
O29   O     O_R   0.528348 0.106255 0.453521 -0.267762
O30   O     O_R   0.518216 0.973323 0.374679 -0.300247
N6    N     N_R   0.455028 0.876267 0.765365 0.263591
O31   O     O_R   0.451408 0.834360 0.605055 -0.261372
O32   O     O_R   0.386223 0.869440 0.867647 -0.263955
N7    N     N_R   0.544392 0.514512 0.693595 0.263720
O33   O     O_R   0.463726 0.484117 0.620114 -0.312859
O34   O     O_R   0.617296 0.498403 0.609898 -0.248059
N8    N     N_R   0.536433 0.411781 0.253127 0.275610
O35   O     O_R   0.545354 0.352643 0.381527 -0.268779
O36   O     O_R   0.612100 0.446038 0.207770 -0.310090

loop_
_geom_bond_atom_site_label_1
_geom_bond_atom_site_label_2
_geom_bond_distance
_ccdc_geom_bond_type
O3    V4    2.009163 S    
O17   V4    2.012943 S    
C6    C9    1.418502 A    
N5    O30   1.301436 A    
N5    O29   1.301278 A    
N1    O21   1.300877 A    
C11   N3    1.434007 S    
O9    V1    2.009446 S    
C1    C6    1.504287 S    
C21   N6    1.441571 S    
O18   C16   1.300293 A    
C24   N7    1.440352 S    
C26   Cl5   1.782928 S    
N6    O32   1.302035 A    
C8    C20   1.417579 A    
O4    V3    2.009160 S    
C10   C18   1.411807 A    
O15   C13   1.311010 A    
N2    O23   1.301051 A    
C23   N8    1.446503 S    
O4    C1    1.295374 A    
N4    O28   1.297893 A    
O5    V1    2.005163 S    
O6    V2    2.005163 S    
C18   Cl2   1.772608 S    
C17   Cl1   1.775612 S    
O9    C16   1.282182 A    
O18   V3    2.012943 S    
O10   C15   1.282487 A    
O5    C1    1.302004 A    
O7    C3    1.300518 A    
N3    O25   1.300397 A    
O8    C4    1.305703 A    
V3    O19   2.166541 S    
C2    C5    1.502446 S    
V4    O20   2.166543 S    
N1    O22   1.301043 A    
C3    C8    1.507770 S    
N3    O26   1.300740 A    
O16   C14   1.308238 A    
O12   V1    2.005901 S    
C27   C28   1.494322 S    
N6    O31   1.301214 A    
O13   V3    1.713792 S    
N7    O34   1.299926 A    
C23   C27   1.374813 D    
V2    O20   1.688653 S    
O7    V2    2.003855 S    
N4    O27   1.300940 A    
O6    C2    1.305329 A    
C8    C11   1.418878 A    
C21   C25   1.365889 D    
C16   C21   1.474544 S    
O1    C4    1.292894 A    
C5    C17   1.418474 A    
O2    C3    1.297791 A    
O3    C2    1.290691 A    
C7    C19   1.419840 A    
O1    V3    2.021709 S    
N8    O35   1.301701 A    
N8    O36   1.301473 A    
C25   Cl6   1.774880 S    
O17   C15   1.313498 A    
C27   Cl8   1.771591 S    
O14   V4    1.713792 S    
O10   V2    2.009447 S    
C13   C24   1.505013 S    
C12   N4    1.432293 S    
O15   V3    1.997399 S    
C19   Cl3   1.773978 S    
O11   C14   1.283430 A    
C10   N2    1.431607 S    
O13   V1    2.131492 S    
C22   C26   1.381763 D    
O14   V2    2.131493 S    
C5    C10   1.413534 A    
C7    C12   1.416612 A    
C6    C18   1.418508 A    
C28   Cl7   1.768665 S    
C9    N1    1.433948 S    
O11   V2    2.005900 S    
O2    V4    2.021709 S    
C4    C7    1.508994 S    
C11   C19   1.414452 A    
C12   C20   1.414322 A    
N2    O24   1.298183 A    
N7    O33   1.300305 A    
V1    O19   1.688653 S    
C24   C28   1.379312 D    
C9    C17   1.413755 A    
C25   C26   1.496861 S    
C20   Cl4   1.772036 S    
O8    V1    2.003857 S    
O16   V4    1.997399 S    
C14   C23   1.494313 S    
O12   C13   1.286785 A    
C15   C22   1.500398 S    
C22   N5    1.439945 S    
