data_mof_unit_30356.cif
_audit_creation_date              2012-12-10T19:47:49-0500
_audit_creation_method            fapswitch 2.2
_symmetry_space_group_name_H-M    P1
_symmetry_Int_Tables_number       1
_space_group_crystal_system       triclinic
_cell_length_a                    18.238269
_cell_length_b                    18.207716
_cell_length_c                    21.798387
_cell_angle_alpha                 90.197192
_cell_angle_beta                  90.221301
_cell_angle_gamma                 90.444018
_cell_volume                      7238.43282612

loop_
_atom_site_label
_atom_site_type_symbol
_atom_type_description
_atom_site_fract_x
_atom_site_fract_y
_atom_site_fract_z
_atom_type_partial_charge
C1    C     C_R   0.999915 0.358815 0.002773 1.067254
C2    C     C_1   0.282180 0.999079 0.999201 -0.150222
C3    C     C_3   0.226503 0.079023 0.852036 0.119942
C4    C     C_3   0.188485 0.147304 0.877186 -0.300010
C5    C     C_3   0.117770 0.163919 0.842471 -0.673840
C6    C     C_3   0.248882 0.681475 0.820658 0.200387
C7    C     C_3   0.276719 0.754537 0.847041 -0.334261
C8    C     C_3   0.341879 0.743716 0.890084 -0.909286
C9    C     C_3   0.799760 0.901984 0.785309 0.148554
C10   C     C_3   0.881652 0.914856 0.795877 -0.366789
C11   C     C_3   0.926488 0.857507 0.761697 -0.880774
C12   C     C_3   0.687623 0.438939 0.241161 0.221326
C13   C     C_1   0.000222 0.717812 0.002212 -0.009903
C14   C     C_3   0.611550 0.473564 0.244609 -0.359577
C15   C     C_3   0.568076 0.462027 0.185300 -0.825866
C16   C     C_3   0.280054 0.847473 0.128116 0.136117
C17   C     C_3   0.209485 0.827085 0.093858 -0.265882
C18   C     C_3   0.225608 0.790266 0.032398 -0.909408
C19   C     C_3   0.300259 0.548231 0.176663 0.179367
C20   C     C_3   0.344390 0.613423 0.151863 -0.374964
C21   C     C_3   0.398931 0.643376 0.199244 -0.666548
C22   C     C_3   0.726369 0.150004 0.133320 0.132161
C23   C     C_3   0.798094 0.170195 0.101302 -0.274809
C24   C     C_1   0.717802 0.000865 0.998159 -0.102200
C25   C     C_3   0.784122 0.212857 0.042285 -0.888336
C26   C     C_3   0.257331 0.811217 0.318012 0.196291
C27   C     C_3   0.236616 0.737954 0.347742 -0.288060
C28   C     C_3   0.169007 0.745021 0.388268 -0.910607
C29   C     C_3   0.726162 0.577996 0.351543 0.117911
C30   C     C_3   0.688069 0.646367 0.376452 -0.297559
C31   C     C_3   0.617369 0.662785 0.341643 -0.676369
C32   C     C_3   0.750043 0.179528 0.321230 0.198311
C33   C     C_3   0.778750 0.252262 0.347595 -0.335167
C34   C     C_3   0.844188 0.240717 0.390197 -0.904009
C35   C     C_1   0.499951 0.782201 0.502561 -0.045098
C36   C     C_3   0.300583 0.404704 0.285545 0.137755
C37   C     C_3   0.382399 0.416272 0.297486 -0.368005
C38   C     C_3   0.427102 0.358154 0.264122 -0.877426
C39   C     C_3   0.187216 0.940376 0.741415 0.250720
C40   C     C_3   0.111075 0.974841 0.744848 -0.379989
C41   C     C_3   0.067957 0.963875 0.685280 -0.795933
C42   C     C_3   0.781947 0.347779 0.626954 0.160819
C43   C     C_3   0.712130 0.328915 0.591101 -0.286061
C44   C     C_3   0.729679 0.295641 0.528505 -1.011318
C45   C     C_3   0.798119 0.044371 0.674278 0.172948
C46   C     C_1   0.782183 0.499219 0.499188 -0.149557
C47   C     C_3   0.840861 0.110014 0.648519 -0.364694
C48   C     C_3   0.896120 0.141126 0.694821 -0.665889
C49   C     C_3   0.223819 0.648241 0.630523 0.147066
C50   C     C_3   0.294869 0.669458 0.597907 -0.269261
C51   C     C_3   0.279472 0.704705 0.535766 -0.965800
C52   C     C_1   0.500263 0.217810 0.502212 -0.036632
C53   C     C_1   0.217801 0.500705 0.498202 -0.106503
C54   C     C_R   0.999961 0.500363 0.879368 1.053827
C55   C     C_R   0.500322 0.999807 0.879780 0.862892
C56   C     C_R   0.000032 0.499111 0.120586 0.953164
C57   C     C_R   0.358680 0.999707 0.999345 0.955358
C58   C     C_R   0.499974 0.000081 0.120145 0.938715
C59   C     C_R   0.499959 0.000380 0.379371 1.051381
C60   C     C_R   0.000649 0.499835 0.379738 0.864912
C61   C     C_R   0.500021 0.999156 0.620636 0.946257
C62   C     C_R   0.999964 0.500084 0.620142 0.937695
C63   C     C_R   0.091580 0.607023 0.799616 0.271945
C64   C     C_R   0.627605 0.947681 0.806489 0.227127
C65   C     C_R   0.911811 0.391402 0.798216 0.275230
C66   C     C_R   0.377925 0.060442 0.801855 0.238765
C67   C     C_R   0.131969 0.542533 0.202705 0.241837
C68   C     C_R   0.000144 0.641207 0.002794 1.073836
C69   C     C_R   0.633281 0.031500 0.192991 0.198395
C70   C     C_R   0.863736 0.467138 0.198778 0.332782
C71   C     C_R   0.367632 0.965675 0.192036 0.199537
C72   C     C_R   0.592005 0.106587 0.299797 0.274523
C73   C     C_R   0.128616 0.449528 0.305754 0.223238
C74   C     C_R   0.411829 0.891463 0.298265 0.277423
C75   C     C_R   0.877771 0.559678 0.301715 0.234925
C76   C     C_R   0.632378 0.040298 0.703445 0.326800
C77   C     C_R   0.133061 0.532078 0.692813 0.192334
C78   C     C_R   0.363247 0.968019 0.698953 0.368380
C79   C     C_R   0.641300 0.000284 0.998923 0.961777
C80   C     C_R   0.867755 0.465586 0.691958 0.197456
C81   C     C_R   0.154202 0.630271 0.766416 0.297362
C82   C     C_R   0.695972 0.972534 0.784400 0.278716
C83   C     C_R   0.849984 0.366216 0.764408 0.296407
C84   C     C_R   0.307586 0.047369 0.776014 0.252281
C85   C     C_R   0.197759 0.527181 0.235386 0.275710
C86   C     C_R   0.676706 0.090337 0.214494 0.297943
C87   C     C_R   0.800275 0.494855 0.227247 0.291851
C88   C     C_R   0.326560 0.904855 0.212490 0.298754
C89   C     C_R   0.654943 0.129360 0.266838 0.292977
C90   C     C_R   0.499908 0.858816 0.502793 1.057914
C91   C     C_R   0.196692 0.475026 0.283357 0.281736
C92   C     C_R   0.349897 0.866356 0.264581 0.294845
C93   C     C_R   0.807546 0.546280 0.275739 0.269598
C94   C     C_R   0.697917 0.024196 0.736176 0.258069
C95   C     C_R   0.176002 0.591462 0.713986 0.297637
C96   C     C_R   0.299983 0.996060 0.727494 0.299262
C97   C     C_R   0.826844 0.404577 0.712200 0.296086
C98   C     C_R   0.140824 0.999643 0.999984 0.899664
C99   C     C_R   0.000141 0.859178 0.000033 0.904919
C100  C     C_R   0.859168 0.000221 0.999727 0.907972
C101  C     C_R   0.858682 0.499730 0.499334 0.955667
C102  C     C_R   0.000082 0.140822 0.000202 0.902887
C103  C     C_R   0.640826 0.499778 0.499980 0.900948
C104  C     C_R   0.500173 0.359178 0.500032 0.907683
C105  C     C_R   0.359167 0.500114 0.499731 0.911400
C106  C     C_R   0.500028 0.640822 0.500203 0.904451
C107  C     C_R   0.063079 0.522407 0.718679 -0.143194
C108  C     C_R   0.566676 0.003703 0.721120 -0.143930
C109  C     C_R   0.937337 0.477419 0.718365 -0.138045
C110  C     C_R   0.433020 0.991331 0.720832 -0.136964
C111  C     C_R   0.064538 0.480110 0.280814 -0.109704
C112  C     C_R   0.500150 0.141207 0.502812 1.058893
C113  C     C_R   0.552349 0.043332 0.279433 -0.144673
C114  C     C_R   0.936601 0.516550 0.280773 -0.165885
C115  C     C_R   0.448699 0.956518 0.278959 -0.144295
C116  C     C_R   0.563127 0.022292 0.218697 -0.146660
C117  C     C_R   0.066794 0.505139 0.220765 -0.121370
C118  C     C_R   0.437310 0.977412 0.218369 -0.139430
C119  C     C_R   0.933290 0.490932 0.220763 -0.123877
C120  C     C_R   0.563886 0.978625 0.781127 -0.117409
C121  C     C_R   0.052273 0.543459 0.779407 -0.143094
C122  C     C_R   0.436521 0.017044 0.780819 -0.167070
C123  C     C_R   0.141300 0.500258 0.498938 0.961464
C124  C     C_R   0.948709 0.456487 0.778945 -0.144239
C125  C     C_R   0.000034 0.500192 0.685925 -0.073065
C126  C     C_R   0.499895 0.997235 0.687280 0.027689
C127  C     C_R   0.000780 0.499047 0.313820 0.023845
C128  C     C_R   0.500133 0.000353 0.312742 -0.047540
C129  C     C_R   0.500035 0.000170 0.185927 -0.072156
C130  C     C_R   0.000009 0.497609 0.187148 0.024246
C131  C     C_R   0.500439 0.998847 0.813944 0.027029
C132  C     C_R   0.000131 0.500359 0.812734 -0.046653
C133  C     C_1   0.000120 0.217334 0.001175 -0.145989
C134  C     C_1   0.000005 0.282202 0.002541 -0.039040
C135  C     C_1   0.217330 0.999103 0.999591 -0.163438
C136  C     C_1   0.000211 0.782665 0.000725 -0.122186
C137  C     C_1   0.782656 0.000765 0.998674 -0.104795
C138  C     C_1   0.500031 0.717333 0.501185 -0.143395
C139  C     C_1   0.717333 0.499318 0.499575 -0.161220
C140  C     C_1   0.500269 0.282663 0.500721 -0.119760
C141  C     C_1   0.282655 0.500543 0.498703 -0.104708
C142  C     C_3   0.757481 0.311159 0.817875 0.194253
C143  C     C_3   0.735681 0.237627 0.846586 -0.283276
C144  C     C_3   0.669224 0.245228 0.888357 -0.918415
H1    H     H_    0.710196 0.332913 0.791323 0.185928
H2    H     H_    0.175272 0.138568 0.926353 0.173194
H3    H     H_    0.837678 0.000366 0.685237 0.105118
H4    H     H_    0.870584 0.092375 0.606643 0.165915
H5    H     H_    0.802118 0.153989 0.635254 0.258612
H6    H     H_    0.867422 0.162355 0.735979 0.328735
H7    H     H_    0.927140 0.187199 0.673669 0.230399
H8    H     H_    0.935454 0.098129 0.709049 0.221841
H9    H     H_    0.192756 0.699310 0.640848 0.157120
H10   H     H_    0.190593 0.612733 0.599146 0.141468
H11   H     H_    0.326791 0.708432 0.626981 0.281729
H12   H     H_    0.328672 0.619799 0.590913 0.243686
H13   H     H_    0.226179 0.195378 0.874182 0.266136
H14   H     H_    0.252085 0.664651 0.504551 0.265251
H15   H     H_    0.331833 0.722651 0.514537 0.282180
H16   H     H_    0.243589 0.753223 0.541362 0.271650
H17   H     H_    0.936195 0.654155 0.830741 0.364843
H18   H     H_    0.713966 0.856773 0.900342 0.361822
H19   H     H_    0.069227 0.351331 0.830739 0.365422
H20   H     H_    0.388920 0.207852 0.916843 0.371511
H21   H     H_    0.171548 0.575596 0.081706 0.345742
H22   H     H_    0.600206 0.864533 0.165229 0.361493
H23   H     H_    0.759974 0.406706 0.094366 0.362112
H24   H     H_    0.129813 0.178509 0.794102 0.282747
H25   H     H_    0.394791 0.133411 0.159238 0.360533
H26   H     H_    0.436784 0.154480 0.330646 0.364762
H27   H     H_    0.215452 0.361031 0.399681 0.360102
H28   H     H_    0.569253 0.851304 0.330914 0.364772
H29   H     H_    0.887835 0.707336 0.416530 0.372389
H30   H     H_    0.665930 0.160745 0.572842 0.372121
H31   H     H_    0.101031 0.364906 0.664197 0.362461
H32   H     H_    0.310354 0.866718 0.561200 0.367654
H33   H     H_    0.894589 0.633345 0.659015 0.360753
H34   H     H_    0.090120 0.210938 0.864766 0.283954
H35   H     H_    0.080090 0.115747 0.843389 0.239545
H36   H     H_    0.293972 0.654895 0.794677 0.176875
H37   H     H_    0.232417 0.645230 0.859500 0.140997
H38   H     H_    0.293507 0.791372 0.808952 0.252548
H39   H     H_    0.231743 0.781552 0.872745 0.246086
H40   H     H_    0.388168 0.718262 0.865022 0.294053
H41   H     H_    0.771556 0.350430 0.855646 0.137428
H42   H     H_    0.326005 0.708071 0.929177 0.258556
H43   H     H_    0.360310 0.797799 0.908438 0.274466
H44   H     H_    0.788488 0.899446 0.734965 0.113748
H45   H     H_    0.786159 0.847605 0.805051 0.197682
H46   H     H_    0.897666 0.970617 0.780009 0.226958
H47   H     H_    0.893916 0.911084 0.845731 0.260581
H48   H     H_    0.918467 0.863082 0.711389 0.247599
H49   H     H_    0.910067 0.801248 0.776015 0.294230
H50   H     H_    0.985353 0.865432 0.772436 0.294206
H51   H     H_    0.709990 0.433341 0.288616 0.041801
H52   H     H_    0.722699 0.197167 0.809796 0.283350
H53   H     H_    0.682166 0.382093 0.222959 0.193216
H54   H     H_    0.580989 0.449031 0.283498 0.173525
H55   H     H_    0.616988 0.533390 0.253554 0.253405
H56   H     H_    0.596668 0.488671 0.146269 0.294369
H57   H     H_    0.512929 0.486735 0.190049 0.233421
H58   H     H_    0.561182 0.402471 0.175453 0.250837
H59   H     H_    0.311011 0.796318 0.138074 0.142845
H60   H     H_    0.313709 0.883501 0.097892 0.143452
H61   H     H_    0.176035 0.789327 0.122325 0.295807
H62   H     H_    0.176942 0.877345 0.085690 0.238454
H63   H     H_    0.782492 0.216191 0.873805 0.253303
H64   H     H_    0.256689 0.828312 0.002229 0.251353
H65   H     H_    0.173270 0.775229 0.009211 0.291857
H66   H     H_    0.258029 0.739588 0.039459 0.280176
H67   H     H_    0.265510 0.525834 0.138793 0.066993
H68   H     H_    0.339200 0.504703 0.190034 0.113714
H69   H     H_    0.374869 0.595739 0.110377 0.165340
H70   H     H_    0.306470 0.657982 0.138325 0.266934
H71   H     H_    0.369630 0.663088 0.240624 0.329834
H72   H     H_    0.429945 0.690232 0.179334 0.234817
H73   H     H_    0.438348 0.600147 0.212835 0.219903
H74   H     H_    0.621281 0.265292 0.861866 0.298803
H75   H     H_    0.697539 0.201656 0.145978 0.161499
H76   H     H_    0.691575 0.117746 0.100661 0.136779
H77   H     H_    0.832916 0.203835 0.132629 0.286850
H78   H     H_    0.828437 0.119395 0.090134 0.236595
H79   H     H_    0.751904 0.178743 0.009361 0.247248
H80   H     H_    0.837194 0.227745 0.020721 0.286308
H81   H     H_    0.753701 0.264080 0.052330 0.285657
H82   H     H_    0.209751 0.831771 0.291156 0.188604
H83   H     H_    0.270806 0.851396 0.355272 0.133600
H84   H     H_    0.225487 0.696222 0.311547 0.284619
H85   H     H_    0.681580 0.284115 0.926464 0.258968
H86   H     H_    0.283290 0.718360 0.376088 0.253219
H87   H     H_    0.121179 0.763030 0.360596 0.300357
H88   H     H_    0.179468 0.785316 0.425728 0.257846
H89   H     H_    0.155795 0.690899 0.409011 0.276973
H90   H     H_    0.772393 0.565244 0.383011 0.125318
H91   H     H_    0.687460 0.530851 0.353250 0.124535
H92   H     H_    0.674828 0.637869 0.425640 0.173349
H93   H     H_    0.725728 0.694453 0.373315 0.266288
H94   H     H_    0.629430 0.677029 0.293204 0.282093
H95   H     H_    0.589755 0.709991 0.363698 0.284563
H96   H     H_    0.655088 0.190848 0.908205 0.276942
H97   H     H_    0.579659 0.614641 0.342788 0.238902
H98   H     H_    0.794794 0.152450 0.295198 0.177388
H99   H     H_    0.733213 0.143467 0.360082 0.141572
H100  H     H_    0.795534 0.289067 0.309484 0.254087
H101  H     H_    0.734241 0.279595 0.373628 0.246907
H102  H     H_    0.863100 0.294547 0.408734 0.275427
H103  H     H_    0.890107 0.215175 0.364723 0.293178
H104  H     H_    0.828436 0.204849 0.429176 0.257990
H105  H     H_    0.290421 0.401867 0.235057 0.113396
H106  H     H_    0.285836 0.350767 0.305465 0.200436
H107  H     H_    0.272793 0.066145 0.883407 0.125872
H108  H     H_    0.399793 0.471758 0.281968 0.223920
H109  H     H_    0.393363 0.412261 0.347521 0.261833
H110  H     H_    0.420219 0.363635 0.213695 0.247112
H111  H     H_    0.409600 0.302185 0.278355 0.293891
H112  H     H_    0.485819 0.365313 0.275720 0.294931
H113  H     H_    0.209546 0.934746 0.788875 0.025584
H114  H     H_    0.181798 0.883550 0.723178 0.198915
H115  H     H_    0.080325 0.949783 0.783411 0.174327
H116  H     H_    0.116385 0.034570 0.754289 0.252146
H117  H     H_    0.096492 0.991385 0.646636 0.301211
H118  H     H_    0.187773 0.031900 0.853674 0.124770
H119  H     H_    0.012577 0.988011 0.690129 0.227987
H120  H     H_    0.061594 0.904426 0.674744 0.251192
H121  H     H_    0.812167 0.296093 0.636614 0.140134
H122  H     H_    0.816692 0.384132 0.597873 0.144192
H123  H     H_    0.678322 0.289545 0.617718 0.270785
H124  H     H_    0.679453 0.379377 0.584450 0.251546
H125  H     H_    0.760795 0.335541 0.500106 0.278240
H126  H     H_    0.677894 0.281288 0.504164 0.286852
H127  H     H_    0.762727 0.245100 0.534034 0.266666
H128  H     H_    0.760959 0.022947 0.637548 0.124633
O1    O     O_R   0.939380 0.392670 0.000020 -0.540491
O2    O     O_R   0.892670 0.560620 0.500020 -0.527138
O3    O     O_3   0.876087 0.655900 0.405031 -0.571994
O4    O     O_2   0.550791 0.148426 0.652693 -0.314442
O5    O     O_2   0.669952 0.182433 0.695969 -0.288089
O6    O     O_3   0.668091 0.111967 0.592550 -0.587737
O7    O     O_2   0.245093 0.473297 0.629597 -0.247007
O8    O     O_2   0.210747 0.416371 0.725917 -0.265103
O9    O     O_3   0.127953 0.391723 0.631725 -0.514099
O10   O     O_2   0.425860 0.854494 0.638507 -0.347878
O11   O     O_2   0.306119 0.833369 0.685208 -0.347208
O12   O     O_3   0.310521 0.911975 0.586465 -0.507508
O13   O     O_R   0.560620 0.107330 0.500020 -0.575709
O14   O     O_2   0.751169 0.521113 0.632003 -0.238916
O15   O     O_2   0.791185 0.581806 0.725795 -0.272194
O16   O     O_3   0.867737 0.603434 0.628085 -0.530283
O17   O     O_R   0.107330 0.439380 0.500020 -0.510807
O18   O     O_R   0.439380 0.107330 0.499980 -0.612379
O19   O     O_R   0.892670 0.439380 0.499980 -0.679998
O20   O     O_R   0.560620 0.892670 0.499980 -0.629664
O21   O     O_R   0.107330 0.560620 0.499980 -0.681038
O22   O     O_R   0.939380 0.500000 0.908420 -0.605202
O23   O     O_R   0.500000 0.060620 0.908420 -0.561856
O24   O     O_R   0.060620 0.500000 0.908420 -0.606898
O25   O     O_R   0.392670 0.060620 0.000020 -0.527533
O26   O     O_R   0.500000 0.939380 0.908420 -0.570864
O27   O     O_R   0.939380 0.500000 0.091580 -0.577750
O28   O     O_R   0.500000 0.939380 0.091580 -0.613273
O29   O     O_R   0.060620 0.500000 0.091580 -0.673418
O30   O     O_R   0.500000 0.060620 0.091580 -0.617184
O31   O     O_R   0.439380 1.000000 0.408420 -0.605052
O32   O     O_R   0.000000 0.560620 0.408420 -0.561609
O33   O     O_R   0.560620 1.000000 0.408420 -0.604599
O34   O     O_R   0.000000 0.439380 0.408420 -0.570996
O35   O     O_R   0.439380 0.000000 0.591580 -0.584234
O36   O     O_R   0.060620 0.607330 0.000020 -0.578603
O37   O     O_R   0.000000 0.439380 0.591580 -0.614347
O38   O     O_R   0.560620 0.000000 0.591580 -0.607743
O39   O     O_R   0.000000 0.560620 0.591580 -0.617249
O40   O     O_R   0.107300 0.999970 0.948290 -0.664811
O41   O     O_R   0.999970 0.892700 0.948290 -0.608675
O42   O     O_R   0.892700 0.000030 0.948290 -0.623038
O43   O     O_R   0.000030 0.107300 0.948290 -0.608140
O44   O     O_R   0.107300 0.000030 0.051710 -0.570722
O45   O     O_R   0.999970 0.107300 0.051710 -0.608376
O46   O     O_R   0.892700 0.999970 0.051710 -0.586184
O47   O     O_R   0.607330 0.939380 0.000020 -0.511370
O48   O     O_R   0.000030 0.892700 0.051710 -0.602523
O49   O     O_R   0.607300 0.499970 0.448290 -0.664836
O50   O     O_R   0.499970 0.392700 0.448290 -0.608694
O51   O     O_R   0.392700 0.500030 0.448290 -0.625042
O52   O     O_R   0.500030 0.607300 0.448290 -0.608219
O53   O     O_R   0.607300 0.500030 0.551710 -0.571333
O54   O     O_R   0.499970 0.607300 0.551710 -0.608321
O55   O     O_R   0.392700 0.499970 0.551710 -0.585575
O56   O     O_R   0.500030 0.392700 0.551710 -0.603703
O57   O     O_3   0.817267 0.299497 0.778186 -0.579485
O58   O     O_R   0.939380 0.607330 0.999980 -0.620421
O59   O     O_3   0.248511 0.091410 0.790700 -0.546809
O60   O     O_3   0.189323 0.695698 0.781042 -0.575190
O61   O     O_3   0.759478 0.956562 0.816581 -0.612150
O62   O     O_3   0.732387 0.480475 0.200941 -0.585538
O63   O     O_3   0.262166 0.883894 0.183372 -0.574986
O64   O     O_3   0.259462 0.571047 0.228281 -0.551443
O65   O     O_3   0.742147 0.108425 0.186295 -0.579956
O66   O     O_3   0.317223 0.799631 0.278416 -0.580989
O67   O     O_3   0.748272 0.590160 0.290202 -0.547961
O68   O     O_3   0.690576 0.194436 0.281707 -0.577568
O69   O     O_R   0.392670 0.939380 0.999980 -0.679771
O70   O     O_3   0.260450 0.460313 0.315644 -0.614171
O71   O     O_3   0.231974 0.982020 0.701251 -0.545650
O72   O     O_3   0.763012 0.383006 0.682513 -0.575545
O73   O     O_3   0.760916 0.065967 0.728185 -0.552296
O74   O     O_3   0.240872 0.610623 0.685294 -0.582045
O75   O     O_2   0.100444 0.684979 0.902103 -0.314268
O76   O     O_2   0.048693 0.745317 0.813135 -0.297715
O77   O     O_3   0.965803 0.651824 0.868875 -0.586452
O78   O     O_2   0.543455 0.831808 0.841230 -0.228795
O79   O     O_2   0.660865 0.805254 0.795695 -0.304442
O80   O     O_R   0.060620 0.392670 0.999980 -0.638683
O81   O     O_3   0.660435 0.854514 0.907428 -0.503573
O82   O     O_2   0.905923 0.310620 0.898754 -0.313987
O83   O     O_2   0.961694 0.255137 0.809075 -0.303992
O84   O     O_3   0.039038 0.351052 0.868429 -0.598044
O85   O     O_2   0.477711 0.168197 0.821900 -0.257493
O86   O     O_2   0.353157 0.205294 0.795778 -0.218719
O87   O     O_3   0.376792 0.156521 0.905272 -0.571761
O88   O     O_2   0.048066 0.647932 0.149614 -0.300918
O89   O     O_2   0.158998 0.686507 0.203407 -0.251497
O90   O     O_3   0.173735 0.626754 0.096867 -0.570973
O91   O     O_R   0.607330 0.060620 0.999980 -0.680736
O92   O     O_2   0.744162 0.972342 0.128783 -0.246365
O93   O     O_2   0.711285 0.915827 0.225612 -0.264444
O94   O     O_3   0.627042 0.890803 0.132400 -0.514526
O95   O     O_2   0.927657 0.353070 0.140057 -0.311647
O96   O     O_2   0.807881 0.331625 0.185855 -0.361330
O97   O     O_3   0.813235 0.408023 0.085719 -0.516577
O98   O     O_2   0.251308 0.021382 0.131836 -0.238287
O99   O     O_2   0.291073 0.081953 0.225749 -0.270840
O100  O     O_3   0.367959 0.103598 0.128230 -0.530621
O101  O     O_2   0.601010 0.184750 0.402201 -0.318018
O102  O     O_R   0.439380 0.892670 0.500020 -0.581669
O103  O     O_2   0.549738 0.245054 0.313021 -0.298380
O104  O     O_3   0.466311 0.152061 0.368819 -0.583884
O105  O     O_2   0.045072 0.333305 0.340619 -0.228021
O106  O     O_2   0.162327 0.307133 0.294849 -0.303596
O107  O     O_3   0.162051 0.356347 0.406654 -0.503191
O108  O     O_2   0.405844 0.810894 0.398885 -0.319708
O109  O     O_2   0.461697 0.755217 0.309346 -0.307331
O110  O     O_3   0.539031 0.851158 0.368585 -0.596042
O111  O     O_2   0.977070 0.667904 0.321750 -0.256167
O112  O     O_2   0.852397 0.704414 0.295462 -0.219643
S1    S     S_3+6 0.051513 0.673924 0.847377 0.008498
S2    S     S_3+6 0.123244 0.359432 0.336698 0.067481
S3    S     S_3+6 0.454792 0.825520 0.345130 -0.001611
S4    S     S_3+6 0.897243 0.649477 0.330338 0.069554
S5    S     S_3+6 0.628605 0.123754 0.661327 0.027770
S6    S     S_3+6 0.181206 0.452722 0.669244 0.060679
S7    S     S_3+6 0.352889 0.888606 0.652116 0.035029
S8    S     S_3+6 0.817344 0.543580 0.668777 0.052775
S9    S     S_3+6 0.621736 0.857649 0.837437 0.069466
S10   S     S_3+6 0.954807 0.325376 0.844979 -0.001088
S11   S     S_3+6 0.397818 0.150114 0.830551 0.070294
S12   S     S_3+6 0.126270 0.627845 0.162904 0.052094
S13   S     S_3+6 0.680888 0.951947 0.169155 0.062245
S14   S     S_3+6 0.854342 0.386996 0.152557 0.035241
S15   S     S_3+6 0.317386 0.043748 0.168771 0.053685
S16   S     S_3+6 0.552158 0.173754 0.347414 0.009556
Zn1   Zn    Zn3+2 0.919060 0.500000 0.000000 1.126713
Zn2   Zn    Zn3+2 0.000000 1.000000 0.069040 1.090604
Zn3   Zn    Zn3+2 0.500000 0.500000 0.430960 0.940376
Zn4   Zn    Zn3+2 0.500000 0.500000 0.569040 1.090437
Zn5   Zn    Zn3+2 0.500000 0.080940 0.000000 1.037244
Zn6   Zn    Zn3+2 0.080940 0.500000 0.000000 1.012479
Zn7   Zn    Zn3+2 0.500000 0.919060 0.000000 1.078890
Zn8   Zn    Zn3+2 0.419060 0.000000 0.500000 1.118310
Zn9   Zn    Zn3+2 0.000000 0.580940 0.500000 1.039189
Zn10  Zn    Zn3+2 0.580940 0.000000 0.500000 1.068312
Zn11  Zn    Zn3+2 0.000000 0.419060 0.500000 1.078354
Zn12  Zn    Zn3+2 0.000000 0.000000 0.930960 0.942427

loop_
_geom_bond_atom_site_label_1
_geom_bond_atom_site_label_2
_ccdc_geom_bond_type
C38   H112  S    
C69   C116  A    
C82   C94   A    
C108  C120  A    
C19   C20   S    
O20   Zn10  S    
C62   O37   A    
C49   H9    S    
C17   H62   S    
C18   H66   S    
C1    O80   A    
C81   C95   A    
C143  C144  S    
C105  O55   A    
C119  C130  A    
C11   H48   S    
C74   C92   A    
C5    H35   S    
C22   H76   S    
C76   C94   A    
H29   O3    S    
C78   C96   A    
C34   H102  S    
C36   H106  S    
C66   C122  A    
C6    O60   S    
O4    S5    D    
C42   H122  S    
O40   Zn12  S    
C16   O63   S    
O55   Zn4   S    
O103  S16   D    
C9    H45   S    
C45   C47   S    
C8    H43   S    
O99   S15   D    
C67   C85   A    
C98   O40   A    
C19   H68   S    
C144  H85   S    
O56   Zn4   S    
C72   C113  A    
C104  C140  S    
O108  S3    D    
C97   O72   S    
O1    Zn1   S    
C43   C44   S    
O22   Zn1   S    
C144  H74   S    
C37   C38   S    
O21   Zn9   S    
O100  S15   S    
C55   O26   A    
C23   H78   S    
C41   H119  S    
C49   O74   S    
C115  C118  A    
C21   H72   S    
O9    S6    S    
C104  O56   A    
O84   S10   S    
C90   O102  A    
C38   H110  S    
C81   O60   S    
C75   C93   A    
C32   H98   S    
C11   H49   S    
C85   O64   S    
C4    C5    S    
C58   O28   A    
C6    C7    S    
C54   C132  S    
C14   H55   S    
C10   H47   S    
C64   C120  A    
C7    H39   S    
C83   O57   S    
O76   S1    D    
C62   O39   A    
C118  C129  A    
C143  H52   S    
C84   O59   S    
C25   H81   S    
C99   C136  S    
C91   O70   S    
C64   S9    S    
C32   O68   S    
C70   S14   S    
C100  C137  S    
C71   C88   A    
C22   O65   S    
O88   S12   D    
C20   C21   S    
C103  O53   A    
C48   H7    S    
O53   Zn4   S    
C22   C23   S    
C108  C126  A    
C16   H60   S    
O106  S2    D    
C54   O24   A    
C46   C139  T    
C22   H75   S    
C80   C97   A    
C40   H116  S    
C2    C57   S    
C79   O91   A    
C7    C8    S    
C67   S12   S    
O82   S10   D    
C65   S10   S    
C36   C37   S    
C3    H107  S    
O29   Zn6   S    
C57   O25   A    
C42   O72   S    
C52   C112  S    
C58   C129  S    
O96   S14   D    
O97   S14   S    
C124  C132  A    
C65   C124  A    
C104  O50   A    
O111  S4    D    
C29   H91   S    
O10   S7    D    
O83   S10   D    
O49   Zn3   S    
C9    C10   S    
C28   H88   S    
C114  C119  A    
C80   S8    S    
C55   O23   A    
C21   H73   S    
H20   O87   S    
C70   C87   A    
O112  S4    D    
O5    S5    D    
C15   H57   S    
C61   O35   A    
C59   O31   A    
C63   S1    S    
C60   O32   A    
C46   C101  S    
O28   Zn7   S    
H18   O81   S    
C107  C125  A    
C39   C40   S    
C8    H42   S    
C98   C135  S    
C115  C128  A    
H19   O84   S    
H23   O97   S    
C20   H70   S    
C43   H123  S    
C29   C30   S    
O26   Zn7   S    
C39   H114  S    
O87   S11   S    
H22   O94   S    
C24   C79   S    
C4    H13   S    
C50   H11   S    
C106  O54   A    
O80   Zn6   S    
C17   C18   S    
O24   Zn6   S    
O52   Zn3   S    
O2    Zn9   S    
C54   O22   A    
C31   H94   S    
C110  C126  A    
C29   O67   S    
O14   S8    D    
O46   Zn2   S    
C101  O2    A    
C112  O13   A    
C121  C132  A    
C3    C4    S    
C123  O21   A    
C122  C131  A    
C59   O33   A    
C142  H41   S    
C30   H92   S    
C6    H36   S    
C45   H3    S    
C68   O36   A    
C41   H120  S    
C66   S11   S    
O15   S8    D    
C12   O62   S    
O38   Zn10  S    
C100  O42   A    
C87   O62   S    
O75   S1    D    
C24   C137  T    
C2    C135  T    
C86   O65   S    
C111  C117  A    
O98   S15   D    
C17   H61   S    
H32   O12   S    
C102  C133  S    
O89   S12   D    
C111  C127  A    
C15   H56   S    
C61   O38   A    
O110  S3    S    
C74   C115  A    
C87   C93   A    
C5    H34   S    
C10   C11   S    
C88   O63   S    
H27   O107  S    
C102  O45   A    
O31   Zn8   S    
C49   C50   S    
C34   H103  S    
C14   C15   S    
C36   O70   S    
C56   C130  S    
C44   H125  S    
C13   C68   S    
C45   H128  S    
C48   H6    S    
C120  C131  A    
O58   Zn1   S    
O104  S16   S    
C73   C111  A    
O105  S2    D    
O32   Zn9   S    
C9    H44   S    
C113  C128  A    
C9    O61   S    
H26   O104  S    
C26   C27   S    
C19   H67   S    
C30   C31   S    
O77   S1    S    
C51   H16   S    
C25   H80   S    
C5    H24   S    
O95   S14   D    
C94   O73   S    
C143  H63   S    
C23   H77   S    
C90   O20   A    
C16   C17   S    
C80   C109  A    
C64   C82   A    
C76   S5    S    
C21   H71   S    
C33   H101  S    
C61   C126  S    
C71   C118  A    
O48   Zn2   S    
C38   H111  S    
C76   C108  A    
C142  H1    S    
H28   O110  S    
C96   O71   S    
O44   Zn2   S    
O81   S9    S    
C82   O61   S    
C56   O27   A    
O85   S11   D    
C19   O64   S    
O41   Zn12  S    
O6    S5    S    
C49   H10   S    
C99   O41   A    
C18   H65   S    
C93   O67   S    
O45   Zn2   S    
O69   Zn7   S    
O27   Zn1   S    
C27   H86   S    
C102  O43   A    
C39   O71   S    
C3    H118  S    
C36   H105  S    
C109  C124  A    
C42   H121  S    
C67   C117  A    
C58   O30   A    
C44   H127  S    
O35   Zn8   S    
C55   C131  S    
C48   H8    S    
O107  S2    S    
O51   Zn3   S    
C133  C134  T    
C12   H51   S    
O54   Zn4   S    
C42   C43   S    
C107  C121  A    
C68   O58   A    
C101  O19   A    
O8    S6    D    
O39   Zn9   S    
C31   H95   S    
O7    S6    D    
C31   H97   S    
C60   C127  S    
C86   C89   A    
C62   C125  S    
C37   H108  S    
C3    O59   S    
O23   Zn5   S    
C51   H14   S    
C32   C33   S    
C26   H83   S    
C41   H117  S    
C110  C122  A    
C114  C127  A    
C26   H82   S    
C52   C140  T    
C53   C141  T    
O86   S11   D    
C99   O48   A    
C123  O17   A    
C29   H90   S    
C106  C138  S    
C60   O34   A    
O91   Zn5   S    
C35   C90   S    
O30   Zn5   S    
O25   Zn5   S    
C83   C97   A    
C105  O51   A    
O78   S9    D    
C142  C143  S    
C100  O46   A    
O13   Zn10  S    
H17   O77   S    
O12   S7    S    
C112  O18   A    
C11   H50   S    
C85   C91   A    
H21   O90   S    
C14   H54   S    
C144  H96   S    
C10   H46   S    
C63   C81   A    
C18   H64   S    
O19   Zn11  S    
C35   C138  T    
C105  C141  S    
C27   H84   S    
C65   C83   A    
C77   S6    S    
C75   S4    S    
C71   S15   S    
C84   C96   A    
C72   S16   S    
C73   S2    S    
C39   H113  S    
C116  C129  A    
C47   H5    S    
C50   H12   S    
C12   H53   S    
C16   H59   S    
C56   O29   A    
C1    O1    A    
C28   H89   S    
C113  C116  A    
C8    H40   S    
O92   S13   D    
C63   C121  A    
C40   H115  S    
C57   O69   A    
C50   C51   S    
O79   S9    D    
C6    H37   S    
C88   C92   A    
O33   Zn10  S    
C77   C107  A    
O101  S16   D    
C73   C91   A    
C53   C123  S    
O16   S8    S    
O18   Zn8   S    
C59   C128  S    
C77   C95   A    
O94   S13   S    
C103  C139  S    
O109  S3    D    
O90   S12   S    
C47   C48   S    
O34   Zn11  S    
C4    H2    S    
C33   C34   S    
C78   C110  A    
C75   C114  A    
C79   O47   A    
O102  Zn8   S    
C117  C130  A    
C28   H87   S    
O47   Zn7   S    
O50   Zn3   S    
O42   Zn12  S    
C109  C125  A    
C40   C41   S    
H30   O6    S    
C12   C14   S    
O37   Zn11  S    
C89   O68   S    
C32   H99   S    
C34   H104  S    
C13   C136  T    
C70   C119  A    
C30   H93   S    
C69   S13   S    
C1    C134  S    
C142  O57   S    
C15   H58   S    
C44   H126  S    
O3    S4    S    
C47   H4    S    
C106  O52   A    
C103  O49   A    
C7    H38   S    
C92   O66   S    
C98   O44   A    
O43   Zn12  S    
O17   Zn11  S    
H33   O16   S    
C45   O73   S    
C78   S7    S    
C37   H109  S    
O11   S7    D    
C20   H69   S    
C43   H124  S    
C26   O66   S    
C74   S3    S    
C72   C89   A    
C51   H15   S    
C25   H79   S    
C23   C25   S    
H25   O100  S    
C66   C84   A    
C95   O74   S    
O36   Zn6   S    
C27   C28   S    
C33   H100  S    
O93   S13   D    
H31   O9    S    
C69   C86   A    
