data_mof_unit_44138.cif
_audit_creation_date              2012-10-26T19:55:48-0400
_audit_creation_method            fapswitch 2.2
_symmetry_space_group_name_H-M    P1
_symmetry_Int_Tables_number       1
_space_group_crystal_system       triclinic
_cell_length_a                    10.851225
_cell_length_b                    10.871386
_cell_length_c                    9.569444
_cell_angle_alpha                 89.179148
_cell_angle_beta                  91.025451
_cell_angle_gamma                 92.05117
_cell_volume                      1127.87697644

loop_
_atom_site_label
_atom_site_type_symbol
_atom_type_description
_atom_site_fract_x
_atom_site_fract_y
_atom_site_fract_z
_atom_type_partial_charge
C1    C     C_R   0.504209 0.261962 0.502347 0.546598
C2    C     C_R   0.850450 0.424468 0.999216 -0.112532
C3    C     C_R   0.797642 0.305706 0.005638 -0.104716
C4    C     C_R   0.262431 0.502071 0.498651 0.549562
C5    C     C_R   0.789064 0.234612 0.885283 -0.127895
C6    C     C_R   0.830908 0.282844 0.757405 -0.073261
C7    C     C_R   0.883945 0.402417 0.750696 0.055255
C8    C     C_R   0.509158 0.109773 0.772681 -0.121466
C9    C     C_R   0.477986 0.043574 0.893232 -0.153638
C10   C     C_R   0.425609 0.926211 0.882807 -0.142035
C11   C     C_R   0.412942 0.871603 0.752551 -0.101106
C12   C     C_R   0.178765 0.726335 0.006431 -0.077421
C13   C     C_R   0.458066 0.932121 0.630386 0.022786
C14   C     C_R   0.490879 0.058668 0.637412 0.020559
C15   C     C_R   0.504266 0.126883 0.509172 -0.010632
C16   C     C_R   0.488861 0.736715 0.499804 0.529810
C17   C     C_R   0.504066 0.064464 0.381964 -0.174592
C18   C     C_R   0.492827 0.937642 0.379142 -0.182613
C19   C     C_R   0.474323 0.870069 0.502573 -0.009989
C20   C     C_R   0.661954 0.665226 0.143970 -0.161255
C21   C     C_R   0.746169 0.741675 0.071615 0.235794
C22   C     C_R   0.747630 0.739463 0.927203 0.251443
C23   C     C_R   0.932516 0.546438 0.388883 -0.156755
C24   C     C_R   0.663459 0.662060 0.856032 -0.126981
C25   C     C_R   0.578953 0.581438 0.925401 0.106252
C26   C     C_R   0.578643 0.582026 0.074856 0.103823
C27   C     C_R   0.425699 0.421757 0.073747 0.001675
C28   C     C_R   0.737523 0.497358 0.501736 0.534007
C29   C     C_R   0.425517 0.421994 0.925659 -0.012756
C30   C     C_R   0.162646 0.796080 0.125878 -0.070426
C31   C     C_R   0.131022 0.737664 0.251917 -0.051826
C32   C     C_R   0.115487 0.609046 0.258634 0.063304
C33   C     C_R   0.134557 0.539377 0.139146 -0.078870
C34   C     C_R   0.871405 0.496657 0.504928 -0.004940
C35   C     C_R   0.167201 0.598098 0.013662 -0.114666
C36   C     C_3   0.779217 0.912187 0.204839 -0.011435
C37   C     C_3   0.878185 0.008574 0.244560 -0.370012
C38   C     C_3   0.796474 0.890006 0.761615 -0.018819
C39   C     C_3   0.831373 0.858330 0.613209 -0.386043
C40   C     C_R   0.939788 0.451272 0.620526 -0.027371
C41   C     C_R   0.067616 0.454428 0.614574 -0.153749
C42   C     C_R   0.128524 0.502313 0.496999 -0.005819
C43   C     C_R   0.060056 0.549791 0.383134 -0.036886
C44   C     C_R   0.894401 0.472351 0.872635 -0.095725
Cu1   Cu    Cu3+1 0.499990 0.499990 0.640660 0.908538
Cu2   Cu    Cu3+1 0.500010 0.500010 0.359340 0.918107
H1    H     H_    0.198523 0.771671 0.907814 0.110492
H2    H     H_    0.500598 0.892345 0.279714 0.124775
H3    H     H_    0.364653 0.357836 0.128961 0.108466
H4    H     H_    0.171815 0.895480 0.119988 0.105160
H5    H     H_    0.669283 0.672239 0.254010 0.190946
H6    H     H_    0.672103 0.665489 0.746699 0.201271
H7    H     H_    0.364309 0.358257 0.869978 0.110698
H8    H     H_    0.114162 0.792605 0.342704 0.095244
H9    H     H_    0.120422 0.440245 0.142224 0.098914
H10   H     H_    0.179911 0.544464 0.920989 0.105921
H11   H     H_    0.880726 0.586300 0.302857 0.149501
H12   H     H_    0.764134 0.268467 0.103947 0.114003
H13   H     H_    0.119801 0.417797 0.702536 0.123747
H14   H     H_    0.936773 0.563940 0.869309 0.156379
H15   H     H_    0.857976 0.479206 0.092366 0.123580
H16   H     H_    0.732143 0.880301 0.301563 0.124205
H17   H     H_    0.711659 0.957084 0.132853 0.119713
H18   H     H_    0.925744 0.043638 0.149374 0.164176
H19   H     H_    0.835353 0.086625 0.296727 0.091513
H20   H     H_    0.946891 0.967787 0.317337 0.147341
H21   H     H_    0.841996 0.980129 0.786354 0.151119
H22   H     H_    0.695116 0.902522 0.766162 0.130056
H23   H     H_    0.749821 0.142083 0.891860 0.092080
H24   H     H_    0.784644 0.770988 0.579825 0.144412
H25   H     H_    0.802750 0.933176 0.540893 0.097160
H26   H     H_    0.932742 0.849189 0.606780 0.162327
H27   H     H_    0.824239 0.226578 0.664881 0.090659
H28   H     H_    0.515118 0.113620 0.283438 0.127926
H29   H     H_    0.553435 0.197820 0.791287 0.162063
H30   H     H_    0.492971 0.084428 0.994971 0.099335
H31   H     H_    0.397510 0.876464 0.976258 0.111976
H32   H     H_    0.366315 0.782302 0.749222 0.146758
N1    N     N_R   0.501190 0.501210 0.147910 -0.227253
N2    N     N_R   0.501230 0.501290 0.852040 -0.235121
O1    O     O_R   0.499990 0.319640 0.618810 -0.512663
O2    O     O_3   0.842518 0.802066 0.857868 -0.534372
O3    O     O_R   0.500000 0.319660 0.381240 -0.506003
O4    O     O_R   0.319640 0.500000 0.618780 -0.516022
O5    O     O_R   0.319650 0.500020 0.381210 -0.490100
O6    O     O_R   0.500000 0.680340 0.618760 -0.538644
O7    O     O_R   0.500010 0.680360 0.381190 -0.522972
O8    O     O_R   0.680350 0.499980 0.618790 -0.508136
O9    O     O_R   0.680360 0.500000 0.381220 -0.529397
O10   O     O_3   0.835240 0.812278 0.141850 -0.532521

loop_
_geom_bond_atom_site_label_1
_geom_bond_atom_site_label_2
_ccdc_geom_bond_type
C33   H9    S    
C24   H6    S    
C27   C29   A    
C25   N2    A    
C41   C42   A    
Cu2   O9    S    
Cu1   Cu2   S    
C29   H7    S    
C34   C40   A    
C5    C6    A    
C22   O2    S    
C36   C37   S    
C20   H5    S    
C27   N1    A    
C38   C39   S    
C1    O1    A    
C23   C43   A    
C15   C17   A    
C18   C19   A    
C5    H23   S    
C39   H24   S    
C2    C44   A    
C8    C9    A    
C37   H19   S    
C28   O8    A    
C16   O7    A    
C7    C40   S    
C28   O9    A    
C1    C15   S    
C9    H30   S    
C36   H17   S    
C9    C10   A    
C2    H15   S    
Cu2   O5    S    
C30   H4    S    
C28   C34   S    
C13   C14   A    
C38   O2    S    
C16   O6    A    
C12   H1    S    
C36   H16   S    
C10   H31   S    
C21   O10   S    
C13   C19   A    
Cu1   O8    S    
C24   C25   A    
C41   H13   S    
C4    O5    A    
C25   C26   A    
C8    H29   S    
C11   H32   S    
C31   C32   A    
C4    O4    A    
C30   C31   A    
C39   H26   S    
C23   C34   A    
C37   H20   S    
C17   C18   A    
C7    C44   A    
C38   H21   S    
C12   C35   A    
C40   C41   A    
C38   H22   S    
C17   H28   S    
C22   C24   A    
Cu1   O4    S    
C42   C43   A    
C37   H18   S    
C6    H27   S    
Cu2   O7    S    
C36   O10   S    
C23   H11   S    
C8    C14   A    
C12   C30   A    
C35   H10   S    
Cu1   O1    S    
C3    C5    A    
C18   H2    S    
C6    C7    A    
C1    O3    A    
C26   N1    A    
C32   C33   A    
Cu1   O6    S    
C20   C26   A    
C11   C13   A    
Cu2   N1    S    
C29   N2    A    
C4    C42   S    
C44   H14   S    
C16   C19   S    
C33   C35   A    
C32   C43   S    
C2    C3    A    
Cu1   N2    S    
C31   H8    S    
C10   C11   A    
Cu2   O3    S    
C3    H12   S    
C20   C21   A    
C39   H25   S    
C14   C15   A    
C21   C22   A    
C27   H3    S    
