data_mof_unit_66497.cif
_audit_creation_date              2012-12-10T17:59:44-0500
_audit_creation_method            fapswitch 2.2
_symmetry_space_group_name_H-M    P1
_symmetry_Int_Tables_number       1
_space_group_crystal_system       triclinic
_cell_length_a                    30.810632
_cell_length_b                    31.963513
_cell_length_c                    21.732199
_cell_angle_alpha                 89.497847
_cell_angle_beta                  135.130449
_cell_angle_gamma                 90.494254
_cell_volume                      15098.4902193

loop_
_atom_site_label
_atom_site_type_symbol
_atom_type_description
_atom_site_fract_x
_atom_site_fract_y
_atom_site_fract_z
_atom_type_partial_charge
C1    C     C_R   0.499985 0.000183 0.381315 0.795083
C2    C     C_R   0.999985 0.500184 0.381315 0.795046
C3    C     C_3   0.459821 0.735681 0.500799 -0.155498
C4    C     C_3   0.471732 0.263478 0.523222 -0.157881
C5    C     C_3   0.958618 0.235688 0.498427 -0.155322
C6    C     C_3   0.970975 0.763478 0.522029 -0.157888
C7    C     C_3   0.499653 0.708889 0.498144 0.188198
C8    C     C_3   0.500180 0.291179 0.501054 0.188657
C9    C     C_3   0.999651 0.208889 0.498131 0.188226
C10   C     C_3   0.000180 0.791179 0.501054 0.188656
C11   C     C_3   0.516584 0.763586 0.571263 -0.154278
C12   C     C_3   0.530056 0.235740 0.580989 -0.156687
C13   C     C_3   0.014981 0.263579 0.570104 -0.154262
C14   C     C_3   0.029304 0.735735 0.580674 -0.156672
C15   C     C_3   0.556412 0.736130 0.568582 -0.155507
C16   C     C_3   0.558502 0.264141 0.558819 -0.156758
C17   C     C_3   0.056010 0.236117 0.569781 -0.155568
C18   C     C_3   0.058507 0.764134 0.559696 -0.156730
C19   C     C_1   0.499783 0.837178 0.499286 -0.083356
C20   C     C_1   0.500366 0.162867 0.500743 -0.073100
C21   C     C_1   0.999779 0.337179 0.499276 -0.083367
C22   C     C_1   0.000366 0.662867 0.500744 -0.073101
C23   C     C_1   0.499719 0.662939 0.498424 -0.073609
C24   C     C_1   0.500084 0.337106 0.500972 -0.074789
C25   C     C_1   0.999718 0.162940 0.498416 -0.073614
C26   C     C_1   0.000084 0.837106 0.500972 -0.074792
C27   C     C_R   0.458767 0.977224 0.239859 0.017268
C28   C     C_R   0.958777 0.477215 0.239869 0.017175
C29   C     C_R   0.500603 0.000507 0.315618 -0.114388
C30   C     C_R   0.000606 0.500505 0.315620 -0.114341
C31   C     C_R   0.545286 0.023703 0.327474 -0.188650
C32   C     C_R   0.045288 0.523702 0.327476 -0.188628
C33   C     C_R   0.545129 0.023829 0.262471 -0.208884
C34   C     C_R   0.045132 0.523827 0.262473 -0.208886
C35   C     C_R   0.499937 0.919855 0.499864 0.819922
C36   C     C_R   0.500112 0.080155 0.500119 0.821206
C37   C     C_R   0.999937 0.419855 0.499864 0.819900
C38   C     C_R   0.000112 0.580155 0.500119 0.821208
C39   C     C_R   0.501673 0.999597 0.186589 -0.035963
C40   C     C_R   0.001678 0.499594 0.186594 -0.035952
C41   C     C_R   0.460068 0.976149 0.178990 -0.026395
C42   C     C_R   0.960082 0.476139 0.179005 -0.026359
C43   C     C_3   0.404502 0.948976 0.117738 -0.588242
C44   C     C_3   0.904505 0.448975 0.117741 -0.588184
C45   C     C_3   0.402508 0.949814 0.187153 0.839709
C46   C     C_3   0.902502 0.449820 0.187147 0.839711
C47   C     C_R   0.470171 0.031101 0.687577 0.102640
C48   C     C_R   0.970173 0.531101 0.687579 0.102628
C49   C     C_R   0.501749 0.000373 0.687061 -0.074810
C50   C     C_R   0.001749 0.500373 0.687061 -0.074809
C51   C     C_R   0.540445 0.972889 0.758585 -0.207296
C52   C     C_R   0.040444 0.472888 0.758584 -0.207302
C53   C     C_R   0.540261 0.972741 0.822852 -0.216005
C54   C     C_R   0.040259 0.472741 0.822851 -0.216014
C55   C     C_R   0.502997 0.001094 0.817327 -0.085697
C56   C     C_R   0.002997 0.501094 0.817327 -0.085696
C57   C     C_R   0.471444 0.031814 0.752380 0.137605
C58   C     C_R   0.971445 0.531814 0.752382 0.137601
C59   C     C_R   0.500222 0.999733 0.618980 0.789588
C60   C     C_R   0.000222 0.499733 0.618980 0.789589
C61   C     C_3   0.405464 0.044396 0.689911 -0.486789
C62   C     C_3   0.905466 0.544398 0.689913 -0.486787
C63   C     C_3   0.404096 0.043479 0.618642 -0.458869
C64   C     C_3   0.904098 0.543481 0.618645 -0.458866
C65   C     C_R   0.381331 0.500128 0.381279 0.798339
C66   C     C_R   0.881331 0.000127 0.381279 0.798337
C67   C     C_R   0.499925 0.580192 0.499673 0.821057
C68   C     C_R   0.499947 0.419820 0.500175 0.823772
C69   C     C_R   0.999925 0.080192 0.499673 0.821054
C70   C     C_R   0.999947 0.919820 0.500175 0.823770
C71   C     C_R   0.618694 0.500271 0.618864 0.793758
C72   C     C_R   0.118694 0.000271 0.618864 0.793758
C73   C     C_R   0.618838 0.000093 0.118930 0.804106
C74   C     C_R   0.118838 0.500093 0.118929 0.804107
C75   C     C_R   0.500031 0.999845 0.118825 0.813519
C76   C     C_R   0.000032 0.499845 0.118826 0.813506
C77   C     C_R   0.380968 0.999884 0.880878 0.800911
C78   C     C_R   0.880968 0.499884 0.880878 0.800909
C79   C     C_R   0.500074 0.000204 0.880987 0.799554
C80   C     C_R   0.000074 0.500204 0.880987 0.799551
C81   C     C_R   0.280673 0.476633 0.241011 0.126963
C82   C     C_R   0.780673 0.976624 0.241023 0.126952
C83   C     C_3   0.482772 0.736576 0.425541 -0.156322
C84   C     C_3   0.470462 0.264229 0.420993 -0.157320
C85   C     C_3   0.984366 0.236584 0.426669 -0.156369
C86   C     C_3   0.971214 0.764235 0.421310 -0.157351
C87   C     C_R   0.315077 0.501054 0.315270 -0.089521
C88   C     C_R   0.815077 0.001054 0.315270 -0.089502
C89   C     C_R   0.282787 0.526418 0.324672 -0.208112
C90   C     C_R   0.782788 0.026427 0.324660 -0.208125
C91   C     C_R   0.717921 0.026705 0.259470 -0.214128
C92   C     C_R   0.217921 0.526696 0.259482 -0.214130
C93   C     C_R   0.685006 0.000520 0.186044 -0.086596
C94   C     C_R   0.185005 0.500520 0.186043 -0.086585
C95   C     C_R   0.718665 0.975694 0.180352 0.126117
C96   C     C_R   0.218664 0.475703 0.180339 0.126109
C97   C     C_3   0.713674 0.944393 0.125264 -0.485131
C98   C     C_3   0.213673 0.444414 0.125235 -0.485158
C99   C     C_3   0.284597 0.445113 0.195077 -0.469792
C100  C     C_3   0.784598 0.945093 0.195106 -0.469815
C101  C     C_R   0.717648 0.468842 0.688309 0.101379
C102  C     C_R   0.217648 0.968841 0.688310 0.101373
C103  C     C_R   0.685273 0.499700 0.686945 -0.076127
C104  C     C_R   0.185273 0.999700 0.686945 -0.076124
C105  C     C_R   0.717893 0.527444 0.757646 -0.208573
C106  C     C_R   0.217893 0.027445 0.757645 -0.208566
C107  C     C_3   0.539531 0.764513 0.496003 -0.158543
C108  C     C_3   0.528782 0.236499 0.478755 -0.155956
C109  C     C_3   0.040723 0.264508 0.498343 -0.158588
C110  C     C_3   0.029539 0.736498 0.479948 -0.155992
C111  C     C_R   0.282352 0.027667 0.821806 -0.213312
C112  C     C_R   0.782352 0.527666 0.821808 -0.213320
C113  C     C_R   0.314344 0.999136 0.817068 -0.089577
C114  C     C_R   0.814344 0.499136 0.817068 -0.089576
C115  C     C_R   0.281179 0.968207 0.753028 0.136768
C116  C     C_R   0.781179 0.468208 0.753027 0.136772
C117  C     C_3   0.284701 0.955217 0.690825 -0.485352
C118  C     C_3   0.784701 0.455219 0.690823 -0.485359
C119  C     C_3   0.714802 0.456047 0.619653 -0.458861
C120  C     C_3   0.214802 0.956045 0.619654 -0.458861
C121  C     C_1   0.499808 0.874919 0.499569 -0.165604
C122  C     C_1   0.500309 0.125114 0.500501 -0.171482
C123  C     C_1   0.999807 0.374919 0.499566 -0.165613
C124  C     C_1   0.000309 0.625114 0.500502 -0.171484
C125  C     C_1   0.499815 0.625173 0.498956 -0.173384
C126  C     C_1   0.500012 0.374860 0.500724 -0.176337
C127  C     C_1   0.999815 0.125173 0.498953 -0.173385
C128  C     C_1   0.000012 0.874860 0.500724 -0.176339
C129  C     C_3   0.442950 0.764061 0.428227 -0.160106
C130  C     C_3   0.442015 0.235835 0.443159 -0.157544
C131  C     C_3   0.943343 0.264076 0.426998 -0.160194
C132  C     C_3   0.942011 0.735841 0.442283 -0.157529
C133  C     C_3   0.499713 0.791272 0.498715 0.188475
C134  C     C_3   0.500336 0.208795 0.500923 0.188541
C135  C     C_3   0.999706 0.291273 0.498699 0.188502
C136  C     C_3   0.000336 0.708795 0.500924 0.188549
Cu1   Cu    Cu3+1 0.438230 0.000000 0.438170 0.979452
Cu2   Cu    Cu3+1 0.938230 0.500000 0.438170 0.979453
Cu3   Cu    Cu3+1 0.561800 0.000000 0.561830 0.945947
Cu4   Cu    Cu3+1 0.061800 0.500000 0.561830 0.945935
Cu5   Cu    Cu3+1 0.499880 0.500000 0.438060 0.944757
Cu6   Cu    Cu3+1 0.999880 0.000000 0.438060 0.944750
Cu7   Cu    Cu3+1 0.500000 0.500000 0.561790 0.949059
Cu8   Cu    Cu3+1 0.000000 0.000000 0.561790 0.949070
Cu9   Cu    Cu3+1 0.500030 0.958570 0.000020 0.940121
Cu10  Cu    Cu3+1 0.500030 0.041430 0.000020 0.944968
Cu11  Cu    Cu3+1 0.000030 0.458570 0.000020 0.940124
Cu12  Cu    Cu3+1 0.000030 0.541430 0.000020 0.944967
H1    H     H_    0.572268 0.776883 0.493952 0.128895
H2    H     H_    0.552253 0.224943 0.460458 0.130659
H3    H     H_    0.074442 0.276875 0.498221 0.129007
H4    H     H_    0.053633 0.724941 0.462632 0.130654
H5    H     H_    0.568292 0.950292 0.762393 0.150167
H6    H     H_    0.068290 0.450291 0.762391 0.150172
H7    H     H_    0.568049 0.950107 0.875521 0.151123
H8    H     H_    0.068047 0.450105 0.875519 0.151127
H9    H     H_    0.399979 0.076353 0.703352 0.203472
H10   H     H_    0.376063 0.019948 0.682266 0.186367
H11   H     H_    0.899983 0.576356 0.703356 0.203469
H12   H     H_    0.876064 0.519951 0.682267 0.186367
H13   H     H_    0.397782 0.074909 0.590981 0.195360
H14   H     H_    0.373952 0.018423 0.569721 0.211324
H15   H     H_    0.897786 0.574912 0.590985 0.195361
H16   H     H_    0.873953 0.518426 0.569722 0.211327
H17   H     H_    0.307460 0.546236 0.381311 0.155190
H18   H     H_    0.807461 0.046252 0.381289 0.155176
H19   H     H_    0.693729 0.046660 0.267045 0.149100
H20   H     H_    0.193728 0.546644 0.267066 0.149094
H21   H     H_    0.692121 0.957705 0.061412 0.192895
H22   H     H_    0.694006 0.914180 0.122019 0.205545
H23   H     H_    0.192120 0.457736 0.061390 0.192900
H24   H     H_    0.194005 0.414197 0.121974 0.205544
H25   H     H_    0.303994 0.458547 0.171365 0.207113
H26   H     H_    0.305846 0.415383 0.232511 0.193670
H27   H     H_    0.803995 0.958517 0.171387 0.207114
H28   H     H_    0.805847 0.915366 0.232555 0.193679
H29   H     H_    0.693668 0.550167 0.760861 0.150983
H30   H     H_    0.193668 0.050168 0.760858 0.150976
H31   H     H_    0.468861 0.725052 0.365564 0.133075
H32   H     H_    0.445935 0.276411 0.355163 0.131082
H33   H     H_    0.971768 0.225066 0.367631 0.133044
H34   H     H_    0.947307 0.776421 0.355739 0.131110
H35   H     H_    0.307027 0.050472 0.873802 0.157911
H36   H     H_    0.807027 0.550471 0.873804 0.157911
H37   H     H_    0.303944 0.923247 0.705232 0.202769
H38   H     H_    0.306148 0.979505 0.682309 0.186517
H39   H     H_    0.803944 0.423249 0.705228 0.202766
H40   H     H_    0.806148 0.479508 0.682308 0.186517
H41   H     H_    0.693775 0.424554 0.593020 0.194744
H42   H     H_    0.695718 0.480893 0.569920 0.211717
H43   H     H_    0.193774 0.924552 0.593024 0.194753
H44   H     H_    0.195718 0.980890 0.569921 0.211715
H45   H     H_    0.603106 0.724190 0.626323 0.130077
H46   H     H_    0.606427 0.276250 0.606409 0.129992
H47   H     H_    0.102376 0.224166 0.628523 0.130084
H48   H     H_    0.106436 0.776238 0.608007 0.130007
H49   H     H_    0.530494 0.775156 0.631215 0.129682
H50   H     H_    0.554578 0.223556 0.646816 0.131342
H51   H     H_    0.027576 0.275143 0.629116 0.129669
H52   H     H_    0.053206 0.723546 0.646241 0.131315
H53   H     H_    0.427008 0.723373 0.502748 0.130629
H54   H     H_    0.448259 0.275037 0.541514 0.131642
H55   H     H_    0.924819 0.223385 0.498436 0.130583
H56   H     H_    0.946879 0.775038 0.539341 0.131622
H57   H     H_    0.396303 0.776060 0.370470 0.133096
H58   H     H_    0.394088 0.223730 0.395565 0.132051
H59   H     H_    0.897027 0.276088 0.368242 0.133046
H60   H     H_    0.894080 0.723742 0.393968 0.132074
H61   H     H_    0.579241 0.042278 0.385658 0.154895
H62   H     H_    0.079239 0.542279 0.385657 0.154886
H63   H     H_    0.578911 0.042438 0.271669 0.141140
H64   H     H_    0.078909 0.542440 0.271668 0.141140
H65   H     H_    0.415287 0.917925 0.108783 0.188894
H66   H     H_    0.365900 0.965809 0.056207 0.191275
H67   H     H_    0.915282 0.417920 0.108787 0.188900
H68   H     H_    0.865912 0.465813 0.056211 0.191260
O1    O     O_R   0.447840 0.000000 0.357610 -0.545256
O2    O     O_R   0.947840 0.500000 0.357610 -0.545257
O3    O     O_R   0.500000 0.560470 0.552180 -0.583875
O4    O     O_R   0.500000 0.439530 0.552180 -0.578434
O5    O     O_R   0.000000 0.060470 0.552180 -0.583871
O6    O     O_R   0.000000 0.939530 0.552180 -0.578431
O7    O     O_R   0.590030 0.500000 0.537810 -0.587313
O8    O     O_R   0.090030 0.000000 0.537810 -0.587314
O9    O     O_R   0.590140 0.500000 0.642300 -0.585981
O10   O     O_R   0.090140 0.000000 0.642300 -0.585984
O11   O     O_R   0.590180 0.965000 0.090240 -0.587677
O12   O     O_R   0.590180 0.035000 0.090240 -0.588269
O13   O     O_R   0.090180 0.465000 0.090240 -0.587676
O14   O     O_R   0.090180 0.535000 0.090240 -0.588266
O15   O     O_R   0.500040 0.965010 0.090190 -0.584890
O16   O     O_R   0.500040 0.034990 0.090190 -0.591372
O17   O     O_R   0.000040 0.465010 0.090190 -0.584884
O18   O     O_R   0.000040 0.534990 0.090190 -0.591369
O19   O     O_R   0.409890 0.965030 0.909800 -0.584336
O20   O     O_R   0.409890 0.034970 0.909800 -0.587195
O21   O     O_R   0.909890 0.465030 0.909800 -0.584335
O22   O     O_R   0.909890 0.534970 0.909800 -0.587196
O23   O     O_R   0.500040 0.965020 0.909850 -0.589494
O24   O     O_R   0.500040 0.034980 0.909850 -0.582660
O25   O     O_R   0.000040 0.465020 0.909850 -0.589496
O26   O     O_R   0.000040 0.534980 0.909850 -0.582663
O27   O     O_R   0.552190 0.000000 0.462050 -0.597055
O28   O     O_R   0.052190 0.500000 0.462050 -0.597058
O29   O     O_R   0.447840 0.939540 0.447780 -0.571148
O30   O     O_R   0.447840 0.060460 0.447780 -0.580288
O31   O     O_R   0.947840 0.439540 0.447780 -0.571143
O32   O     O_R   0.947840 0.560460 0.447780 -0.580286
O33   O     O_R   0.552190 0.939560 0.552210 -0.586907
O34   O     O_R   0.552190 0.060440 0.552210 -0.581861
O35   O     O_R   0.052190 0.439560 0.552210 -0.586913
O36   O     O_R   0.052190 0.560440 0.552210 -0.581861
O37   O     O_R   0.447840 0.000000 0.537950 -0.590085
O38   O     O_R   0.947840 0.500000 0.537950 -0.590081
O39   O     O_R   0.552190 0.000000 0.642390 -0.586131
O40   O     O_R   0.052190 0.500000 0.642390 -0.586127
O41   O     O_R   0.409740 0.500000 0.357550 -0.585089
O42   O     O_R   0.909740 0.000000 0.357550 -0.585085
O43   O     O_R   0.409840 0.500000 0.462040 -0.587260
O44   O     O_R   0.909840 0.000000 0.462040 -0.587256
O45   O     O_R   0.499890 0.560480 0.447700 -0.579426
O46   O     O_R   0.499890 0.439520 0.447700 -0.583091
O47   O     O_R   0.999890 0.060480 0.447700 -0.579428
O48   O     O_R   0.999890 0.939520 0.447700 -0.583096
O49   O     O_3   0.408552 0.909766 0.222711 -0.611379
C137  C     C_3   0.468784 0.893095 0.282539 0.027138
H69   H     H_    0.498264 0.909967 0.345654 0.145217
H70   H     H_    0.489894 0.894871 0.257182 0.143870
C138  C     C_3   0.465960 0.847268 0.298997 -0.777559
H71   H     H_    0.439435 0.829121 0.237937 0.240570
H72   H     H_    0.513206 0.834323 0.349727 0.198230
H73   H     H_    0.443133 0.844049 0.321555 0.258358
O50   O     O_3   0.352302 0.973033 0.159878 -0.575096
C139  C     C_3   0.297535 0.949071 0.103593 0.121937
H74   H     H_    0.298146 0.925141 0.141682 0.183499
H75   H     H_    0.290823 0.933242 0.051870 0.133462
C140  C     C_3   0.242972 0.977780 0.059266 -0.823285
H76   H     H_    0.240825 0.001858 0.020013 0.252170
H77   H     H_    0.199649 0.959267 0.015475 0.202043
H78   H     H_    0.247549 0.993528 0.109003 0.255237
O51   O     O_3   0.908514 0.409771 0.222676 -0.611397
C141  C     C_3   0.968743 0.393095 0.282556 0.027152
H79   H     H_    0.998206 0.409980 0.345656 0.145192
H80   H     H_    0.989879 0.394849 0.257235 0.143863
C142  C     C_3   0.965898 0.347276 0.299038 -0.777559
H81   H     H_    0.939428 0.329110 0.238014 0.240484
H82   H     H_    0.013140 0.334334 0.349858 0.198593
H83   H     H_    0.942997 0.344081 0.321489 0.258205
O52   O     O_3   0.852306 0.473055 0.159870 -0.575094
C143  C     C_3   0.797524 0.449109 0.103567 0.121942
H84   H     H_    0.798113 0.425184 0.141641 0.183485
H85   H     H_    0.790812 0.433275 0.051846 0.133468
C144  C     C_3   0.742977 0.477836 0.059236 -0.823286
H86   H     H_    0.740854 0.501909 0.019996 0.252168
H87   H     H_    0.699643 0.459335 0.015429 0.202044
H88   H     H_    0.747556 0.493589 0.108968 0.255240

loop_
_geom_bond_atom_site_label_1
_geom_bond_atom_site_label_2
_ccdc_geom_bond_type
C24   C126  T    
C143  C144  S    
C73   C93   S    
C64   H16   S    
Cu9   Cu10  S    
C112  H36   S    
C141  H79   S    
Cu12  O22   S    
C86   C110  S    
C14   H52   S    
C110  H4    S    
C67   C125  S    
C54   H8    S    
C72   O8    A    
C77   O19   A    
C139  H74   S    
Cu6   O42   S    
C61   C63   S    
C62   C64   S    
C1    O27   A    
Cu7   O4    S    
C11   C15   S    
C12   C16   S    
C49   C51   A    
C50   C52   A    
C4    C12   S    
C5    C13   S    
C82   C88   A    
C48   C50   A    
C8    C16   S    
C3    C129  S    
C41   C43   S    
C130  C134  S    
Cu4   O35   S    
C42   C44   S    
C77   C113  S    
C44   C46   S    
C65   C87   S    
C54   C56   A    
C35   O29   A    
C59   O39   A    
C39   C41   A    
C73   O11   A    
C4    C130  S    
C81   C99   S    
C37   O35   A    
C40   C76   S    
Cu4   O28   S    
C32   C34   A    
C21   C123  T    
C65   O41   A    
C92   H20   S    
C31   H61   S    
C100  H27   S    
C92   C94   A    
C111  C113  A    
C94   C96   A    
C34   H64   S    
C129  C133  S    
C105  C112  A    
Cu10  O24   S    
C55   C57   A    
Cu6   Cu8   S    
Cu6   O47   S    
C63   H13   S    
C68   O4    A    
C44   H68   S    
Cu5   O45   S    
C105  H29   S    
C17   C109  S    
C95   C97   S    
C57   C61   S    
C3    C7    S    
C37   O31   A    
C142  H82   S    
C61   H10   S    
C85   C131  S    
Cu11  O13   S    
C10   C86   S    
C99   H26   S    
C10   C18   S    
C84   C130  S    
C116  C118  S    
C69   O5    A    
C3    C11   S    
C98   C99   S    
Cu1   O1    S    
C2    O2    A    
C12   H50   S    
C76   O18   A    
C20   C134  S    
C2    O28   A    
C21   C135  S    
C113  C115  A    
C7    C83   S    
C59   O37   A    
C110  C136  S    
Cu11  Cu12  S    
C131  H59   S    
C68   O46   A    
C90   C91   A    
C69   O47   A    
C70   O48   A    
Cu9   O11   S    
C28   C46   S    
C55   C79   S    
C14   C136  S    
C91   H19   S    
C65   O43   A    
C83   C129  S    
C66   O44   A    
C117  H38   S    
C66   C88   S    
C47   C57   A    
Cu11  O25   S    
C60   O40   A    
C80   O25   A    
C84   H32   S    
C9    C85   S    
C37   C123  S    
C38   O36   A    
C96   C98   S    
Cu2   O31   S    
C39   C75   S    
Cu3   O27   S    
C20   C122  T    
C98   H24   S    
C40   C42   A    
C93   C95   A    
C12   C134  S    
C140  H76   S    
Cu12  O26   S    
C13   C135  S    
C79   O24   A    
Cu7   O9    S    
C74   O13   A    
C67   O45   A    
C106  C111  A    
Cu7   O43   S    
C120  H43   S    
C97   H22   S    
C51   C53   A    
C46   O52   S    
C75   O15   A    
C5    C9    S    
C144  H86   S    
C130  H58   S    
C6    C14   S    
Cu1   O29   S    
C36   O34   A    
C132  C136  S    
C38   O32   A    
C111  H35   S    
O52   C143  S    
C103  C105  A    
C43   C45   S    
Cu8   O5    S    
C137  H70   S    
Cu5   O7    S    
C108  H2    S    
C53   H7    S    
C62   H12   S    
Cu12  O14   S    
C97   C100  S    
C71   C103  S    
C19   C121  T    
C85   H33   S    
C82   C95   A    
C13   H51   S    
C66   O42   A    
C137  C138  S    
C5    H55   S    
C114  C116  A    
C118  H39   S    
C141  H80   S    
C56   C80   S    
C13   C17   S    
C2    C30   S    
C50   C60   S    
C67   O3    A    
Cu10  O12   S    
C45   O50   S    
C45   O49   S    
C8    C24   S    
C56   C58   A    
C139  H75   S    
C75   O16   A    
C16   H46   S    
Cu7   O3    S    
C107  H1    S    
C141  C142  S    
C101  C103  A    
C140  H78   S    
Cu5   O41   S    
C43   H66   S    
C106  H30   S    
C38   C124  S    
C58   C62   S    
C139  C140  S    
C71   O9    A    
C74   C94   S    
Cu4   O36   S    
C119  H42   S    
C104  C106  A    
C9    C25   S    
Cu3   O33   S    
Cu1   Cu3   S    
C144  H88   S    
C85   C109  S    
Cu5   Cu7   S    
C47   C63   S    
C48   C64   S    
C109  C135  S    
C143  H84   S    
C15   C107  S    
C102  C115  A    
C51   H5    S    
C115  C117  S    
C100  H28   S    
C84   C108  S    
C4    C8    S    
C27   C45   S    
Cu9   O15   S    
C72   O10   A    
C138  H71   S    
C90   H18   S    
C78   C114  S    
Cu6   O48   S    
C64   H15   S    
C112  C114  A    
Cu11  O21   S    
C35   C121  S    
C117  C120  S    
C81   C96   A    
C7    C15   S    
C72   C104  S    
C18   H48   S    
C138  H72   S    
C77   O20   A    
C22   C136  S    
Cu3   O39   S    
C6    H56   S    
C142  H81   S    
C61   H9    S    
C91   C93   A    
C129  H57   S    
C4    H54   S    
C99   H25   S    
C81   C87   A    
C6    C132  S    
C88   C90   A    
C78   O21   A    
Cu9   O19   S    
C3    H53   S    
Cu3   O34   S    
C102  C120  S    
C8    C84   S    
C18   C110  S    
C49   C59   S    
C6    C10   S    
C73   O12   A    
C48   C58   A    
C83   H31   S    
C19   C133  S    
C120  H44   S    
C25   C127  T    
C107  C133  S    
C117  H37   S    
C1    C29   S    
C27   C29   A    
C28   C30   A    
C70   O6    A    
C80   O26   A    
Cu12  O18   S    
C15   H45   S    
C5    C131  S    
C69   C127  S    
C144  H87   S    
C138  H73   S    
C86   H34   S    
C101  C116  A    
C1    O1    A    
Cu2   O38   S    
C63   H14   S    
C44   H67   S    
C36   O30   A    
Cu5   O46   S    
C14   C18   S    
C79   O23   A    
C74   O14   A    
C78   O22   A    
C97   H21   S    
C47   C49   A    
Cu10  O16   S    
C108  C134  S    
C109  H3    S    
C33   C39   A    
C34   C40   A    
C142  H83   S    
C131  C135  S    
C11   C133  S    
C7    C23   S    
C52   H6    S    
C35   O33   A    
C32   H62   S    
C118  C119  S    
C31   C33   A    
C76   O17   A    
Cu4   O40   S    
O49   C137  S    
Cu8   O6    S    
C23   C125  T    
C10   C26   S    
Cu8   O10   S    
Cu6   O8    S    
C52   C54   A    
C53   C55   A    
Cu10  O20   S    
C71   O7    A    
C101  C119  S    
C118  H40   S    
O51   C141  S    
C36   C122  S    
C11   H49   S    
C27   C41   A    
O50   C139  S    
C26   C128  T    
C89   C92   A    
C102  C104  A    
C89   H17   S    
Cu2   Cu4   S    
C98   H23   S    
Cu11  O17   S    
C9    C17   S    
C132  H60   S    
C140  H77   S    
C17   H47   S    
C43   H65   S    
C68   C126  S    
C60   O38   A    
C70   C128  S    
C82   C100  S    
C119  H41   S    
C22   C124  T    
C86   C132  S    
C87   C89   A    
C29   C31   A    
C30   C32   A    
Cu1   O30   S    
C33   H63   S    
Cu9   O23   S    
C28   C42   A    
C83   C107  S    
C143  H85   S    
Cu8   O44   S    
Cu2   O32   S    
C137  H69   S    
C16   C108  S    
Cu2   O2    S    
C46   O51   S    
C62   H11   S    
Cu1   O37   S    
