data_mof_unit_22604.cif
_audit_creation_date              2013-03-05T16:11:43-0500
_audit_creation_method            fapswitch 2.2
_symmetry_space_group_name_H-M    P1
_symmetry_Int_Tables_number       1
_space_group_crystal_system       triclinic
_cell_length_a                    10.621274
_cell_length_b                    9.9326
_cell_length_c                    10.556569
_cell_angle_alpha                 90.134474
_cell_angle_beta                  90.199934
_cell_angle_gamma                 90.379114
_cell_volume                      1113.65065868

loop_
_atom_site_label
_atom_site_type_symbol
_atom_site_description
_atom_site_fract_x
_atom_site_fract_y
_atom_site_fract_z
_atom_type_partial_charge
O1    O     O_R   0.316770 0.614620 0.499990 -0.590545
O2    O     O_R   0.683230 0.385380 0.500010 -0.590545
O3    O     O_R   0.683230 0.614620 0.500010 -0.601875
O4    O     O_R   0.316770 0.385380 0.499990 -0.601875
C1    C     C_R   0.872067 0.500080 0.500551 -0.047166
C2    C     C_R   0.127933 0.499920 0.499449 -0.047166
C3    C     C_R   0.260382 0.499790 0.499360 0.889010
C4    C     C_R   0.739618 0.500210 0.500640 0.889010
O5    O     O_R   0.499970 0.614650 0.313950 -0.552410
O6    O     O_R   0.500030 0.385350 0.686050 -0.552410
O7    O     O_R   0.500030 0.614650 0.686050 -0.596926
O8    O     O_R   0.499970 0.385350 0.313950 -0.596926
C5    C     C_R   0.502793 0.499852 0.258188 1.017427
C6    C     C_R   0.497207 0.500148 0.741811 1.017428
Zn1   Zn    Zn3+2 0.500000 0.653120 0.500000 1.108378
Zn2   Zn    Zn3+2 0.500000 0.346880 0.500000 1.108378
N1    N     N_R   0.500000 0.857200 0.500000 -0.222600
N2    N     N_R   0.500000 0.142800 0.500000 -0.222600
C7    C     C_3   0.382391 0.492110 0.043640 0.116055
C8    C     C_3   0.617609 0.507890 0.956360 0.116055
C9    C     C_3   0.433966 0.606290 0.960925 0.148103
C10   C     C_3   0.566034 0.393710 0.039075 0.148102
C11   C     C_3   0.445172 0.386054 0.959142 0.348040
C12   C     C_3   0.554828 0.613946 0.040858 0.348040
C13   C     C_3   0.496888 0.500467 0.875677 -0.375158
C14   C     C_3   0.503112 0.499533 0.124323 -0.375158
C15   C     C_R   0.585504 0.072829 0.570864 0.226927
C16   C     C_R   0.414496 0.927171 0.429136 0.226928
C17   C     C_R   0.414065 0.070703 0.429584 0.251188
C18   C     C_R   0.585935 0.929297 0.570415 0.251188
C19   C     C_R   0.063495 0.417509 0.413919 -0.030188
C20   C     C_R   0.936505 0.582491 0.586081 -0.030187
C21   C     C_R   0.934265 0.416644 0.415216 -0.074036
C22   C     C_R   0.065735 0.583356 0.584784 -0.074036
H1    H     H_    0.112947 0.357069 0.345033 0.226274
H2    H     H_    0.887053 0.642931 0.654967 0.226274
H3    H     H_    0.882994 0.353083 0.349206 0.215611
H4    H     H_    0.117006 0.646917 0.650794 0.215611
N3    N     N_R   0.672725 0.144189 0.649770 0.267951
O9    O     O_R   0.646545 0.160652 0.768992 -0.240977
O10   O     O_R   0.788170 0.160963 0.611946 -0.277695
N4    N     N_R   0.327275 0.855811 0.350230 0.267951
O11   O     O_R   0.353456 0.839348 0.231008 -0.240977
O12   O     O_R   0.211830 0.839037 0.388053 -0.277695
N5    N     N_R   0.320815 0.139505 0.357468 0.250479
O13   O     O_R   0.347008 0.177721 0.242844 -0.329805
O14   O     O_R   0.203550 0.129204 0.391237 -0.317308
N6    N     N_R   0.679185 0.860495 0.642532 0.250479
O15   O     O_R   0.652991 0.822279 0.757156 -0.329805
O16   O     O_R   0.796450 0.870796 0.608763 -0.317308
O17   O     O_3   0.388164 0.269104 0.911305 -0.610024
H5    H     H_    0.365354 0.214804 0.986459 0.415538
O18   O     O_3   0.611836 0.730896 0.088694 -0.610024
H6    H     H_    0.634646 0.785196 0.013541 0.415538
N7    N     N_R   0.255213 0.485568 0.094804 0.249230
O19   O     O_R   0.180866 0.385481 0.066092 -0.272048
O20   O     O_R   0.214652 0.581575 0.167607 -0.297992
N8    N     N_R   0.744787 0.514432 0.905196 0.249230
O21   O     O_R   0.819134 0.614519 0.933908 -0.272048
O22   O     O_R   0.785348 0.418426 0.832391 -0.297994
N9    N     N_R   0.360430 0.719741 0.915414 0.284183
O23   O     O_R   0.396571 0.842618 0.938958 -0.240804
O24   O     O_R   0.257227 0.698207 0.851839 -0.336835
N10   N     N_R   0.639569 0.280259 0.084586 0.284183
O25   O     O_R   0.603429 0.157382 0.061042 -0.240804
O26   O     O_R   0.742773 0.301792 0.148161 -0.336835

loop_
_geom_bond_atom_site_label_1
_geom_bond_atom_site_label_2
_geom_bond_distance
_ccdc_geom_bond_type
O4    Zn2   1.985832 S    
C1    C4    1.406787 S    
C7    C11   1.535922 S    
N7    O19   1.300091 A    
C19   C21   1.372668 A    
Zn1   N1    2.027045 S    
C2    C3    1.406787 S    
O1    Zn1   1.980867 S    
O2    Zn2   1.980866 S    
O5    C5    1.282569 A    
C9    N9    1.456791 S    
C1    C20   1.392302 A    
C2    C22   1.393786 A    
N10   O25   1.300164 A    
O6    C6    1.282569 A    
N6    O16   1.300156 A    
C2    C19   1.392302 A    
N8    O21   1.300091 A    
N3    O10   1.300655 A    
N2    C17   1.372078 A    
O6    Zn2   1.999991 S    
O18   H6    0.990272 S    
C15   C18   1.425676 A    
N1    C18   1.372075 A    
N10   O26   1.299548 A    
N4    O12   1.300655 A    
O4    C3    1.288075 A    
C20   H2    1.081610 S    
C18   N6    1.426083 S    
C16   C17   1.425676 A    
C7    C9    1.532480 S    
C12   C14   1.539259 S    
C21   H3    1.082330 S    
O3    C4    1.288076 A    
O7    Zn1   2.001753 S    
C1    C21   1.393786 A    
N7    O20   1.299976 A    
C6    C13   1.413171 S    
O5    Zn1   1.999992 S    
N9    O23   1.300164 A    
O7    C6    1.282062 A    
C19   H1    1.081611 S    
C5    C14   1.413171 S    
C9    C12   1.535116 S    
N4    O11   1.300055 A    
C8    C10   1.532480 S    
N8    O22   1.299976 A    
O17   H5    0.990272 S    
N5    O13   1.299530 A    
C8    N8    1.457624 S    
O3    Zn1   1.985831 S    
O8    C5    1.282062 A    
Zn2   N2    2.027045 S    
C11   C13   1.539259 S    
C10   C14   1.539603 S    
N5    O14   1.300155 A    
C7    N7    1.457624 S    
N3    O9    1.300055 A    
N9    O24   1.299547 A    
C7    C14   1.538110 S    
C8    C12   1.535922 S    
C10   C11   1.535116 S    
N6    O15   1.299528 A    
O1    C3    1.284725 A    
C9    C13   1.539603 S    
C16   N4    1.427449 S    
C10   N10   1.456790 S    
O2    C4    1.284724 A    
C12   O18   1.398856 S    
C22   H4    1.082329 S    
N1    C16   1.368738 A    
C11   O17   1.398856 S    
C17   N5    1.426082 S    
N2    C15   1.368738 A    
O8    Zn2   2.001753 S    
C15   N3    1.427450 S    
C8    C13   1.538110 S    
C20   C22   1.372668 A    
