data_mof_unit_46906.cif
_audit_creation_date              2012-12-10T20:27:09-0500
_audit_creation_method            fapswitch 2.2
_symmetry_space_group_name_H-M    P1
_symmetry_Int_Tables_number       1
_space_group_crystal_system       triclinic
_cell_length_a                    10.704488
_cell_length_b                    10.686732
_cell_length_c                    9.8579
_cell_angle_alpha                 89.31208
_cell_angle_beta                  104.082258
_cell_angle_gamma                 90.195254
_cell_volume                      1093.7348585

loop_
_atom_site_label
_atom_site_type_symbol
_atom_type_description
_atom_site_fract_x
_atom_site_fract_y
_atom_site_fract_z
_atom_type_partial_charge
C1    C     C_R   0.505919 0.259895 0.502217 0.889239
C2    C     C_R   0.532791 0.129190 0.509695 -0.093383
C3    C     C_R   0.558219 0.068546 0.393793 -0.262685
C4    C     C_R   0.560725 0.938214 0.391224 0.092159
C5    C     C_R   0.533757 0.871401 0.505941 -0.102549
C6    C     C_R   0.537436 0.934524 0.629702 0.011414
C7    C     C_3   0.458198 0.924384 0.735247 0.352272
C8    C     C_3   0.461443 0.066513 0.738817 -0.542958
C9    C     C_R   0.390103 0.472896 0.042790 0.161749
C10   C     C_R   0.604858 0.538859 0.099009 -0.126222
C11   C     C_R   0.604924 0.538700 0.955121 -0.166305
C12   C     C_R   0.258258 0.504763 0.441400 0.952843
C13   C     C_R   0.389843 0.473215 0.900060 0.172225
C14   C     C_3   0.315678 0.353777 0.876986 0.292751
C15   C     C_3   0.315500 0.354042 0.031392 -0.591372
C16   C     C_R   0.506995 0.740158 0.500755 0.914529
C17   C     C_R   0.741528 0.505382 0.558369 0.916567
C18   C     C_2   0.120655 0.525174 0.406763 -0.075953
C19   C     C_2   0.067733 0.563244 0.509423 -0.169721
C20   C     C_2   0.878828 0.525294 0.591523 -0.364390
C21   C     C_2   0.930636 0.568884 0.490497 -0.202836
C22   C     C_R   0.539981 0.061829 0.632782 0.047647
H1    H     H_    0.871465 0.594959 0.388163 0.174891
H2    H     H_    0.517381 0.103331 0.840579 0.152800
H3    H     H_    0.690241 0.568543 0.174946 0.136497
H4    H     H_    0.690340 0.567955 0.923122 0.153228
H5    H     H_    0.372714 0.277978 0.845132 0.090061
H6    H     H_    0.218658 0.368170 0.051279 0.228194
H7    H     H_    0.371994 0.275806 0.091894 0.180301
H8    H     H_    0.126030 0.577350 0.615020 0.217798
H9    H     H_    0.937465 0.500392 0.694647 0.181985
H10   H     H_    0.567936 0.121321 0.302362 0.162869
H11   H     H_    0.512022 0.876449 0.833264 0.052341
H12   H     H_    0.365802 0.110296 0.696542 0.222877
N1    N     N_R   0.499160 0.499140 0.142600 -0.096446
N2    N     N_R   0.499160 0.499180 0.856960 -0.135030
O1    O     O_R   0.500020 0.316790 0.614700 -0.616600
O2    O     O_R   0.500000 0.316760 0.385350 -0.622778
O3    O     O_R   0.317820 0.500020 0.571850 -0.601919
O4    O     O_R   0.317800 0.499980 0.342510 -0.594420
O5    O     O_R   0.500000 0.683240 0.614650 -0.612965
O6    O     O_R   0.499980 0.683210 0.385300 -0.602714
O7    O     O_R   0.682200 0.500020 0.657490 -0.626193
O8    O     O_R   0.682180 0.499980 0.428150 -0.622702
Zn1   Zn    Zn3+2 0.500010 0.500020 0.653140 0.947531
Zn2   Zn    Zn3+2 0.499990 0.499980 0.346860 0.947488
O9    O     O_3   0.191782 0.372960 0.788606 -0.599447
C23   C     C_3   0.126355 0.257427 0.757483 0.102198
H13   H     H_    0.032287 0.264216 0.785648 0.154698
H14   H     H_    0.177376 0.174986 0.816354 0.119264
C24   C     C_3   0.100901 0.232887 0.601247 -0.836105
H15   H     H_    0.192087 0.238000 0.566754 0.252939
H16   H     H_    0.057708 0.138737 0.577580 0.212056
H17   H     H_    0.032485 0.303155 0.541796 0.262289
N3    N     N_3   0.046818 0.502933 0.266479 -0.467465
H18   H     H_    0.976897 0.435098 0.269586 0.192614
H19   H     H_    0.000784 0.586073 0.225475 0.183236
N4    N     N_3   0.582156 0.875398 0.270586 -0.427387
H20   H     H_    0.671270 0.830268 0.301435 0.176955
H21   H     H_    0.589878 0.939819 0.192338 0.160264
O10   O     O_3   0.332786 0.879358 0.675487 -0.581488
C25   C     C_3   0.273654 0.840988 0.782574 0.127831
H22   H     H_    0.300969 0.900697 0.877452 0.119418
H23   H     H_    0.301117 0.742430 0.812818 0.156251
C26   C     C_3   0.128111 0.848757 0.728581 -0.850447
H24   H     H_    0.097089 0.803325 0.625306 0.270940
H25   H     H_    0.080485 0.801602 0.803578 0.210996
H26   H     H_    0.097567 0.948171 0.717016 0.238274

loop_
_geom_bond_atom_site_label_1
_geom_bond_atom_site_label_2
_ccdc_geom_bond_type
C12   O4    A    
C8    C22   S    
N3    H18   S    
C17   O7    A    
C2    C22   A    
C10   N1    A    
C14   H5    S    
C7    H11   S    
C1    C2    S    
C25   H23   S    
O9    C23   S    
C11   H4    S    
C1    O1    A    
O3    Zn1   S    
C26   H26   S    
C24   H17   S    
C12   O3    A    
C23   H14   S    
C2    C3    A    
C9    C15   S    
C17   O8    A    
N2    Zn1   S    
C8    H12   S    
C13   C14   S    
O4    Zn2   S    
O7    Zn1   S    
C15   H6    S    
C25   H22   S    
C18   N3    S    
C23   H13   S    
C5    C6    A    
C1    O2    A    
C10   H3    S    
C11   N2    A    
C8    H2    S    
C14   O9    S    
O8    Zn2   S    
C15   H7    S    
C6    C7    S    
N3    H19   S    
C21   H1    S    
O6    Zn2   S    
C3    H10   S    
O2    Zn2   S    
O10   C25   S    
C24   H16   S    
O1    Zn1   S    
C3    C4    A    
C6    C22   A    
C16   O6    A    
C7    C8    S    
C17   C20   S    
C20   C21   D    
C13   N2    A    
C26   H24   S    
C10   C11   A    
C12   C18   S    
C9    N1    A    
O5    Zn1   S    
C14   C15   S    
C18   C19   D    
C5    C16   S    
C9    C13   A    
C25   C26   S    
C4    N4    S    
N4    H20   S    
C19   C21   S    
C19   H8    S    
N4    H21   S    
C16   O5    A    
C23   C24   S    
C7    O10   S    
C24   H15   S    
C4    C5    A    
C26   H25   S    
C20   H9    S    
N1    Zn2   S    
