data_mof_unit_52571.cif
_audit_creation_date              2012-12-10T17:17:56-0500
_audit_creation_method            fapswitch 2.2
_symmetry_space_group_name_H-M    P1
_symmetry_Int_Tables_number       1
_space_group_crystal_system       triclinic
_cell_length_a                    14.965936
_cell_length_b                    15.876881
_cell_length_c                    9.557838
_cell_angle_alpha                 89.979526
_cell_angle_beta                  92.469839
_cell_angle_gamma                 89.999078
_cell_volume                      2268.95082226

loop_
_atom_site_label
_atom_site_type_symbol
_atom_type_description
_atom_site_fract_x
_atom_site_fract_y
_atom_site_fract_z
_atom_type_partial_charge
C1    C     C_R   0.384839 0.877841 0.498262 0.845544
C2    C     C_R   0.384842 0.122159 0.498231 0.845432
C3    C     C_R   0.884864 0.377816 0.498273 0.845529
C4    C     C_R   0.884831 0.622148 0.498222 0.845385
C5    C     C_R   0.267667 0.211697 0.375894 0.259814
C6    C     C_R   0.267779 0.788243 0.375856 0.259984
C7    C     C_R   0.767593 0.711633 0.375920 0.259779
C8    C     C_R   0.768039 0.288015 0.375724 0.260012
C9    C     C_R   0.701136 0.771583 0.382890 -0.228551
C10   C     C_R   0.701521 0.228119 0.382610 -0.228605
C11   C     C_R   0.201198 0.271638 0.382839 -0.228505
C12   C     C_R   0.201309 0.728303 0.382762 -0.228654
C13   C     C_R   0.681717 0.809705 0.509612 -0.164311
C14   C     C_R   0.681583 0.190388 0.509480 -0.164183
C15   C     C_R   0.181673 0.309674 0.509589 -0.164275
C16   C     C_R   0.181623 0.690353 0.509545 -0.164254
C17   C     C_R   0.665114 0.000136 0.154402 -0.140217
C18   C     C_R   0.165114 0.500045 0.154401 -0.140113
C19   C     C_R   0.745228 0.000308 0.086407 -0.231595
C20   C     C_R   0.245228 0.500072 0.086406 -0.231761
C21   C     C_R   0.744615 0.000332 0.942215 -0.208123
C22   C     C_R   0.244615 0.500064 0.942214 -0.208233
C23   C     C_R   0.663880 0.000167 0.865213 -0.171521
C24   C     C_R   0.163880 0.500028 0.865212 -0.171578
C25   C     C_R   0.580817 0.000080 0.930120 0.170131
C26   C     C_R   0.080817 0.500020 0.930119 0.170139
C27   C     C_R   0.581032 0.000071 0.079970 0.204915
C28   C     C_R   0.081032 0.500024 0.079970 0.204955
C29   C     C_R   0.423131 0.999963 0.068642 0.023962
C30   C     C_R   0.923131 0.499972 0.068643 0.024130
C31   C     C_R   0.616479 0.121201 0.502831 0.787639
C32   C     C_R   0.616555 0.878854 0.502881 0.787705
C33   C     C_R   0.116509 0.621176 0.502846 0.787624
C34   C     C_R   0.116532 0.378838 0.502873 0.787743
C35   C     C_R   0.423074 0.999951 0.920582 -0.032522
C36   C     C_R   0.923073 0.499970 0.920583 -0.032521
C37   C     C_R   0.374716 0.240372 0.735356 -0.141021
C38   C     C_R   0.374395 0.759756 0.735683 -0.141193
C39   C     C_R   0.874947 0.740514 0.735082 -0.140898
C40   C     C_R   0.874018 0.260003 0.736082 -0.141347
C41   C     C_R   0.351876 0.268906 0.866747 -0.110642
C42   C     C_R   0.351391 0.731288 0.867066 -0.110393
C43   C     C_R   0.852251 0.769137 0.866465 -0.110680
C44   C     C_R   0.850783 0.231727 0.867447 -0.110068
C45   C     C_R   0.766222 0.798096 0.885967 -0.099858
C46   C     C_R   0.764629 0.202898 0.886359 -0.099129
C47   C     C_R   0.265808 0.297824 0.886095 -0.099636
C48   C     C_R   0.265285 0.702409 0.886241 -0.099512
C49   C     C_R   0.706295 0.807423 0.771256 -0.168536
C50   C     C_R   0.705100 0.193410 0.771220 -0.168493
C51   C     C_R   0.205979 0.307183 0.771269 -0.168366
C52   C     C_R   0.205586 0.693017 0.771277 -0.168345
C53   C     C_R   0.731598 0.786893 0.634131 0.092301
C54   C     C_R   0.730974 0.213553 0.634217 0.092254
C55   C     C_R   0.231437 0.286770 0.634165 0.092242
C56   C     C_R   0.231223 0.713343 0.634200 0.092326
C57   C     C_R   0.311006 0.240409 0.621133 0.055786
C58   C     C_R   0.310816 0.759684 0.621284 0.055642
C59   C     C_R   0.811132 0.740495 0.621016 0.055789
C60   C     C_R   0.810618 0.259836 0.621454 0.055696
C61   C     C_R   0.323280 0.194343 0.495914 -0.185101
C62   C     C_R   0.323250 0.805674 0.495987 -0.185082
C63   C     C_R   0.823284 0.694339 0.495874 -0.185071
C64   C     C_R   0.823288 0.305636 0.496031 -0.185035
Cu1   Cu    Cu3+1 0.499990 1.000000 0.640660 0.922419
Cu2   Cu    Cu3+1 0.999990 0.500000 0.640660 0.922413
Cu3   Cu    Cu3+1 0.500010 1.000000 0.359340 0.983810
Cu4   Cu    Cu3+1 0.000010 0.500000 0.359340 0.983847
H1    H     H_    0.807149 0.000416 0.889266 0.171178
H2    H     H_    0.307149 0.500073 0.889264 0.171191
H3    H     H_    0.670385 0.000049 0.755082 0.212739
H4    H     H_    0.170386 0.499988 0.755080 0.212734
H5    H     H_    0.360028 0.999910 0.860822 0.169034
H6    H     H_    0.860029 0.499941 0.860822 0.169001
H7    H     H_    0.442586 0.218775 0.724319 0.151345
H8    H     H_    0.442296 0.781315 0.724790 0.151727
H9    H     H_    0.942785 0.718875 0.723926 0.151389
H10   H     H_    0.941985 0.281421 0.725372 0.151738
H11   H     H_    0.400001 0.265807 0.954469 0.161256
H12   H     H_    0.399421 0.734408 0.954907 0.161676
H13   H     H_    0.900459 0.766079 0.954067 0.161066
H14   H     H_    0.898681 0.234918 0.955465 0.162278
H15   H     H_    0.746340 0.815196 0.989749 0.175638
H16   H     H_    0.744347 0.185981 0.990025 0.175854
H17   H     H_    0.245819 0.314874 0.989851 0.175684
H18   H     H_    0.245168 0.685404 0.989971 0.175671
H19   H     H_    0.639666 0.826836 0.794474 0.171130
H20   H     H_    0.638342 0.174105 0.793931 0.170752
H21   H     H_    0.139306 0.326549 0.794358 0.171034
H22   H     H_    0.138872 0.673682 0.794221 0.170868
H23   H     H_    0.662370 0.786635 0.287742 0.195409
H24   H     H_    0.663152 0.212774 0.287229 0.195195
H25   H     H_    0.162510 0.286752 0.287644 0.195399
H26   H     H_    0.162751 0.713117 0.287498 0.195267
H27   H     H_    0.360290 0.999949 0.119787 0.214677
H28   H     H_    0.860288 0.499939 0.119790 0.214562
H29   H     H_    0.673770 0.000047 0.265166 0.201973
H30   H     H_    0.173770 0.500033 0.265165 0.201947
H31   H     H_    0.808309 0.000382 0.146338 0.166685
H32   H     H_    0.308310 0.500091 0.146336 0.166632
N1    N     N_R   0.501200 1.000000 0.147910 -0.209458
N2    N     N_R   0.001200 0.500000 0.147910 -0.209427
N3    N     N_R   0.501270 1.000000 0.852040 -0.220235
N4    N     N_R   0.001270 0.500000 0.852040 -0.220234
O1    O     O_R   0.409820 0.909830 0.618810 -0.592143
O2    O     O_R   0.409820 0.090170 0.618810 -0.592107
O3    O     O_R   0.909820 0.409830 0.618810 -0.592227
O4    O     O_R   0.909820 0.590170 0.618810 -0.592040
O5    O     O_R   0.409840 0.909830 0.381240 -0.527457
O6    O     O_R   0.409840 0.090170 0.381240 -0.527537
O7    O     O_R   0.909840 0.409830 0.381240 -0.527304
O8    O     O_R   0.909840 0.590170 0.381240 -0.527626
O9    O     O_R   0.590170 0.090170 0.618760 -0.623323
O10   O     O_R   0.590170 0.909830 0.618760 -0.623336
O11   O     O_R   0.090170 0.590170 0.618760 -0.623332
O12   O     O_R   0.090170 0.409830 0.618760 -0.623325
O13   O     O_R   0.590190 0.090180 0.381190 -0.601722
O14   O     O_R   0.590190 0.909820 0.381190 -0.601590
O15   O     O_R   0.090190 0.590180 0.381190 -0.601701
O16   O     O_R   0.090190 0.409820 0.381190 -0.601578
Br1   Br    Br    0.274668 0.157639 0.196669 -0.567497
Br2   Br    Br    0.274985 0.842162 0.196489 -0.568066
Br3   Br    Br    0.774478 0.657488 0.196741 -0.567395
Br4   Br    Br    0.775698 0.341529 0.196107 -0.569086

loop_
_geom_bond_atom_site_label_1
_geom_bond_atom_site_label_2
_ccdc_geom_bond_type
C58   C62   A    
Cu2   Cu4   S    
C42   H12   S    
C40   C60   A    
Cu1   O10   S    
C49   H19   S    
C13   C32   S    
C52   H22   S    
C14   C31   S    
C1    C62   S    
C9    H23   S    
C53   C59   A    
C54   C60   A    
C3    C64   S    
C4    O4    A    
C4    C63   S    
C24   H4    S    
C50   C54   A    
Cu2   O12   S    
C47   H17   S    
C22   C24   A    
C19   C21   A    
Cu4   N2    S    
C5    C11   A    
C35   N3    A    
Cu4   O15   S    
C6    C12   A    
C34   O12   A    
C5    Br1   S    
Cu4   O8    S    
C9    C13   A    
C31   O13   A    
C30   H28   S    
C1    O5    A    
C38   C58   A    
C11   C15   A    
Cu3   O5    S    
C35   H5    S    
C12   C16   A    
C3    O7    A    
Cu1   Cu3   S    
C44   H14   S    
Cu2   O3    S    
C15   C34   S    
C51   C55   A    
C2    C61   S    
C50   H20   S    
C26   N4    A    
C11   H25   S    
C4    O8    A    
C10   H24   S    
C38   H8    S    
C37   C41   A    
C12   H26   S    
C45   H15   S    
Cu1   O9    S    
Cu1   O1    S    
C44   C46   A    
C13   C53   A    
C56   C58   A    
C34   O16   A    
C33   O11   A    
Cu2   O11   S    
C29   N1    A    
C17   C27   A    
Cu2   N4    S    
C18   C28   A    
C10   C14   A    
C32   O14   A    
C29   H27   S    
C19   H31   S    
C8    Br4   S    
C39   C43   A    
C3    O3    A    
C27   N1    A    
C21   H1    S    
Cu4   O7    S    
C15   C55   A    
C16   C56   A    
C23   H3    S    
C16   C33   S    
C43   C45   A    
Cu3   O6    S    
C20   H32   S    
C45   C49   A    
C39   C59   A    
C30   N2    A    
C41   C47   A    
C5    C61   A    
C42   C48   A    
Cu3   O13   S    
C7    C63   A    
C36   H6    S    
C8    C64   A    
C46   H16   S    
C40   H10   S    
C14   C54   A    
C20   C22   A    
C33   O15   A    
C21   C23   A    
C43   H13   S    
C48   H18   S    
Cu1   N3    S    
C40   C44   A    
C39   H9    S    
Cu1   O2    S    
Cu3   N1    S    
C7    C9    A    
C46   C50   A    
C2    O6    A    
C59   C63   A    
C25   N3    A    
C24   C26   A    
Cu2   O4    S    
C41   H11   S    
C47   C51   A    
C57   C61   A    
C25   C27   A    
C29   C35   A    
C26   C28   A    
C30   C36   A    
C60   C64   A    
C6    C62   A    
C55   C57   A    
Cu4   O16   S    
C36   N4    A    
C49   C53   A    
C17   C19   A    
C2    O2    A    
C18   C20   A    
C23   C25   A    
C37   H7    S    
Cu3   O14   S    
C37   C57   A    
C38   C42   A    
C28   N2    A    
C31   O9    A    
C48   C52   A    
C8    C10   A    
C1    O1    A    
C6    Br2   S    
C18   H30   S    
C32   O10   A    
C17   H29   S    
C22   H2    S    
C51   H21   S    
C52   C56   A    
C7    Br3   S    
