data_mof_unit_60777.cif
_audit_creation_date              2013-03-05T16:00:21-0500
_audit_creation_method            fapswitch 2.2
_symmetry_space_group_name_H-M    P1
_symmetry_Int_Tables_number       1
_space_group_crystal_system       triclinic
_cell_length_a                    42.62199
_cell_length_b                    29.424765
_cell_length_c                    29.420271
_cell_angle_alpha                 89.999619
_cell_angle_beta                  133.874128
_cell_angle_gamma                 89.999601
_cell_volume                      26597.8675696

loop_
_atom_site_label
_atom_site_type_symbol
_atom_site_description
_atom_site_fract_x
_atom_site_fract_y
_atom_site_fract_z
_atom_type_partial_charge
O1    O     O_R   0.500410 0.561970 0.536310 -0.561552
O2    O     O_R   0.500410 0.438030 0.536310 -0.561519
O3    O     O_R   0.000410 0.061970 0.536310 -0.561546
O4    O     O_R   0.000410 0.938030 0.536310 -0.561526
O5    O     O_R   0.499540 0.561910 0.463710 -0.561370
O6    O     O_R   0.499540 0.438090 0.463710 -0.561389
O7    O     O_R   0.999540 0.061910 0.463710 -0.561373
O8    O     O_R   0.999540 0.938090 0.463710 -0.561388
C1    C     C_R   0.499988 0.585483 0.500006 0.825361
C2    C     C_R   0.499987 0.414517 0.500006 0.825411
C3    C     C_R   0.999988 0.085483 0.500006 0.825373
C4    C     C_R   0.999988 0.914517 0.500006 0.825398
O9    O     O_R   0.439190 0.500000 0.475090 -0.576722
O10   O     O_R   0.939190 0.000000 0.475090 -0.576721
O11   O     O_R   0.438320 0.500000 0.402480 -0.576922
O12   O     O_R   0.938320 0.000000 0.402480 -0.576920
C5    C     C_R   0.418280 0.500010 0.418498 0.865555
C6    C     C_R   0.918280 0.000003 0.418498 0.865552
Cu1   Cu    Cu3+1 0.500480 0.500000 0.542990 0.961643
Cu2   Cu    Cu3+1 0.000480 0.000000 0.542990 0.961644
Cu3   Cu    Cu3+1 0.499450 0.500000 0.457010 0.961523
Cu4   Cu    Cu3+1 0.999450 0.000000 0.457010 0.961524
O13   O     O_R   0.561610 0.500000 0.597520 -0.557106
O14   O     O_R   0.061610 1.000000 0.597520 -0.557106
O15   O     O_R   0.560740 0.500000 0.524910 -0.557118
O16   O     O_R   0.060740 1.000000 0.524910 -0.557118
C7    C     C_R   0.584599 0.500000 0.584468 0.810543
C8    C     C_R   0.084599 1.000000 0.584468 0.810543
C9    C     C_3   0.232810 0.534786 0.259261 0.174197
C10   C     C_3   0.232808 0.460960 0.252012 0.173815
C11   C     C_3   0.732817 0.035510 0.258222 0.174135
C12   C     C_3   0.732801 0.961502 0.253160 0.173869
C13   C     C_3   0.261335 0.539477 0.244980 -0.191017
C14   C     C_3   0.261331 0.464702 0.237636 -0.191113
C15   C     C_3   0.761342 0.038914 0.243820 -0.191029
C16   C     C_3   0.761324 0.963955 0.238692 -0.191097
H1    H     H_    0.274190 0.571653 0.243453 0.149569
H2    H     H_    0.274183 0.435945 0.230122 0.149771
H3    H     H_    0.774203 0.070642 0.241345 0.149598
H4    H     H_    0.774169 0.934600 0.232039 0.149738
H5    H     H_    0.219469 0.507632 0.142842 0.155295
H6    H     H_    0.719469 0.005303 0.142652 0.155292
C17   C     C_1   0.373321 0.500011 0.374011 -0.187486
C18   C     C_1   0.873321 0.999991 0.374011 -0.187486
C19   C     C_1   0.120451 0.499995 0.120824 -0.187332
C20   C     C_1   0.620451 0.999997 0.120826 -0.187332
C21   C     C_3   0.261349 0.495774 0.305661 0.195370
C22   C     C_3   0.761349 0.997038 0.305768 0.195364
C23   C     C_3   0.289187 0.499977 0.290775 0.109313
C24   C     C_3   0.789186 0.999958 0.290776 0.109317
C25   C     C_3   0.204622 0.499960 0.206080 0.135332
C26   C     C_3   0.704622 0.999966 0.206083 0.135340
C27   C     C_3   0.232486 0.504192 0.190942 -0.224643
C28   C     C_3   0.732486 0.002904 0.190839 -0.224645
C29   C     C_1   0.335120 0.500004 0.336257 -0.046125
C30   C     C_1   0.835120 0.999977 0.336257 -0.046130
C31   C     C_1   0.158652 0.499983 0.159539 -0.044450
C32   C     C_1   0.658652 0.999988 0.159542 -0.044453
C33   C     C_1   0.499976 0.636530 0.499966 -0.205017
C34   C     C_1   0.499975 0.363470 0.499966 -0.205027
C35   C     C_1   0.999976 0.136530 0.499966 -0.205021
C36   C     C_1   0.999975 0.863470 0.499966 -0.205023
C37   C     C_1   0.499968 0.678852 0.499953 0.003695
C38   C     C_1   0.499966 0.321148 0.499952 0.003701
C39   C     C_1   0.999968 0.178852 0.499953 0.003696
C40   C     C_1   0.999966 0.821148 0.499952 0.003700
C41   C     C_1   0.499961 0.729017 0.499951 0.005214
C42   C     C_1   0.499959 0.270983 0.499950 0.005218
C43   C     C_1   0.999961 0.229017 0.499951 0.005214
C44   C     C_1   0.999959 0.770983 0.499950 0.005218
C45   C     C_1   0.499957 0.771338 0.499955 0.005046
C46   C     C_1   0.499955 0.228662 0.499953 0.005049
C47   C     C_1   0.999957 0.271338 0.499955 0.005045
C48   C     C_1   0.999955 0.728662 0.499953 0.005050
C49   C     C_1   0.499954 0.821503 0.499963 0.004226
C50   C     C_1   0.499952 0.178497 0.499962 0.004230
C51   C     C_1   0.999955 0.321503 0.499963 0.004226
C52   C     C_1   0.999952 0.678497 0.499962 0.004230
C53   C     C_1   0.499954 0.863825 0.499972 -0.197967
C54   C     C_1   0.499952 0.136175 0.499971 -0.197963
C55   C     C_1   0.999954 0.363825 0.499972 -0.197967
C56   C     C_1   0.999952 0.636175 0.499971 -0.197963
C57   C     C_1   0.635088 0.500000 0.634698 -0.202963
C58   C     C_1   0.135088 0.000000 0.634698 -0.202963
C59   C     C_1   0.676569 0.500000 0.676169 0.014277
C60   C     C_1   0.176569 0.000000 0.676169 0.014277
C61   C     C_1   0.726142 0.500000 0.725826 0.002638
C62   C     C_1   0.226142 0.000000 0.725826 0.002638
C63   C     C_1   0.767622 0.500001 0.767404 0.002652
C64   C     C_1   0.267622 0.000001 0.767404 0.002652
C65   C     C_1   0.817195 0.500001 0.817099 0.014294
C66   C     C_1   0.317195 0.000001 0.817099 0.014294
C67   C     C_1   0.858675 0.500001 0.858674 -0.203219
C68   C     C_1   0.358675 0.000001 0.858674 -0.203219
O17   O     O_R   0.994560 0.535840 0.056620 -0.561358
O18   O     O_R   0.994560 0.464160 0.056620 -0.561408
O19   O     O_R   0.494560 0.035840 0.056620 -0.561365
O20   O     O_R   0.494560 0.964160 0.056620 -0.561400
C69   C     C_R   0.994829 0.500000 0.080434 0.826244
C70   C     C_R   0.494829 1.000000 0.080434 0.826242
O21   O     O_R   0.055010 0.535850 0.055100 -0.577039
O22   O     O_R   0.055010 0.464150 0.055100 -0.576998
O23   O     O_R   0.555010 0.035850 0.055100 -0.577031
O24   O     O_R   0.555010 0.964150 0.055100 -0.577004
C71   C     C_R   0.075490 0.499999 0.075362 0.865209
C72   C     C_R   0.575490 1.000000 0.075362 0.865207
Cu5   Cu    Cu3+1 0.993800 0.542460 0.993900 0.961612
Cu6   Cu    Cu3+1 0.993800 0.457540 0.993900 0.961602
Cu7   Cu    Cu3+1 0.493800 0.042460 0.993900 0.961613
Cu8   Cu    Cu3+1 0.493800 0.957540 0.993900 0.961603
O25   O     O_R   0.993040 0.535870 0.931160 -0.561571
O26   O     O_R   0.993040 0.464130 0.931160 -0.561549
O27   O     O_R   0.493040 0.035870 0.931160 -0.561567
O28   O     O_R   0.493040 0.964130 0.931160 -0.561553
O29   O     O_R   0.932590 0.535860 0.932690 -0.556949
O30   O     O_R   0.932590 0.464140 0.932690 -0.556948
O31   O     O_R   0.432590 0.035860 0.932690 -0.556949
O32   O     O_R   0.432590 0.964140 0.932690 -0.556948
C73   C     C_R   0.993232 0.500000 0.907797 0.824585
C74   C     C_R   0.493232 0.000000 0.907797 0.824584
C75   C     C_R   0.909164 0.500000 0.909259 0.811207
C76   C     C_R   0.409164 0.000000 0.909259 0.811207
O33   O     O_R   0.463790 0.000000 0.401850 -0.558235
O34   O     O_R   0.963790 0.500000 0.401850 -0.558235
O35   O     O_R   0.534640 0.000000 0.472710 -0.558554
O36   O     O_R   0.034640 0.500000 0.472710 -0.558554
C77   C     C_R   0.499101 1.000000 0.414046 0.815752
C78   C     C_R   0.999101 0.500000 0.414046 0.815751
O37   O     O_R   0.464530 0.938000 0.464560 -0.558500
O38   O     O_R   0.464530 0.062000 0.464560 -0.558498
O39   O     O_R   0.964530 0.438000 0.464560 -0.558500
O40   O     O_R   0.964530 0.562000 0.464560 -0.558499
O41   O     O_R   0.535390 0.937990 0.535420 -0.558339
O42   O     O_R   0.535390 0.062010 0.535420 -0.558339
O43   O     O_R   0.035390 0.437990 0.535420 -0.558340
O44   O     O_R   0.035390 0.562010 0.535420 -0.558338
C79   C     C_R   0.499958 0.914874 0.499985 0.815546
C80   C     C_R   0.499957 0.085126 0.499984 0.815549
C81   C     C_R   0.999958 0.414874 0.499985 0.815546
C82   C     C_R   0.999957 0.585126 0.499984 0.815550
Cu9   Cu    Cu3+1 0.458020 0.000000 0.458050 0.963242
Cu10  Cu    Cu3+1 0.958020 0.500000 0.458050 0.963242
Cu11  Cu    Cu3+1 0.541920 1.000000 0.541950 0.963079
Cu12  Cu    Cu3+1 0.041920 0.500000 0.541950 0.963080
O45   O     O_R   0.465290 1.000000 0.527290 -0.558355
O46   O     O_R   0.965290 0.500000 0.527290 -0.558355
O47   O     O_R   0.536150 0.000000 0.598150 -0.558253
O48   O     O_R   0.036150 0.500000 0.598150 -0.558253
C83   C     C_R   0.500739 0.000000 0.585873 0.815411
C84   C     C_R   0.000739 0.500000 0.585873 0.815411
C85   C     C_1   0.995576 0.500000 0.132216 -0.205193
C86   C     C_1   0.495576 1.000000 0.132216 -0.205194
C87   C     C_1   0.996215 0.500000 0.175172 0.003526
C88   C     C_1   0.496215 1.000000 0.175172 0.003525
C89   C     C_1   0.996981 0.500000 0.226093 0.005202
C90   C     C_1   0.496981 1.000000 0.226093 0.005201
C91   C     C_1   0.497607 1.000000 0.269037 0.005053
C92   C     C_1   0.997607 0.500000 0.269037 0.005054
C93   C     C_1   0.498293 1.000000 0.319881 0.004147
C94   C     C_1   0.998293 0.500000 0.319881 0.004147
C95   C     C_1   0.498769 1.000000 0.362674 -0.198096
C96   C     C_1   0.998769 0.500000 0.362674 -0.198096
C97   C     C_1   0.994204 0.500000 0.857707 -0.204956
C98   C     C_1   0.494204 0.000000 0.857707 -0.204957
C99   C     C_1   0.995323 0.500000 0.816502 0.003722
C100  C     C_1   0.495323 0.000000 0.816502 0.003721
C101  C     C_1   0.996802 0.500000 0.767814 0.005063
C102  C     C_1   0.496802 0.000000 0.767814 0.005062
C103  C     C_1   0.498077 0.000000 0.726772 0.004944
C104  C     C_1   0.998077 0.500000 0.726772 0.004945
C105  C     C_1   0.499504 0.000000 0.678033 0.004316
C106  C     C_1   0.999504 0.500000 0.678033 0.004316
C107  C     C_1   0.500425 0.000000 0.636630 -0.198189
C108  C     C_1   0.000425 0.500000 0.636629 -0.198189
C109  C     C_3   0.215723 0.574263 0.270296 -0.866133
H7    H     H_    0.243480 0.593918 0.312158 0.237953
H8    H     H_    0.195537 0.596813 0.228353 0.238377
H9    H     H_    0.195609 0.561071 0.278520 0.237853
C110  C     C_3   0.215732 0.416752 0.254841 -0.865567
H10   H     H_    0.243494 0.394755 0.292613 0.237742
H11   H     H_    0.195621 0.424160 0.265095 0.238155
H12   H     H_    0.195547 0.398845 0.208929 0.238316
C111  C     C_3   0.715744 0.075815 0.268083 -0.866054
H13   H     H_    0.743509 0.095867 0.309360 0.237921
H14   H     H_    0.695566 0.097716 0.225487 0.238377
H15   H     H_    0.695627 0.063483 0.276685 0.237899
C112  C     C_3   0.715711 0.917914 0.257283 -0.865657
H16   H     H_    0.743466 0.896212 0.295698 0.237772
H17   H     H_    0.695603 0.926233 0.267306 0.238107
H18   H     H_    0.695519 0.899260 0.211909 0.238336
C113  C     C_3   0.278741 0.491045 0.371317 -0.862761
H19   H     H_    0.251134 0.488687 0.367799 0.237820
H20   H     H_    0.298909 0.459866 0.394176 0.237677
H21   H     H_    0.298933 0.521107 0.400200 0.237968
C114  C     C_3   0.778741 0.993740 0.371542 -0.862757
H22   H     H_    0.751134 0.992107 0.368084 0.237820
H23   H     H_    0.798902 0.962648 0.395319 0.237726
H24   H     H_    0.798939 0.024039 0.399534 0.237929

loop_
_geom_bond_atom_site_label_1
_geom_bond_atom_site_label_2
_geom_bond_distance
_ccdc_geom_bond_type
O21   Cu5   1.890700 S    
C100  C102  1.476795 S    
C10   C25   1.528364 S    
O41   C79   1.283689 A    
O29   C75   1.277284 A    
C8    C58   1.551330 S    
C13   C27   1.551699 S    
C103  C105  1.476702 S    
Cu10  O46   1.835940 S    
C1    C33   1.502049 S    
C15   H3    1.110278 S    
C11   C26   1.528339 S    
Cu12  O48   1.832463 S    
Cu8   O32   1.890665 S    
O24   C72   1.228335 A    
Cu7   O31   1.890671 S    
C109  H8    1.109729 S    
C86   C88   1.245079 T    
C70   C86   1.501529 S    
O7    C3    1.262350 A    
C105  C107  1.245639 T    
C19   C31   1.173760 T    
C9    C21   1.535931 S    
O20   Cu8   1.833318 S    
C12   C16   1.543252 S    
C90   C91   1.245057 T    
Cu1   Cu3   2.499326 S    
C58   C60   1.274485 T    
C111  H14   1.109713 S    
C60   C62   1.523108 S    
O37   Cu9   1.835264 S    
O17   C69   1.261750 A    
C13   C23   1.535668 S    
O18   C69   1.261750 A    
C9    C13   1.543327 S    
C4    C36   1.502049 S    
O22   C71   1.228327 A    
O25   C73   1.262653 A    
O32   C76   1.277282 A    
O36   Cu12  1.835684 S    
O38   Cu9   1.835271 S    
C52   C56   1.245321 T    
C12   C26   1.528349 S    
C112  H18   1.109709 S    
C56   C82   1.502084 S    
O42   Cu11  1.835624 S    
O46   C84   1.282070 A    
C64   C66   1.523097 S    
O44   C82   1.283686 A    
C67   C75   1.551267 S    
O40   Cu10  1.835271 S    
Cu2   O14   1.888978 S    
C106  C108  1.245642 T    
C44   C48   1.245300 T    
O8    Cu4   1.832040 S    
Cu5   Cu6   2.498754 S    
C93   C95   1.245009 T    
O22   Cu6   1.890706 S    
C25   C31   1.412467 S    
O13   C7    1.276365 A    
O4    C4    1.262190 A    
Cu8   O28   1.833807 S    
C41   C45   1.245300 T    
C57   C59   1.274485 T    
C46   C50   1.476090 S    
O34   C78   1.282684 A    
C110  H12   1.109721 S    
Cu6   O26   1.833807 S    
C22   C24   1.528089 S    
O18   Cu6   1.833318 S    
C99   C101  1.476798 S    
C16   C28   1.551643 S    
C20   C32   1.173757 T    
C89   C92   1.245057 T    
C92   C94   1.475724 S    
C12   C22   1.535889 S    
O34   Cu10  1.832459 S    
Cu5   O25   1.833809 S    
C9    C109  1.520794 S    
C78   C96   1.501626 S    
O16   C8    1.278442 A    
C19   C71   1.381437 S    
O37   C79   1.283706 A    
C26   C28   1.535376 S    
C34   C38   1.245309 T    
C101  C104  1.245783 T    
C59   C61   1.523108 S    
O21   C71   1.228345 A    
C26   C32   1.412464 S    
C37   C41   1.476093 S    
O1    Cu1   1.833789 S    
O41   Cu11  1.835633 S    
O30   C75   1.277282 A    
C10   C14   1.543243 S    
C113  H19   1.109607 S    
O10   Cu2   1.892385 S    
C10   C21   1.535897 S    
C16   H4    1.110286 S    
O39   C81   1.283706 A    
C21   C23   1.528100 S    
C111  H15   1.109813 S    
C73   C97   1.502692 S    
C36   C40   1.245309 T    
C109  H9    1.109824 S    
O9    Cu1   1.892385 S    
C23   C29   1.411411 S    
O6    Cu3   1.832040 S    
C69   C85   1.501529 S    
C24   C30   1.411417 S    
C114  H22   1.109594 S    
O12   Cu4   1.888977 S    
C42   C46   1.245300 T    
C25   C27   1.535383 S    
Cu9   Cu11  2.577819 S    
C94   C96   1.245006 T    
Cu1   O13   1.888978 S    
O31   C76   1.277284 A    
C113  H20   1.109732 S    
C111  H13   1.109627 S    
O5    C1    1.262351 A    
C6    C18   1.381472 S    
C65   C67   1.274455 T    
O27   C74   1.262653 A    
O19   Cu7   1.833315 S    
C18   C30   1.173850 T    
O33   C77   1.282684 A    
C109  H7    1.109636 S    
C51   C55   1.245321 T    
O8    C4    1.262349 A    
H5    C27   1.110107 S    
O33   Cu9   1.832459 S    
C15   C24   1.535646 S    
C66   C68   1.274455 T    
O1    C1    1.262191 A    
O3    Cu2   1.833789 S    
C43   C47   1.245300 T    
Cu5   O29   1.890671 S    
C87   C89   1.475684 S    
O39   Cu10  1.835264 S    
O17   Cu5   1.833315 S    
C68   C76   1.551267 S    
C77   C95   1.501626 S    
O12   C6    1.228669 A    
O43   Cu12  1.835633 S    
C84   C108  1.502559 S    
Cu2   Cu4   2.499326 S    
Cu11  O47   1.832463 S    
O20   C70   1.261750 A    
C11   C22   1.535906 S    
C61   C63   1.274488 T    
C22   C114  1.521572 S    
Cu4   O16   1.892391 S    
O15   C7    1.278442 A    
Cu10  Cu12  2.577819 S    
C63   C65   1.523097 S    
O38   C80   1.283707 A    
C38   C42   1.476090 S    
O19   C70   1.261750 A    
C16   C24   1.535637 S    
O24   Cu8   1.890706 S    
C9    C25   1.528364 S    
C17   C29   1.173850 T    
C55   C81   1.502084 S    
Cu3   O15   1.892391 S    
C2    C34   1.502049 S    
C102  C103  1.245780 T    
C14   C23   1.535658 S    
O36   C78   1.284275 A    
C12   C112  1.520770 S    
C11   C111  1.520774 S    
O2    Cu1   1.833795 S    
C14   H2    1.110294 S    
C88   C90   1.475681 S    
O10   C6    1.228619 A    
O14   C8    1.276365 A    
O48   C84   1.285607 A    
C3    C35   1.502052 S    
O42   C80   1.283686 A    
O26   C73   1.262653 A    
C50   C54   1.245321 T    
O11   C5    1.228671 A    
Cu7   O27   1.833809 S    
O40   C82   1.283707 A    
O7    Cu4   1.832040 S    
O47   C83   1.285607 A    
O43   C81   1.283689 A    
C33   C37   1.245306 T    
C54   C80   1.502084 S    
O9    C5    1.228617 A    
O23   Cu7   1.890700 S    
O45   C83   1.282070 A    
Cu6   O30   1.890665 S    
C98   C100  1.245780 T    
C62   C64   1.274488 T    
C113  H21   1.109730 S    
C112  H16   1.109625 S    
O44   Cu12  1.835624 S    
Cu7   Cu8   2.498754 S    
H6    C28   1.110090 S    
C45   C49   1.476087 S    
C40   C44   1.476090 S    
C10   C110  1.520790 S    
C104  C106  1.476699 S    
O35   Cu11  1.835684 S    
C39   C43   1.476093 S    
C20   C72   1.381437 S    
C11   C15   1.543297 S    
C7    C57   1.551330 S    
Cu9   O45   1.835940 S    
O23   C72   1.228338 A    
C83   C107  1.502562 S    
C85   C87   1.245079 T    
C21   C113  1.521596 S    
C13   H1    1.110287 S    
C112  H17   1.109825 S    
O3    C3    1.262190 A    
O6    C2    1.262349 A    
C74   C98   1.502692 S    
C110  H10   1.109636 S    
O4    Cu2   1.833795 S    
C114  H24   1.109725 S    
C35   C39   1.245306 T    
O11   Cu3   1.888977 S    
O5    Cu3   1.832040 S    
C14   C27   1.551655 S    
C91   C93   1.475724 S    
C48   C52   1.476090 S    
C5    C17   1.381472 S    
O35   C77   1.284275 A    
C47   C51   1.476087 S    
C97   C99   1.245777 T    
C110  H11   1.109831 S    
C114  H23   1.109721 S    
C49   C53   1.245321 T    
C53   C79   1.502084 S    
O28   C74   1.262653 A    
C15   C28   1.551668 S    
O2    C2    1.262190 A    
