data_mof_unit_36925.cif
_audit_creation_date              2012-12-11T20:06:57-0500
_audit_creation_method            fapswitch 2.2
_symmetry_space_group_name_H-M    P1
_symmetry_Int_Tables_number       1
_space_group_crystal_system       triclinic
_cell_length_a                    8.366836
_cell_length_b                    16.41126
_cell_length_c                    18.758397
_cell_angle_alpha                 111.462695
_cell_angle_beta                  91.217387
_cell_angle_gamma                 84.186064
_cell_volume                      2384.4320829

loop_
_atom_site_label
_atom_site_type_symbol
_atom_type_description
_atom_site_fract_x
_atom_site_fract_y
_atom_site_fract_z
_atom_type_partial_charge
Ba1   Ba    Ba6+2 0.333520 0.539550 0.472180 1.687539
Ba2   Ba    Ba6+2 0.856270 0.460520 0.527840 1.728060
C1    C     C_3   0.068252 0.854117 0.359248 -0.306766
C2    C     C_R   0.455425 0.405547 0.078152 -0.057713
C3    C     C_R   0.324023 0.416582 0.935302 -0.079867
C4    C     C_3   0.492033 0.734592 0.308210 0.246523
C5    C     C_R   0.460643 0.458441 0.969174 0.042768
C6    C     C_R   0.269570 0.415558 0.864735 -0.056893
C7    C     C_R   0.346488 0.457050 0.823966 -0.007548
C8    C     C_R   0.479330 0.503755 0.857539 0.045753
C9    C     C_R   0.536798 0.505261 0.930806 0.045027
C10   C     C_R   0.294087 0.453493 0.750603 -0.000310
C11   C     C_R   0.377150 0.491887 0.709831 -0.245123
C12   C     C_3   0.080859 0.762092 0.362239 0.366427
C13   C     C_R   0.506386 0.539160 0.741252 0.079303
C14   C     C_R   0.555645 0.547665 0.817021 -0.006450
C15   C     C_R   0.658402 0.498479 0.072165 0.035268
C16   C     C_3   0.439269 0.762297 0.240081 -0.231292
C17   C     C_R   0.722566 0.493587 0.142438 -0.000280
C18   C     C_R   0.643175 0.450705 0.182927 -0.042826
C19   C     C_R   0.512753 0.405027 0.148253 -0.012945
C20   C     C_R   0.684715 0.594180 0.851204 -0.067319
C21   C     C_R   0.750034 0.591607 0.919706 -0.073209
C22   C     C_R   0.672735 0.550657 0.963608 -0.039202
C23   C     C_3   0.061346 0.313731 0.278973 0.289499
C24   C     C_R   0.727300 0.550570 0.037028 0.022194
C25   C     C_R   0.846046 0.602866 0.078736 -0.047487
C26   C     C_R   0.863919 0.533816 0.172906 -0.023382
C27   C     C_R   0.924822 0.586956 0.138608 -0.031872
C28   C     C_3   0.639472 0.733363 0.663303 0.282834
C29   C     C_R   0.931287 0.526771 0.240679 0.042626
C30   C     C_R   0.846525 0.486462 0.280918 -0.219940
C31   C     C_R   0.696997 0.454677 0.256568 0.066195
C32   C     C_2   0.397736 0.238222 0.481027 -0.298340
C33   C     C_R   0.799224 0.750210 0.517783 -0.312505
C34   C     C_3   0.100237 0.291053 0.194042 -0.191609
C35   C     C_2   0.254145 0.113497 0.399345 -0.087438
C36   C     C_2   0.259658 0.202148 0.432300 -0.009368
C37   C     C_2   0.512773 0.185467 0.498446 -0.019285
C38   C     C_3   0.478819 0.091830 0.483183 -0.041494
C39   C     C_3   0.393286 0.052586 0.407797 0.128962
C40   C     C_3   0.633167 0.833105 0.700117 -0.266109
C41   C     C_2   0.613387 0.026903 0.489430 -0.071608
C42   C     C_2   0.587105 0.969478 0.523433 -0.004356
C43   C     C_R   0.862330 0.923809 0.554227 0.106562
C44   C     C_R   0.713155 0.899237 0.524046 -0.084398
C45   C     C_3   0.624189 0.264462 0.693040 0.348047
C46   C     C_R   0.976799 0.864020 0.568503 -0.140503
C47   C     C_R   0.943047 0.777800 0.553281 0.043826
C48   C     C_R   0.682189 0.810332 0.504153 0.030073
C49   C     C_3   0.572161 0.263411 0.337610 0.238462
C50   C     C_3   0.629164 0.165076 0.304974 -0.195485
C51   C     C_3   0.172199 0.708931 0.728500 0.218040
C52   C     C_3   0.186419 0.773389 0.813055 -0.262354
C53   C     C_2   0.540885 0.116676 0.233849 0.927678
C54   C     C_2   0.260423 0.854273 0.811835 0.875698
C55   C     C_2   0.280689 0.725746 0.859066 0.785501
C56   C     C_3   0.560322 0.209065 0.735720 -0.310310
C57   C     C_2   0.022519 0.804996 0.852567 0.980994
C58   C     C_2   0.029652 0.209883 0.141787 0.934150
C59   C     C_2   0.707318 0.341691 0.742230 0.844784
C60   C     C_2   0.658826 0.197552 0.800367 1.016579
C61   C     C_2   0.055303 0.103053 0.669414 0.966971
C62   C     C_2   0.911133 0.622504 0.935599 0.910374
C63   C     C_2   0.668056 0.708085 0.305135 0.782578
C64   C     C_2   0.129244 0.071081 0.344995 0.925875
C65   C     C_2   0.435359 0.978337 0.566243 0.864185
C66   C     C_2   0.495570 0.847700 0.242249 0.995160
C67   C     C_3   0.141624 0.244591 0.662190 0.298077
C68   C     C_3   0.177645 0.167680 0.689782 -0.181429
C69   C     C_R   0.523085 0.453911 0.039378 0.034036
H1    H     H_    0.184287 0.753399 0.396778 0.096256
H2    H     H_    0.971857 0.759726 0.392551 -0.012788
H3    H     H_    0.972984 0.861123 0.319206 0.173470
H4    H     H_    0.929239 0.322429 0.288464 0.001716
H5    H     H_    0.113478 0.376286 0.310998 0.025269
H6    H     H_    0.054216 0.347187 0.177273 -0.032670
H7    H     H_    0.232855 0.281121 0.185564 0.076631
H8    H     H_    0.183497 0.868382 0.341083 0.147581
H9    H     H_    0.515391 0.291757 0.670971 -0.159379
H10   H     H_    0.440361 0.240968 0.759549 -0.036866
H11   H     H_    0.259444 0.260308 0.647050 -0.081475
H12   H     H_    0.697913 0.852991 0.755046 0.183333
H13   H     H_    0.291483 0.130729 0.662899 0.016790
H14   H     H_    0.429736 0.675834 0.301685 0.066038
H15   H     H_    0.454795 0.366465 0.174002 0.094285
H16   H     H_    0.743503 0.629269 0.822434 0.155810
H17   H     H_    0.254155 0.383589 0.961838 0.091988
H18   H     H_    0.356752 0.366751 0.056204 0.079497
H19   H     H_    0.879601 0.658834 0.068119 0.105042
H20   H     H_    0.087594 0.886642 0.595643 0.145687
H21   H     H_    0.411524 0.307725 0.497257 0.056421
H22   H     H_    0.774372 0.682899 0.504819 0.082464
H23   H     H_    0.689598 0.860532 0.662331 0.069586
H24   H     H_    0.306703 0.767071 0.236314 0.096766
H25   H     H_    0.558583 0.716200 0.613311 0.036022
H26   H     H_    0.640667 0.293612 0.390517 0.062801
H27   H     H_    0.329833 0.078408 0.186052 0.356985
H28   H     H_    0.759550 0.157413 0.291412 0.171145
H29   H     H_    0.236823 0.959143 0.779383 0.338912
H30   H     H_    0.452313 0.725505 0.936375 0.320098
H31   H     H_    0.785878 0.790546 0.852516 0.348400
H32   H     H_    0.903299 0.107560 0.129733 0.360973
H33   H     H_    0.484935 0.709150 0.185950 0.019277
H34   H     H_    0.506392 0.861721 0.710912 0.153864
H35   H     H_    0.823044 0.404749 0.839351 0.330424
H36   H     H_    0.471786 0.236993 0.876339 0.270399
H37   H     H_    0.546542 0.142365 0.693300 0.094442
H38   H     H_    0.069890 0.226160 0.609186 0.113209
H39   H     H_    0.947452 0.015647 0.699939 0.326176
H40   H     H_    0.192851 0.192789 0.752897 0.103657
H41   H     H_    0.336058 0.487887 0.653642 0.044493
H42   H     H_    0.164404 0.382159 0.843625 0.132476
H43   H     H_    0.028716 0.621519 0.159733 0.128226
H44   H     H_    0.889917 0.487916 0.336068 0.054271
H45   H     H_    0.442572 0.273617 0.351478 0.000230
H46   H     H_    0.141429 0.596736 0.960856 0.333878
H47   H     H_    0.826033 0.660310 0.365773 0.268040
H48   H     H_    0.077518 0.970420 0.249511 0.326725
H49   H     H_    0.726271 0.020319 0.459260 0.122783
H50   H     H_    0.331124 0.970711 0.659121 0.318137
H51   H     H_    0.625643 0.949882 0.293920 0.302443
H52   H     H_    0.763980 0.705988 0.644671 0.043064
H53   H     H_    0.612890 0.135342 0.348281 -0.015125
H54   H     H_    0.290271 0.696512 0.698767 -0.010495
H55   H     H_    0.135386 0.644934 0.726575 0.052801
H56   H     H_    0.037643 0.903935 0.417104 0.103875
O1    O     O_2   0.402610 0.439360 0.314250 -0.471817
O2    O     O_2   0.844222 0.191018 0.498434 -0.429887
O3    O     O_3   0.730624 0.211318 0.632856 -0.575916
O4    O     O_3   0.648560 0.446300 0.404730 -0.496452
O5    O     O_3   0.025080 0.609480 0.556050 -0.487374
O6    O     O_2   0.948320 0.280590 0.426090 -0.440576
O7    O     O_3   0.128837 0.245342 0.301250 -0.582073
O8    O     O_2   0.969888 0.484530 0.754594 -0.423672
O9    O     O_3   0.059125 0.316303 0.720401 -0.594823
O10   O     O_3   0.108870 0.604000 0.387500 -0.509556
O11   O     O_2   0.266197 0.544716 0.254168 -0.502530
O12   O     O_3   0.053135 0.746889 0.693347 -0.595868
O13   O     O_3   0.599293 0.298702 0.282093 -0.636436
O14   O     O_3   0.094584 0.697252 0.287658 -0.602924
O15   O     O_2   0.241370 0.719440 0.573960 -0.471263
O16   O     O_3   0.507090 0.652150 0.432150 -0.445672
O17   O     O_2   0.351629 0.808302 0.513675 -0.481081
O18   O     O_2   0.614280 0.079940 0.173027 -0.543580
O19   O     O_R   0.375662 0.112755 0.237558 -0.737650
O20   O     O_2   0.388120 0.875111 0.842615 -0.529471
O21   O     O_R   0.178638 0.906462 0.775457 -0.723914
O22   O     O_2   0.234552 0.658128 0.860592 -0.638704
O23   O     O_3   0.446686 0.801446 0.379532 -0.621308
O24   O     O_R   0.411426 0.760280 0.903664 -0.665552
O25   O     O_2   0.010564 0.865020 0.915223 -0.525131
O26   O     O_R   0.886225 0.764149 0.819493 -0.725948
O27   O     O_2   0.051914 0.186165 0.072654 -0.549869
O28   O     O_R   0.940435 0.161451 0.171281 -0.716576
O29   O     O_2   0.736769 0.394384 0.714073 -0.568163
O30   O     O_R   0.756569 0.353299 0.816684 -0.758382
O31   O     O_2   0.800393 0.170682 0.789766 -0.511381
O32   O     O_R   0.590985 0.217462 0.873051 -0.680990
O33   O     O_2   0.979842 0.088337 0.610381 -0.587009
O34   O     O_2   0.787080 0.560670 0.685800 -0.420017
O35   O     O_R   0.038204 0.054617 0.715980 -0.715736
O36   O     O_2   0.930234 0.697981 0.943120 -0.561151
O37   O     O_R   0.040065 0.566217 0.944423 -0.764204
O38   O     O_2   0.764087 0.737947 0.275633 -0.607885
O39   O     O_R   0.718707 0.651276 0.341824 -0.798143
O40   O     O_2   0.988636 0.101007 0.355840 -0.602755
O41   O     O_R   0.172615 0.993975 0.282281 -0.732537
O42   O     O_2   0.305550 0.991680 0.539107 -0.612982
O43   O     O_R   0.441588 0.967244 0.636586 -0.786577
O44   O     O_2   0.458677 0.873719 0.190254 -0.546340
O45   O     O_3   0.541120 0.553770 0.595290 -0.511833
O46   O     O_R   0.591028 0.896200 0.301660 -0.730262
O47   O     O_3   0.080800 0.396070 0.612520 -0.472713
O48   O     O_3   0.590123 0.701275 0.717706 -0.623599
O49   O     O_3   0.164600 0.390590 0.443970 -0.497619
O50   O     O_3   0.682580 0.347920 0.567870 -0.452997
P1    P     P_3+3 0.582960 0.413890 0.320860 0.996413
P2    P     P_3+3 0.071690 0.707860 0.593450 1.008929
P3    P     P_3+3 0.495286 0.767536 0.457843 0.991147
P4    P     P_3+3 0.606720 0.586180 0.679160 1.008333
P5    P     P_3+3 0.692276 0.234060 0.548772 1.027524
P6    P     P_3+3 0.101673 0.590663 0.291000 0.937927
P7    P     P_3+3 0.127161 0.279425 0.401242 1.013153
P8    P     P_3+3 0.102893 0.413138 0.709572 1.021796

loop_
_geom_bond_atom_site_label_1
_geom_bond_atom_site_label_2
_ccdc_geom_bond_type
C49   H26   S    
C61   O35   S    
C27   H43   S    
Ba1   O49   S    
C56   C60   S    
O9    P8    S    
C25   C27   A    
C50   H53   S    
C17   C18   A    
Ba1   O1    S    
C62   O37   S    
Ba1   O5    S    
C1    H8    S    
C57   O26   S    
C23   C34   S    
C51   C52   S    
C65   O42   D    
C5    C9    A    
C10   C11   A    
C24   C25   A    
C4    H14   S    
C64   O40   D    
C15   C24   A    
C61   O33   D    
C26   C27   A    
C22   C24   A    
C11   H41   S    
C34   H6    S    
O47   P8    S    
C5    C69   A    
C66   O44   D    
C1    H56   S    
C53   O18   D    
C16   C66   S    
O50   P5    S    
C63   O38   D    
C9    C22   A    
C36   P7    S    
C25   H19   S    
Ba1   Ba2   S    
C1    H3    S    
C28   H25   S    
C67   H11   S    
Ba2   O49   S    
C3    H17   S    
C67   H38   S    
O45   P4    S    
C38   C41   S    
O17   P3    D    
C6    C7    A    
C46   H20   S    
C55   O22   D    
C33   C47   A    
O13   P1    S    
C21   C22   A    
C60   O31   D    
Ba1   O15   S    
Ba2   O50   S    
C68   H13   S    
C7    C8    A    
C50   C53   S    
O11   P6    D    
C41   H49   S    
O48   P4    S    
C49   O13   S    
H50   O43   S    
C12   O14   S    
C65   O43   S    
C32   C36   S    
O34   P4    D    
C16   H24   S    
C40   H23   S    
C45   H9    S    
C33   C48   A    
C62   O36   D    
Ba2   O34   S    
C4    C63   S    
O4    P1    S    
C42   C44   S    
C58   O27   D    
C52   C57   S    
C33   H22   S    
H46   O37   S    
H39   O35   S    
C4    C16   S    
C52   C54   S    
Ba2   O6    S    
C45   O3    S    
C49   C50   S    
C12   H2    S    
O3    P5    S    
C56   H10   S    
C37   C38   S    
C3    C5    A    
C38   C39   S    
C53   O19   S    
H27   O19   S    
C34   C58   S    
C43   C44   A    
C63   O39   S    
H30   O24   S    
C32   C37   D    
C23   H4    S    
Ba2   P4    S    
C54   O21   S    
C48   P3    S    
C41   C42   D    
C26   C29   A    
C35   C36   D    
Ba1   O16   S    
C59   O30   S    
Ba1   P1    S    
O6    P7    D    
Ba2   O5    S    
O15   P2    D    
C61   C68   S    
C35   C64   S    
O2    P5    D    
Ba2   O4    S    
C16   H33   S    
O16   P3    S    
C28   H52   S    
C17   C26   A    
H31   O26   S    
C1    C12   S    
C51   H54   S    
C6    H42   S    
C60   O32   S    
C18   C31   A    
H32   O28   S    
C21   C62   S    
C15   C69   A    
C67   O9    S    
C8    C9    A    
C11   C13   A    
O1    P1    D    
H51   O46   S    
C59   O29   D    
C23   O7    S    
C28   O48   S    
Ba1   O10   S    
C13   P4    S    
O23   P3    S    
C2    H18   S    
C43   C46   A    
O49   P7    S    
C19   H15   S    
C46   C47   A    
C14   C20   A    
C50   H28   S    
C29   P6    S    
C31   P1    S    
C51   O12   S    
C12   H1    S    
C29   C30   A    
C40   H12   S    
O7    P7    S    
Ba1   O4    S    
C20   H16   S    
C45   C59   S    
C3    C6    A    
H36   O32   S    
C66   O46   S    
O10   P6    S    
H35   O30   S    
C44   C48   A    
Ba1   O45   S    
C49   H45   S    
C64   O41   S    
C23   H5    S    
C30   C31   A    
C54   O20   D    
C58   O28   S    
C34   H7    S    
Ba2   O47   S    
C45   C56   S    
C2    C19   A    
Ba1   P2    S    
H29   O21   S    
C10   P8    S    
C55   O24   S    
C15   C17   A    
H47   O39   S    
C56   H37   S    
C30   H44   S    
C35   C39   S    
C67   C68   S    
C7    C10   A    
C32   H21   S    
C37   P5    S    
O12   P2    S    
C51   H55   S    
O5    P2    S    
C4    O23   S    
C57   O25   D    
C18   C19   A    
C40   H34   S    
C20   C21   A    
C28   C40   S    
C42   C65   S    
C8    C14   A    
O14   P6    S    
H48   O41   S    
O8    P8    D    
C2    C69   A    
C13   C14   A    
Ba2   O45   S    
C47   P2    S    
C52   C55   S    
C68   H40   S    
